REMARK  Name = ZINCpe00000zfYsK.0
REMARK                            x       y       z     vdW  Elec       q    Type
REMARK                         _______ _______ _______ _____ _____    ______ ____
ROOT
ATOM      1  C   LIG    1       -0.194   1.381   0.114  0.00  0.00    +0.600 C 
ATOM      2  N   LIG    1       -1.484   1.767   0.064  0.00  0.00    -0.610 N 
ATOM      3  C   LIG    1       -1.835   3.190  -0.047  0.00  0.00    +0.270 C 
ATOM      4  C   LIG    1       -2.739   3.373  -1.278  0.00  0.00    +0.270 C 
ATOM      5  N   LIG    1       -3.820   2.379  -1.217  0.00  0.00    -0.600 N 
ATOM      6  C   LIG    1       -3.469   0.957  -1.101  0.00  0.00    +0.290 C 
ATOM      7  C   LIG    1       -5.110   2.765  -1.267  0.00  0.00    +0.610 C 
ATOM      8  O   LIG    1       -5.996   1.950  -1.097  0.00  0.00    -0.520 OA
ATOM      9  C   LIG    1       -2.565   0.773   0.124  0.00  0.00    +0.290 C 
ATOM     10  O   LIG    1        0.088   0.198   0.088  0.00  0.00    -0.540 OA
ENDROOT
BRANCH   7  11
ATOM     11  C   LIG    1       -5.447   4.176  -1.528  0.00  0.00    +0.010 A 
ATOM     12  N   LIG    1       -4.605   5.179  -1.648  0.00  0.00    -0.210 NA
ATOM     13  N   LIG    1       -5.208   6.290  -1.874  0.00  0.00    -0.420 N 
ATOM     14  H   LIG    1       -4.761   7.142  -1.992  0.00  0.00    +0.450 HD
ATOM     15  C   LIG    1       -6.567   6.115  -1.926  0.00  0.00    +0.070 A 
ATOM     16  C   LIG    1       -7.654   6.957  -2.135  0.00  0.00    +0.010 A 
ATOM     17  C   LIG    1       -8.930   6.438  -2.124  0.00  0.00    +0.050 A 
ATOM     18  C   LIG    1       -9.143   5.083  -1.906  0.00  0.00    -0.010 A 
ATOM     19  C   LIG    1       -8.089   4.238  -1.698  0.00  0.00    +0.100 A 
ATOM     20  C   LIG    1       -6.791   4.741  -1.712  0.00  0.00    -0.110 A 
ENDBRANCH   7  11
BRANCH   1  24
ATOM     21  C   LIG    1        4.217   3.688  -0.319  0.00  0.00    +0.360 C 
ATOM     22  N   LIG    1        2.816   3.400   0.001  0.00  0.00    -0.360 N 
ATOM     23  C   LIG    1        2.172   2.252  -0.261  0.00  0.00    +0.320 A 
ATOM     24  C   LIG    1        0.876   2.392   0.193  0.00  0.00    -0.300 A 
ATOM     25  C   LIG    1        0.768   3.684   0.754  0.00  0.00    +0.270 A 
ATOM     26  N   LIG    1        1.926   4.274   0.635  0.00  0.00    -0.290 NA
ENDBRANCH   1  24
TORSDOF 2
