REMARK  Name = ZINCvU0000000IuY.0
REMARK                            x       y       z     vdW  Elec       q    Type
REMARK                         _______ _______ _______ _____ _____    ______ ____
ROOT
ATOM      1  N   LIG    1        3.435  -6.716   0.577  0.00  0.00    -0.620 N 
ATOM      2  H   LIG    1        4.111  -6.083   0.865  0.00  0.00    +0.420 HD
ATOM      3  C   LIG    1        2.266  -6.272   0.074  0.00  0.00    +0.530 C 
ATOM      4  O   LIG    1        1.421  -7.063  -0.286  0.00  0.00    -0.480 OA
ENDROOT
BRANCH   1   6
ATOM      5  C   LIG    1        4.819  -8.632   1.177  0.00  0.00    -0.180 A 
ATOM      6  C   LIG    1        3.671  -8.078   0.682  0.00  0.00    +0.040 A 
ATOM      7  S   LIG    1        2.568  -9.290   0.220  0.00  0.00    +0.310 S 
ATOM      8  C   LIG    1        3.663 -10.582   0.686  0.00  0.00    -0.240 A 
ATOM      9  C   LIG    1        3.360 -12.062   0.560  0.00  0.00    +0.120 C 
ATOM     10  C   LIG    1        4.671 -12.844   0.673  0.00  0.00    +0.020 C 
ATOM     11  C   LIG    1        5.432 -12.367   1.914  0.00  0.00    +0.020 C 
ATOM     12  C   LIG    1        5.953 -10.949   1.669  0.00  0.00    +0.090 C 
ATOM     13  C   LIG    1        4.804 -10.084   1.174  0.00  0.00    -0.050 A 
BRANCH   5  14
ATOM     14  C   LIG    1        5.952  -7.840   1.660  0.00  0.00    +0.540 C 
ATOM     15  O   LIG    1        6.008  -7.508   2.829  0.00  0.00    -0.490 OA
BRANCH  14  16
ATOM     16  O   LIG    1        6.934  -7.478   0.808  0.00  0.00    -0.350 OA
BRANCH  16  18
ATOM     17  C   LIG    1        9.035  -6.381   0.250  0.00  0.00    +0.070 C 
ATOM     18  C   LIG    1        8.026  -6.694   1.357  0.00  0.00    +0.200 C 
ENDBRANCH  16  18
ENDBRANCH  14  16
ENDBRANCH   5  14
ENDBRANCH   1   6
BRANCH   3  19
ATOM     19  C   LIG    1        2.010  -4.791  -0.041  0.00  0.00    +0.010 C 
ATOM     20  C   LIG    1        2.603  -4.271  -1.351  0.00  0.00    +0.090 C 
BRANCH  19  21
ATOM     21  S   LIG    1        0.222  -4.484  -0.022  0.00  0.00    +0.070 S 
BRANCH  21  22
ATOM     22  C   LIG    1        0.122  -2.725  -0.013  0.00  0.00    +0.140 A 
ATOM     23  N   LIG    1        1.233  -2.004  -0.020  0.00  0.00    -0.480 NA
ATOM     24  C   LIG    1        1.203  -0.685  -0.013  0.00  0.00    +0.360 A 
ATOM     25  C   LIG    1        0.002  -0.004   0.002  0.00  0.00    -0.240 A 
ATOM     26  C   LIG    1       -1.187  -0.722   0.015  0.00  0.00    +0.170 A 
ATOM     27  C   LIG    1       -1.125  -2.104   0.003  0.00  0.00    -0.080 A 
ATOM     28 CL   LIG    1       -2.579  -3.051   0.012  0.00  0.00    -0.010 Cl
BRANCH  25  29
ATOM     29  C   LIG    1       -0.018   1.503   0.010  0.00  0.00    +0.520 C 
ATOM     30  F   LIG    1       -0.673   1.954   1.161  0.00  0.00    -0.170 F 
ATOM     31  F   LIG    1       -0.695   1.966  -1.123  0.00  0.00    -0.170 F 
ATOM     32  F   LIG    1        1.294   1.987   0.000  0.00  0.00    -0.170 F 
ENDBRANCH  25  29
ENDBRANCH  21  22
ENDBRANCH  19  21
ENDBRANCH   3  19
TORSDOF 8
