REMARK  Name = ZINCrH00000tj0CF.0
REMARK                            x       y       z     vdW  Elec       q    Type
REMARK                         _______ _______ _______ _____ _____    ______ ____
ROOT
ATOM      1  N   LIG    1       10.036   4.373   2.162  0.00  0.00    -0.490 N 
ATOM      2  C   LIG    1        9.137   5.534   2.207  0.00  0.00    +0.200 C 
ATOM      3  C   LIG    1        7.685   5.056   2.270  0.00  0.00    +0.060 C 
ATOM      4  C   LIG    1        7.381   4.199   1.039  0.00  0.00    +0.180 C 
ATOM      5  C   LIG    1        8.361   3.023   0.988  0.00  0.00    +0.030 C 
ATOM      6  C   LIG    1        9.794   3.561   0.963  0.00  0.00    +0.200 C 
ENDROOT
BRANCH   1  10
ATOM      7  C   LIG    1       14.009   5.556   2.382  0.00  0.00    -0.200 A 
ATOM      8  C   LIG    1       13.685   4.196   2.281  0.00  0.00    +0.110 A 
ATOM      9  C   LIG    1       12.377   3.812   2.209  0.00  0.00    -0.030 A 
ATOM     10  C   LIG    1       11.365   4.769   2.236  0.00  0.00    +0.150 A 
ATOM     11  C   LIG    1       11.682   6.122   2.331  0.00  0.00    -0.060 A 
ATOM     12  C   LIG    1       12.988   6.515   2.408  0.00  0.00    +0.100 A 
BRANCH   7  14
ATOM     13  C   LIG    1       15.765   7.439   2.441  0.00  0.00    +0.070 C 
ATOM     14  C   LIG    1       15.413   5.974   2.458  0.00  0.00    +0.400 C 
ATOM     15  O   LIG    1       16.291   5.140   2.536  0.00  0.00    -0.460 OA
ENDBRANCH   7  14
ENDBRANCH   1  10
BRANCH   4  16
ATOM     16  O   LIG    1        6.022   3.694   1.122  0.00  0.00    -0.340 OA
BRANCH  16  17
ATOM     17  C   LIG    1        5.378   3.476  -0.041  0.00  0.00    +0.510 C 
ATOM     18  O   LIG    1        5.936   3.702  -1.096  0.00  0.00    -0.500 OA
BRANCH  17  19
ATOM     19  C   LIG    1        3.993   2.963  -0.033  0.00  0.00    -0.120 A 
ATOM     20  C   LIG    1        3.322   2.737  -1.237  0.00  0.00    +0.090 A 
ATOM     21  C   LIG    1        2.029   2.258  -1.222  0.00  0.00    +0.020 A 
ATOM     22  C   LIG    1        1.395   2.003  -0.018  0.00  0.00    -0.060 A 
ATOM     23  C   LIG    1        2.052   2.231   1.178  0.00  0.00    +0.020 A 
ATOM     24  C   LIG    1        3.348   2.703   1.178  0.00  0.00    +0.080 A 
BRANCH  22  25
ATOM     25  C   LIG    1       -0.018   1.481  -0.011  0.00  0.00    +0.250 C 
BRANCH  25  26
ATOM     26  C   LIG    1        0.002   0.009  -0.031  0.00  0.00    +0.200 C 
ATOM     27  N   LIG    1        0.018  -1.127  -0.046  0.00  0.00    -0.420 NA
ENDBRANCH  25  26
ENDBRANCH  22  25
ENDBRANCH  17  19
ENDBRANCH  16  17
ENDBRANCH   4  16
TORSDOF 7
