REMARK  Name = ZINCrH000004oioV.0
REMARK                            x       y       z     vdW  Elec       q    Type
REMARK                         _______ _______ _______ _____ _____    ______ ____
ROOT
ATOM      1  C   LIG    1        0.010  -0.009   0.198  0.00  0.00    +0.040 C 
ATOM      2  C   LIG    1       -0.012   1.508  -0.004  0.00  0.00    +0.300 C 
ENDROOT
BRANCH   2   3
ATOM      3  C   LIG    1        1.400   2.034  -0.010  0.00  0.00    -0.110 A 
ATOM      4  C   LIG    1        2.065   2.242   1.184  0.00  0.00    +0.030 A 
ATOM      5  C   LIG    1        3.361   2.720   1.181  0.00  0.00    -0.010 A 
ATOM      6  C   LIG    1        3.992   3.002  -0.023  0.00  0.00    +0.150 A 
ATOM      7  C   LIG    1        3.320   2.797  -1.221  0.00  0.00    +0.020 A 
ATOM      8  C   LIG    1        2.026   2.314  -1.211  0.00  0.00    +0.050 A 
BRANCH   6   9
ATOM      9  N   LIG    1        5.303   3.491  -0.029  0.00  0.00    -0.670 N 
ATOM     10  H   LIG    1        5.930   3.207   0.653  0.00  0.00    +0.410 HD
ATOM     11  C   LIG    1        5.694   4.358  -0.985  0.00  0.00    +0.540 C 
ATOM     12  O   LIG    1        4.886   4.787  -1.781  0.00  0.00    -0.520 OA
BRANCH  11  13
ATOM     13  C   LIG    1        7.135   4.793  -1.063  0.00  0.00    -0.070 C 
ATOM     14  C   LIG    1        7.453   6.249  -0.715  0.00  0.00    +0.060 C 
ATOM     15  C   LIG    1        7.515   5.779  -2.170  0.00  0.00    +0.080 C 
ENDBRANCH  11  13
ENDBRANCH   6   9
ENDBRANCH   2   3
BRANCH   2  16
ATOM     16  N   LIG    1       -0.762   2.135   1.088  0.00  0.00    -0.740 N 
ATOM     17  H   LIG    1       -0.292   2.478   1.865  0.00  0.00    +0.390 HD
ATOM     18  C   LIG    1       -2.103   2.235   1.013  0.00  0.00    +0.710 C 
ATOM     19  N   LIG    1       -2.793   2.812   2.018  0.00  0.00    -0.750 N 
ATOM     20  H   LIG    1       -2.324   3.155   2.794  0.00  0.00    +0.400 HD
ATOM     21  O   LIG    1       -2.692   1.806   0.040  0.00  0.00    -0.590 OA
BRANCH  19  22
ATOM     22  C   LIG    1       -4.252   2.921   1.936  0.00  0.00    +0.280 C 
BRANCH  22  23
ATOM     23  C   LIG    1       -4.782   3.610   3.195  0.00  0.00    +0.080 C 
BRANCH  23  24
ATOM     24  C   LIG    1       -6.283   3.722   3.112  0.00  0.00    -0.120 A 
ATOM     25  C   LIG    1       -7.082   2.819   3.787  0.00  0.00    +0.040 A 
ATOM     26  C   LIG    1       -8.459   2.922   3.711  0.00  0.00    +0.000 A 
ATOM     27  C   LIG    1       -9.037   3.928   2.959  0.00  0.00    +0.040 A 
ATOM     28  C   LIG    1       -8.240   4.832   2.282  0.00  0.00    -0.010 A 
ATOM     29  C   LIG    1       -6.861   4.734   2.363  0.00  0.00    +0.100 A 
ATOM     30  F   LIG    1       -6.081   5.620   1.708  0.00  0.00    -0.140 F 
ENDBRANCH  23  24
ENDBRANCH  22  23
ENDBRANCH  19  22
ENDBRANCH   2  16
TORSDOF 7
