REMARK  Name = ZINCrH000004rv5P.0
REMARK                            x       y       z     vdW  Elec       q    Type
REMARK                         _______ _______ _______ _____ _____    ______ ____
ROOT
ATOM      1  C   LIG    1       -3.122   3.065   4.907  0.00  0.00    +0.100 C 
ATOM      2  C   LIG    1       -2.345   2.645   3.686  0.00  0.00    -0.050 A 
ATOM      3  C   LIG    1       -1.424   3.506   3.123  0.00  0.00    +0.020 A 
ATOM      4  C   LIG    1       -0.706   3.119   2.006  0.00  0.00    +0.110 A 
ATOM      5  C   LIG    1       -0.915   1.873   1.443  0.00  0.00    -0.670 A 
ATOM      6  C   LIG    1       -1.835   1.007   2.002  0.00  0.00    +0.140 A 
ATOM      7  C   LIG    1       -2.554   1.391   3.127  0.00  0.00    +0.120 A 
ENDROOT
BRANCH   7   8
ATOM      8  N   LIG    1       -3.485   0.516   3.695  0.00  0.00    -0.660 N 
ATOM      9  H   LIG    1       -3.612   0.501   4.656  0.00  0.00    +0.410 HD
ATOM     10  C   LIG    1       -4.206  -0.306   2.907  0.00  0.00    +0.560 C 
ATOM     11  O   LIG    1       -3.989  -0.346   1.711  0.00  0.00    -0.500 OA
BRANCH  10  12
ATOM     12  C   LIG    1       -5.260  -1.158   3.496  0.00  0.00    -0.080 A 
ATOM     13  C   LIG    1       -5.507  -1.118   4.869  0.00  0.00    +0.020 A 
ATOM     14  C   LIG    1       -6.498  -1.913   5.413  0.00  0.00    +0.130 A 
ATOM     15  C   LIG    1       -7.237  -2.757   4.601  0.00  0.00    +0.000 A 
ATOM     16  C   LIG    1       -6.992  -2.805   3.238  0.00  0.00    +0.130 A 
ATOM     17  F   LIG    1       -7.717  -3.630   2.452  0.00  0.00    -0.120 F 
ATOM     18  F   LIG    1       -6.742  -1.872   6.742  0.00  0.00    -0.120 F 
ATOM     19  C   LIG    1       -6.008  -2.010   2.682  0.00  0.00    +0.060 A 
ENDBRANCH  10  12
ENDBRANCH   7   8
BRANCH   5  20
ATOM     20  S   LIG    1       -0.003   1.388   0.016  0.00  0.00    +2.690 S 
ATOM     21  O   LIG    1        1.181   2.173   0.011  0.00  0.00    -0.950 OA
ATOM     22  O   LIG    1        0.006  -0.033   0.010  0.00  0.00    -0.950 OA
BRANCH  20  23
ATOM     23  N   LIG    1       -0.880   1.855  -1.309  0.00  0.00    -0.990 NA
ATOM     24  C   LIG    1       -1.867   0.948  -1.911  0.00  0.00    +0.290 C 
ATOM     25  C   LIG    1       -3.214   1.681  -2.001  0.00  0.00    +0.020 C 
ATOM     26  C   LIG    1       -3.023   2.996  -2.761  0.00  0.00    +0.010 C 
ATOM     27  C   LIG    1       -2.039   3.888  -2.000  0.00  0.00    +0.010 C 
ATOM     28  C   LIG    1       -0.682   3.182  -1.907  0.00  0.00    +0.290 C 
ENDBRANCH  20  23
ENDBRANCH   5  20
TORSDOF 4
