REMARK  Name = ZINCqH00000070ar.0
REMARK                            x       y       z     vdW  Elec       q    Type
REMARK                         _______ _______ _______ _____ _____    ______ ____
ROOT
ATOM      1  N   LIG    1       -1.056  -0.978  -0.117  0.00  0.00    -0.610 N 
ATOM      2  H   LIG    1       -0.935  -1.921   0.073  0.00  0.00    +0.430 HD
ATOM      3  C   LIG    1       -2.298  -0.465  -0.227  0.00  0.00    +0.600 C 
ATOM      4  O   LIG    1       -2.449   0.717  -0.465  0.00  0.00    -0.500 OA
ENDROOT
BRANCH   3   5
ATOM      5  C   LIG    1       -3.473  -1.339  -0.058  0.00  0.00    -0.310 A 
ATOM      6  C   LIG    1       -4.797  -0.957  -0.142  0.00  0.00    +0.180 A 
ATOM      7  N   LIG    1       -5.545  -2.051   0.074  0.00  0.00    -0.340 N 
ATOM      8  N   LIG    1       -4.690  -3.137   0.296  0.00  0.00    -0.280 NA
ATOM      9  C   LIG    1       -5.308   0.432  -0.424  0.00  0.00    +0.170 C 
ATOM     10  C   LIG    1       -3.455  -2.726   0.214  0.00  0.00    +0.280 A 
BRANCH   7  11
ATOM     11  C   LIG    1       -7.009  -2.100   0.076  0.00  0.00    +0.170 C 
ATOM     12  C   LIG    1       -7.545  -1.292   1.260  0.00  0.00    +0.060 C 
ATOM     13  C   LIG    1       -7.470  -3.554   0.200  0.00  0.00    +0.080 C 
ATOM     14  C   LIG    1       -7.541  -1.506  -1.230  0.00  0.00    +0.060 C 
ENDBRANCH   7  11
ENDBRANCH   3   5
BRANCH   1  18
ATOM     15  C   LIG    1        2.204   0.461  -0.386  0.00  0.00    +0.340 A 
ATOM     16  N   LIG    1        1.751   1.665  -0.630  0.00  0.00    -0.510 NA
ATOM     17  S   LIG    1        0.057   1.534  -0.614  0.00  0.00    +0.330 S 
ATOM     18  C   LIG    1        0.050  -0.155  -0.276  0.00  0.00    +0.290 A 
ATOM     19  N   LIG    1        1.316  -0.498  -0.199  0.00  0.00    -0.550 NA
BRANCH  15  23
ATOM     20  C   LIG    1        6.379  -0.332  -0.200  0.00  0.00    +0.150 A 
ATOM     21  C   LIG    1        5.929   0.955  -0.462  0.00  0.00    -0.020 A 
ATOM     22  C   LIG    1        4.576   1.215  -0.523  0.00  0.00    +0.110 A 
ATOM     23  C   LIG    1        3.660   0.184  -0.322  0.00  0.00    -0.070 A 
ATOM     24  C   LIG    1        4.114  -1.106  -0.054  0.00  0.00    +0.110 A 
ATOM     25  C   LIG    1        5.468  -1.361   0.001  0.00  0.00    -0.090 A 
BRANCH  20  27
ATOM     26  C   LIG    1        8.105  -1.932   0.134  0.00  0.00    +0.240 C 
ATOM     27  O   LIG    1        7.712  -0.585  -0.140  0.00  0.00    -0.310 OA
ENDBRANCH  20  27
ENDBRANCH  15  23
ENDBRANCH   1  18
TORSDOF 5
