REMARK  Name = ZINCrg00000fRWXJ.0
REMARK                            x       y       z     vdW  Elec       q    Type
REMARK                         _______ _______ _______ _____ _____    ______ ____
ROOT
ATOM      1  C   LIG    1        0.313  -0.636  -6.783  0.00  0.00    +0.520 C 
ATOM      2  O   LIG    1        1.408  -0.164  -7.014  0.00  0.00    -0.500 OA
ENDROOT
BRANCH   1   5
ATOM      3  C   LIG    1       -0.329  -2.583  -9.929  0.00  0.00    +0.110 A 
ATOM      4  C   LIG    1        0.289  -1.770  -8.999  0.00  0.00    +0.050 A 
ATOM      5  C   LIG    1       -0.345  -1.499  -7.782  0.00  0.00    -0.120 A 
ATOM      6  C   LIG    1       -1.605  -2.042  -7.518  0.00  0.00    +0.100 A 
ATOM      7  C   LIG    1       -2.218  -2.847  -8.453  0.00  0.00    -0.020 A 
ATOM      8  C   LIG    1       -1.587  -3.122  -9.658  0.00  0.00    +0.120 A 
BRANCH   3  10
ATOM      9  C   LIG    1        1.573  -2.268 -11.321  0.00  0.00    +0.250 C 
ATOM     10  O   LIG    1        0.287  -2.853 -11.111  0.00  0.00    -0.300 OA
ENDBRANCH   3  10
BRANCH   8  11
ATOM     11  O   LIG    1       -2.195  -3.916 -10.576  0.00  0.00    -0.300 OA
BRANCH  11  12
ATOM     12  C   LIG    1       -3.482  -4.434 -10.234  0.00  0.00    +0.600 C 
ATOM     13  F   LIG    1       -4.367  -3.373 -10.009  0.00  0.00    -0.200 F 
ATOM     14  F   LIG    1       -3.380  -5.210  -9.075  0.00  0.00    -0.200 F 
ENDBRANCH  11  12
ENDBRANCH   8  11
ENDBRANCH   1   5
BRANCH   1  15
ATOM     15  O   LIG    1       -0.302  -0.371  -5.613  0.00  0.00    -0.330 OA
BRANCH  15  16
ATOM     16  C   LIG    1        0.405   0.486  -4.677  0.00  0.00    +0.270 C 
BRANCH  16  17
ATOM     17  C   LIG    1       -0.430   0.669  -3.436  0.00  0.00    +0.520 C 
ATOM     18  N   LIG    1        0.027   1.431  -2.423  0.00  0.00    -0.600 N 
ATOM     19  C   LIG    1        1.336   2.081  -2.528  0.00  0.00    +0.290 C 
ATOM     20  O   LIG    1       -1.514   0.131  -3.349  0.00  0.00    -0.510 OA
BRANCH  18  21
ATOM     21  C   LIG    1       -0.784   1.609  -1.216  0.00  0.00    +0.280 C 
ATOM     22  C   LIG    1       -0.013   1.086   0.008  0.00  0.00    +0.070 C 
ATOM     23  C   LIG    1       -0.766   1.600   1.262  0.00  0.00    -0.290 C 
ATOM     24  S   LIG    1       -1.166   3.330   0.805  0.00  0.00    +2.400 S 
ATOM     25  O   LIG    1       -2.504   3.623   1.183  0.00  0.00    -0.930 OA
ATOM     26  O   LIG    1       -0.110   4.183   1.224  0.00  0.00    -0.930 OA
ATOM     27  C   LIG    1       -1.083   3.107  -1.009  0.00  0.00    -0.330 C 
ENDBRANCH  18  21
ENDBRANCH  16  17
ENDBRANCH  15  16
ENDBRANCH   1  15
TORSDOF 8
