REMARK  Name = ZINCvU00000009Ru.0
REMARK                            x       y       z     vdW  Elec       q    Type
REMARK                         _______ _______ _______ _____ _____    ______ ____
ROOT
ATOM      1  C   LIG    1        2.279  -1.245   7.770  0.00  0.00    +0.290 A 
ATOM      2  N   LIG    1        1.396  -1.016   6.835  0.00  0.00    -0.530 NA
ATOM      3  C   LIG    1        1.935  -0.244   5.881  0.00  0.00    +0.260 A 
ATOM      4  N   LIG    1        3.181   0.021   6.208  0.00  0.00    -0.300 NA
ATOM      5  N   LIG    1        3.421  -0.617   7.436  0.00  0.00    -0.360 N 
ENDROOT
BRANCH   5   6
ATOM      6  C   LIG    1        4.671  -0.606   8.199  0.00  0.00    +0.270 C 
ATOM      7  C   LIG    1        5.028   0.834   8.572  0.00  0.00    +0.020 C 
ATOM      8  C   LIG    1        6.334   0.846   9.369  0.00  0.00    +0.030 C 
ATOM      9  C   LIG    1        7.456   0.245   8.520  0.00  0.00    -0.070 C 
ATOM     10  C   LIG    1        7.098  -1.195   8.148  0.00  0.00    +0.030 C 
ATOM     11  C   LIG    1        7.630   1.073   7.245  0.00  0.00    +0.030 C 
ATOM     12  C   LIG    1        8.761   0.257   9.318  0.00  0.00    +0.040 C 
ATOM     13  C   LIG    1        5.793  -1.207   7.350  0.00  0.00    +0.020 C 
ENDBRANCH   5   6
BRANCH   3  14
ATOM     14  C   LIG    1        1.242   0.230   4.658  0.00  0.00    +0.020 A 
ATOM     15  C   LIG    1        1.917   1.031   3.740  0.00  0.00    +0.050 A 
ATOM     16  C   LIG    1        1.274   1.466   2.599  0.00  0.00    +0.010 A 
ATOM     17  C   LIG    1       -0.050   1.114   2.370  0.00  0.00    +0.060 A 
ATOM     18  C   LIG    1       -0.728   0.313   3.285  0.00  0.00    +0.120 A 
ATOM     19  F   LIG    1       -2.014  -0.032   3.058  0.00  0.00    -0.120 F 
ATOM     20  C   LIG    1       -0.086  -0.128   4.425  0.00  0.00    +0.040 A 
BRANCH  17  21
ATOM     21  N   LIG    1       -0.700   1.560   1.217  0.00  0.00    -0.510 N 
ATOM     22  C   LIG    1       -0.822   3.023   1.213  0.00  0.00    +0.210 C 
ATOM     23  C   LIG    1       -0.013   1.086   0.008  0.00  0.00    +0.210 C 
ENDBRANCH  17  21
ENDBRANCH   3  14
BRANCH   1  28
ATOM     24  C   LIG    1        1.459  -4.339   9.872  0.00  0.00    +0.160 C 
ATOM     25  C   LIG    1        0.324  -3.727  10.695  0.00  0.00    +0.010 C 
ATOM     26  C   LIG    1        0.696  -2.298  11.094  0.00  0.00    +0.030 C 
ATOM     27  C   LIG    1        0.922  -1.459   9.834  0.00  0.00    +0.030 C 
ATOM     28  C   LIG    1        2.057  -2.071   9.011  0.00  0.00    +0.100 C 
ATOM     29  C   LIG    1        1.685  -3.500   8.612  0.00  0.00    +0.060 C 
BRANCH  24  31
ATOM     30  C   LIG    1        2.831  -5.551  11.419  0.00  0.00    +0.200 C 
ATOM     31  O   LIG    1        2.656  -4.358  10.652  0.00  0.00    -0.380 OA
ENDBRANCH  24  31
ENDBRANCH   1  28
TORSDOF 5
