REMARK  Name = ZINCqH0000035rmp.0
REMARK                            x       y       z     vdW  Elec       q    Type
REMARK                         _______ _______ _______ _____ _____    ______ ____
ROOT
ATOM      1  C   LIG    1       -4.938   0.925   0.029  0.00  0.00    +0.300 C 
ENDROOT
BRANCH   1   2
ATOM      2  C   LIG    1       -6.023   1.774   0.640  0.00  0.00    -0.090 A 
ATOM      3  C   LIG    1       -6.083   3.125   0.354  0.00  0.00    +0.020 A 
ATOM      4  C   LIG    1       -7.076   3.908   0.912  0.00  0.00    +0.030 A 
ATOM      5  C   LIG    1       -8.014   3.340   1.761  0.00  0.00    +0.050 A 
ATOM      6  O   LIG    1       -8.982   4.125   2.309  0.00  0.00    -0.310 OA
ATOM      7  C   LIG    1      -10.123   3.454   2.855  0.00  0.00    +0.220 C 
ATOM      8  C   LIG    1       -9.626   2.280   3.711  0.00  0.00    +0.220 C 
ATOM      9  O   LIG    1       -8.870   1.401   2.870  0.00  0.00    -0.310 OA
ATOM     10  C   LIG    1       -7.955   1.981   2.046  0.00  0.00    +0.060 A 
ATOM     11  C   LIG    1       -6.959   1.200   1.480  0.00  0.00    +0.040 A 
ENDBRANCH   1   2
BRANCH   1  13
ATOM     12  C   LIG    1       -2.503   1.007   0.019  0.00  0.00    +0.560 C 
ATOM     13  N   LIG    1       -3.677   1.669   0.028  0.00  0.00    -0.720 N 
ATOM     14  H   LIG    1       -3.686   2.639   0.034  0.00  0.00    +0.400 HD
ATOM     15  O   LIG    1       -2.491  -0.208   0.012  0.00  0.00    -0.530 OA
BRANCH  12  19
ATOM     16  C   LIG    1        1.155   3.167   0.009  0.00  0.00    -0.070 A 
ATOM     17  C   LIG    1        1.172   1.783   0.000  0.00  0.00    +0.030 A 
ATOM     18  C   LIG    1       -0.013   1.076   0.008  0.00  0.00    +0.080 A 
ATOM     19  C   LIG    1       -1.230   1.759   0.017  0.00  0.00    -0.130 A 
ATOM     20  C   LIG    1       -1.240   3.154   0.031  0.00  0.00    +0.040 A 
ATOM     21  C   LIG    1       -0.048   3.850   0.024  0.00  0.00    +0.020 A 
BRANCH  16  22
ATOM     22  C   LIG    1        2.452   3.933   0.001  0.00  0.00    +0.220 C 
BRANCH  22  24
ATOM     23  C   LIG    1        4.075   4.908  -1.469  0.00  0.00    +0.200 C 
ATOM     24  O   LIG    1        2.850   4.183  -1.349  0.00  0.00    -0.380 OA
ENDBRANCH  22  24
ENDBRANCH  16  22
ENDBRANCH  12  19
ENDBRANCH   1  13
BRANCH   1  25
ATOM     25  C   LIG    1       -5.320   0.565  -1.408  0.00  0.00    -0.020 C 
ATOM     26  C   LIG    1       -4.281  -0.398  -1.986  0.00  0.00    +0.030 C 
ATOM     27  C   LIG    1       -5.363   1.837  -2.257  0.00  0.00    +0.020 C 
ENDBRANCH   1  25
TORSDOF 6
