REMARK  Name = ZINCrD0000071MGF.0
REMARK                            x       y       z     vdW  Elec       q    Type
REMARK                         _______ _______ _______ _____ _____    ______ ____
ROOT
ATOM      1  N   LIG    1       -0.024  -0.647   1.376  0.00  0.00    -0.600 N 
ATOM      2  C   LIG    1       -1.210  -0.728   2.012  0.00  0.00    +0.560 C 
ATOM      3  O   LIG    1       -2.217  -0.309   1.476  0.00  0.00    -0.530 OA
ATOM      4  C   LIG    1        1.204  -1.061   2.059  0.00  0.00    +0.290 C 
ENDROOT
BRANCH   2   5
ATOM      5  C   LIG    1       -1.285  -1.325   3.360  0.00  0.00    -0.130 A 
ATOM      6  C   LIG    1       -2.342  -2.177   3.691  0.00  0.00    +0.110 A 
ATOM      7  C   LIG    1       -2.406  -2.737   4.948  0.00  0.00    +0.000 A 
ATOM      8  C   LIG    1       -1.426  -2.446   5.891  0.00  0.00    +0.170 A 
ATOM      9  C   LIG    1       -0.376  -1.595   5.567  0.00  0.00    +0.030 A 
ATOM     10  C   LIG    1       -0.302  -1.036   4.310  0.00  0.00    +0.070 A 
BRANCH   8  11
ATOM     11  N   LIG    1       -1.497  -3.012   7.168  0.00  0.00    -0.340 N 
ATOM     12  C   LIG    1       -2.450  -3.845   7.631  0.00  0.00    +0.500 A 
ATOM     13  N   LIG    1       -2.154  -4.151   8.868  0.00  0.00    -0.530 NA
ATOM     14  C   LIG    1       -1.033  -3.529   9.232  0.00  0.00    +0.440 A 
ATOM     15  N   LIG    1       -0.594  -2.820   8.226  0.00  0.00    -0.310 NA
ENDBRANCH   8  11
ENDBRANCH   2   5
BRANCH   1  16
ATOM     16  C   LIG    1        0.036  -0.146   0.001  0.00  0.00    +0.330 C 
BRANCH  16  20
ATOM     17  C   LIG    1        0.585   4.093   0.052  0.00  0.00    +0.230 A 
ATOM     18  C   LIG    1        1.688   3.248   0.040  0.00  0.00    -0.080 A 
ATOM     19  C   LIG    1        1.507   1.879   0.024  0.00  0.00    +0.060 A 
ATOM     20  C   LIG    1        0.230   1.349   0.019  0.00  0.00    -0.170 A 
ATOM     21  C   LIG    1       -0.870   2.187   0.025  0.00  0.00    +0.090 A 
ATOM     22  C   LIG    1       -0.696   3.557   0.048  0.00  0.00    -0.080 A 
BRANCH  17  23
ATOM     23  N   LIG    1        0.765   5.478   0.069  0.00  0.00    -0.630 N 
BRANCH  23  25
ATOM     24  C   LIG    1       -0.802   6.659   1.529  0.00  0.00    +0.010 C 
ATOM     25  C   LIG    1       -0.400   6.367   0.082  0.00  0.00    +0.270 C 
ENDBRANCH  23  25
BRANCH  23  26
ATOM     26  C   LIG    1        2.117   6.041   0.074  0.00  0.00    +0.260 C 
ATOM     27  C   LIG    1        2.585   6.255  -1.367  0.00  0.00    +0.010 C 
ENDBRANCH  23  26
ENDBRANCH  17  23
ENDBRANCH  16  20
ENDBRANCH   1  16
TORSDOF 7
