REMARK  Name = ZINCpe00000VVGpk.0
REMARK                            x       y       z     vdW  Elec       q    Type
REMARK                         _______ _______ _______ _____ _____    ______ ____
ROOT
ATOM      1  C   LIG    1        3.671   1.564   0.798  0.00  0.00    +0.200 C 
ENDROOT
BRANCH   1   7
ATOM      2  C   LIG    1        5.941   1.031   1.448  0.00  0.00    +0.130 C 
ATOM      3  C   LIG    1        6.786   0.159   2.380  0.00  0.00    +0.040 C 
ATOM      4  C   LIG    1        6.594  -1.313   2.007  0.00  0.00    +0.010 C 
ATOM      5  C   LIG    1        5.106  -1.665   2.099  0.00  0.00    +0.030 C 
ATOM      6  C   LIG    1        4.310  -0.740   1.175  0.00  0.00    +0.170 C 
ATOM      7  N   LIG    1        4.527   0.657   1.574  0.00  0.00    -0.510 NA
BRANCH   2   8
ATOM      8  C   LIG    1        6.115   2.502   1.831  0.00  0.00    +0.330 C 
BRANCH   8  12
ATOM      9  C   LIG    1        3.327   6.000  -0.431  0.00  0.00    +0.110 C 
ATOM     10  C   LIG    1        4.295   4.871  -0.189  0.00  0.00    -0.240 A 
ATOM     11  C   LIG    1        4.601   4.328   1.012  0.00  0.00    +0.210 A 
ATOM     12  N   LIG    1        5.507   3.349   0.801  0.00  0.00    -0.370 N 
ATOM     13  N   LIG    1        5.759   3.283  -0.575  0.00  0.00    -0.290 NA
ATOM     14  C   LIG    1        5.032   4.195  -1.168  0.00  0.00    +0.230 A 
ENDBRANCH   8  12
ENDBRANCH   2   8
ENDBRANCH   1   7
BRANCH   1  15
ATOM     15  C   LIG    1        2.236   1.117   0.906  0.00  0.00    +0.510 C 
ATOM     16  N   LIG    1        1.289   1.701   0.145  0.00  0.00    -0.730 N 
ATOM     17  H   LIG    1        1.531   2.409  -0.471  0.00  0.00    +0.410 HD
ATOM     18  O   LIG    1        1.934   0.231   1.677  0.00  0.00    -0.500 OA
BRANCH  16  19
ATOM     19  C   LIG    1       -0.106   1.266   0.250  0.00  0.00    +0.250 C 
ATOM     20  C   LIG    1       -0.880   1.718  -0.990  0.00  0.00    +0.040 C 
ATOM     21  C   LIG    1       -0.382   3.064  -1.476  0.00  0.00    +0.010 C 
ATOM     22  C   LIG    1       -0.662   4.207  -0.518  0.00  0.00    +0.010 C 
ATOM     23  C   LIG    1        0.144   4.048   0.773  0.00  0.00    +0.270 C 
ATOM     24  N   LIG    1       -0.618   3.198   1.702  0.00  0.00    -0.720 N 
ATOM     25  H   LIG    1       -1.033   3.592   2.485  0.00  0.00    +0.400 HD
ATOM     26  C   LIG    1       -0.743   1.890   1.474  0.00  0.00    +0.510 C 
ATOM     27  O   LIG    1       -1.369   1.198   2.249  0.00  0.00    -0.540 OA
ENDBRANCH  16  19
ENDBRANCH   1  15
TORSDOF 5
