REMARK  Name = ZINCvU0000000Cdh.0
REMARK                            x       y       z     vdW  Elec       q    Type
REMARK                         _______ _______ _______ _____ _____    ______ ____
ROOT
ATOM      1  N   LIG    1       -0.016   1.461   0.008  0.00  0.00    -0.730 N 
ATOM      2  H   LIG    1       -0.863   1.933   0.021  0.00  0.00    +0.410 HD
ENDROOT
BRANCH   1   3
ATOM      3  C   LIG    1        1.183   2.177  -0.006  0.00  0.00    +0.220 A 
ATOM      4  C   LIG    1        2.397   1.500  -0.032  0.00  0.00    -0.050 A 
ATOM      5  C   LIG    1        3.586   2.204  -0.046  0.00  0.00    +0.060 A 
ATOM      6  C   LIG    1        3.576   3.584  -0.035  0.00  0.00    -0.030 A 
ATOM      7  C   LIG    1        2.363   4.273  -0.009  0.00  0.00    +0.010 A 
ATOM      8  C   LIG    1        1.163   3.563  -0.001  0.00  0.00    +0.000 A 
BRANCH   7   9
ATOM      9  C   LIG    1        2.350   5.752   0.004  0.00  0.00    +0.160 A 
ATOM     10  N   LIG    1        1.284   6.480   0.023  0.00  0.00    -0.460 NA
ATOM     11  C   LIG    1        1.433   7.815   0.035  0.00  0.00    +0.080 A 
ATOM     12  C   LIG    1        0.438   8.817   0.059  0.00  0.00    +0.080 A 
ATOM     13  C   LIG    1        0.781  10.134   0.064  0.00  0.00    +0.030 A 
ATOM     14  C   LIG    1        2.114  10.520   0.045  0.00  0.00    +0.040 A 
ATOM     15  C   LIG    1        3.107   9.567   0.022  0.00  0.00    +0.060 A 
ATOM     16  C   LIG    1        2.776   8.213   0.017  0.00  0.00    -0.170 A 
ATOM     17  S   LIG    1        3.784   6.769  -0.011  0.00  0.00    +0.070 S 
ENDBRANCH   7   9
ENDBRANCH   1   3
BRANCH   1  19
ATOM     18  C   LIG    1        0.162  -0.523   1.427  0.00  0.00    +0.050 C 
ATOM     19  C   LIG    1        0.005  -0.004  -0.004  0.00  0.00    +0.250 C 
BRANCH  19  20
ATOM     20  C   LIG    1       -1.285  -0.521  -0.587  0.00  0.00    +0.510 C 
ATOM     21  N   LIG    1       -1.491  -1.848  -0.698  0.00  0.00    -0.660 N 
ATOM     22  H   LIG    1       -0.783  -2.470  -0.466  0.00  0.00    +0.420 HD
ATOM     23  O   LIG    1       -2.138   0.258  -0.957  0.00  0.00    -0.510 OA
BRANCH  21  24
ATOM     24  C   LIG    1       -2.726  -2.330  -1.149  0.00  0.00    +0.150 A 
ATOM     25  C   LIG    1       -3.239  -3.514  -0.637  0.00  0.00    +0.000 A 
ATOM     26  C   LIG    1       -4.459  -3.988  -1.079  0.00  0.00    +0.050 A 
ATOM     27  C   LIG    1       -5.170  -3.289  -2.043  0.00  0.00    +0.040 A 
ATOM     28  O   LIG    1       -6.367  -3.776  -2.472  0.00  0.00    -0.310 OA
ATOM     29  C   LIG    1       -7.225  -2.860  -3.161  0.00  0.00    +0.220 C 
ATOM     30  C   LIG    1       -6.384  -2.100  -4.196  0.00  0.00    +0.220 C 
ATOM     31  O   LIG    1       -5.344  -1.402  -3.503  0.00  0.00    -0.300 OA
ATOM     32  C   LIG    1       -4.658  -2.105  -2.561  0.00  0.00    +0.070 A 
ATOM     33  C   LIG    1       -3.436  -1.627  -2.114  0.00  0.00    +0.030 A 
ENDBRANCH  21  24
ENDBRANCH  19  20
ENDBRANCH   1  19
TORSDOF 5
