REMARK  Name = ZINCvU000000094C.0
REMARK                            x       y       z     vdW  Elec       q    Type
REMARK                         _______ _______ _______ _____ _____    ______ ____
ROOT
ATOM      1  C   LIG    1       -0.490  -2.338   0.162  0.00  0.00    +0.160 A 
ATOM      2  N   LIG    1        0.721  -2.085  -0.282  0.00  0.00    -0.280 NA
ATOM      3  N   LIG    1        0.913  -0.816  -0.341  0.00  0.00    -0.260 NA
ATOM      4  C   LIG    1       -0.160  -0.181   0.071  0.00  0.00    +0.230 A 
ATOM      5  N   LIG    1       -1.093  -1.136   0.402  0.00  0.00    -0.460 N 
ENDROOT
BRANCH   4   6
ATOM      6  C   LIG    1       -0.335   1.285   0.156  0.00  0.00    -0.020 A 
ATOM      7  C   LIG    1       -1.616   1.836   0.207  0.00  0.00    +0.040 A 
ATOM      8  C   LIG    1       -1.773   3.203   0.292  0.00  0.00    +0.040 A 
ATOM      9  C   LIG    1       -0.663   4.030   0.315  0.00  0.00    -0.020 A 
ATOM     10  C   LIG    1        0.611   3.490   0.259  0.00  0.00    +0.030 A 
ATOM     11 CL   LIG    1       -0.868   5.751   0.415  0.00  0.00    -0.060 Cl
ATOM     12  C   LIG    1        0.781   2.123   0.180  0.00  0.00    +0.090 A 
ENDBRANCH   4   6
BRANCH   1  13
ATOM     13  S   LIG    1       -1.203  -3.931   0.404  0.00  0.00    +0.080 S 
BRANCH  13  15
ATOM     14  C   LIG    1        1.353  -4.791   0.840  0.00  0.00    +0.090 C 
ATOM     15  C   LIG    1        0.178  -4.976  -0.122  0.00  0.00    +0.020 C 
BRANCH  15  16
ATOM     16  C   LIG    1       -0.253  -6.420  -0.115  0.00  0.00    +0.540 C 
ATOM     17  N   LIG    1        0.433  -7.333  -0.831  0.00  0.00    -0.560 N 
ATOM     18  C   LIG    1        1.663  -6.944  -1.526  0.00  0.00    +0.300 C 
ATOM     19  O   LIG    1       -1.219  -6.761   0.536  0.00  0.00    -0.510 OA
BRANCH  17  20
ATOM     20  C   LIG    1       -0.029  -8.651  -0.911  0.00  0.00    +0.140 A 
ATOM     21  C   LIG    1        0.802  -9.703  -0.546  0.00  0.00    +0.010 A 
ATOM     22  C   LIG    1        0.342 -11.002  -0.622  0.00  0.00    +0.020 A 
ATOM     23  C   LIG    1       -0.941 -11.258  -1.070  0.00  0.00    +0.010 A 
ATOM     24  C   LIG    1       -1.769 -10.214  -1.438  0.00  0.00    +0.020 A 
ATOM     25  C   LIG    1       -1.317  -8.911  -1.360  0.00  0.00    +0.010 A 
ENDBRANCH  17  20
ENDBRANCH  15  16
ENDBRANCH  13  15
ENDBRANCH   1  13
BRANCH   5  26
ATOM     26  C   LIG    1       -2.449  -0.911   0.908  0.00  0.00    +0.440 C 
BRANCH  26  27
ATOM     27  C   LIG    1       -3.427  -0.960  -0.238  0.00  0.00    -0.070 A 
ATOM     28  C   LIG    1       -4.059  -2.059  -0.686  0.00  0.00    +0.000 A 
ATOM     29  C   LIG    1       -4.875  -1.651  -1.766  0.00  0.00    -0.060 A 
ATOM     30  C   LIG    1       -4.692  -0.326  -1.913  0.00  0.00    +0.200 A 
ATOM     31  O   LIG    1       -3.818   0.088  -0.981  0.00  0.00    -0.170 OA
ENDBRANCH  26  27
ENDBRANCH   5  26
TORSDOF 7
