REMARK  Name = ZINCrD00000hQ742.0
REMARK                            x       y       z     vdW  Elec       q    Type
REMARK                         _______ _______ _______ _____ _____    ______ ____
ROOT
ATOM      1  N   LIG    1       -0.772   1.588  -1.170  0.00  0.00    -0.980 NA
ENDROOT
BRANCH   1   2
ATOM      2  C   LIG    1       -0.278   2.635  -2.068  0.00  0.00    +0.300 C 
ATOM      3  C   LIG    1       -0.616   4.030  -1.501  0.00  0.00    +0.040 C 
ATOM      4  C   LIG    1        0.653   4.375  -0.693  0.00  0.00    +0.070 C 
ATOM      5  C   LIG    1        1.768   3.593  -1.353  0.00  0.00    -0.080 A 
ATOM      6  C   LIG    1        3.142   3.744  -1.270  0.00  0.00    +0.010 A 
ATOM      7  C   LIG    1        3.978   2.900  -1.974  0.00  0.00    +0.010 A 
ATOM      8  C   LIG    1        3.443   1.900  -2.764  0.00  0.00    +0.010 A 
ATOM      9  C   LIG    1        2.073   1.747  -2.848  0.00  0.00    +0.030 A 
ATOM     10  C   LIG    1        1.233   2.593  -2.144  0.00  0.00    -0.110 A 
ENDBRANCH   1   2
BRANCH   1  12
ATOM     11  O   LIG    1       -1.607   0.295  -3.099  0.00  0.00    -0.950 OA
ATOM     12  S   LIG    1       -1.876   0.482  -1.716  0.00  0.00    +2.690 S 
ATOM     13  O   LIG    1       -1.877  -0.582  -0.774  0.00  0.00    -0.940 OA
BRANCH  12  14
ATOM     14  C   LIG    1       -3.465   1.237  -1.615  0.00  0.00    -0.700 A 
ATOM     15  C   LIG    1       -4.091   1.686  -2.762  0.00  0.00    +0.160 A 
ATOM     16  C   LIG    1       -5.338   2.279  -2.683  0.00  0.00    -0.020 A 
ATOM     17  C   LIG    1       -5.961   2.423  -1.458  0.00  0.00    +0.110 A 
ATOM     18  C   LIG    1       -5.339   1.976  -0.308  0.00  0.00    -0.070 A 
ATOM     19  C   LIG    1       -4.091   1.376  -0.385  0.00  0.00    +0.210 A 
BRANCH  19  20
ATOM     20  O   LIG    1       -3.480   0.930   0.744  0.00  0.00    -0.310 OA
BRANCH  20  21
ATOM     21  C   LIG    1       -4.183   1.106   1.976  0.00  0.00    +0.600 C 
ATOM     22  F   LIG    1       -5.405   0.427   1.916  0.00  0.00    -0.190 F 
ATOM     23  F   LIG    1       -4.417   2.469   2.188  0.00  0.00    -0.190 F 
ENDBRANCH  20  21
ENDBRANCH  19  20
ENDBRANCH  12  14
ENDBRANCH   1  12
BRANCH   1  24
ATOM     24  C   LIG    1       -0.289   1.521   0.211  0.00  0.00    +0.310 C 
BRANCH  24  25
ATOM     25  C   LIG    1       -1.028   2.556   1.062  0.00  0.00    +0.010 C 
BRANCH  25  26
ATOM     26  C   LIG    1       -0.475   2.533   2.488  0.00  0.00    +0.180 C 
BRANCH  26  27
ATOM     27  O   LIG    1       -1.165   3.500   3.282  0.00  0.00    -0.570 OA
ATOM     28  H   LIG    1       -0.866   3.541   4.201  0.00  0.00    +0.380 HD
ENDBRANCH  26  27
ENDBRANCH  25  26
ENDBRANCH  24  25
ENDBRANCH   1  24
TORSDOF 9
