REMARK  Name = ZINCrH000004sV3B.0
REMARK                            x       y       z     vdW  Elec       q    Type
REMARK                         _______ _______ _______ _____ _____    ______ ____
ROOT
ATOM      1  C   LIG    1        0.691  -3.874   5.515  0.00  0.00    +0.100 C 
ENDROOT
BRANCH   1   2
ATOM      2  C   LIG    1        0.533  -4.532   6.861  0.00  0.00    +0.520 C 
ATOM      3  N   LIG    1        0.302  -3.780   7.956  0.00  0.00    -0.710 N 
ATOM      4  H   LIG    1        0.309  -2.812   7.889  0.00  0.00    +0.410 HD
ATOM      5  O   LIG    1        0.615  -5.738   6.960  0.00  0.00    -0.530 OA
BRANCH   3   6
ATOM      6  C   LIG    1        0.042  -4.424   9.245  0.00  0.00    +0.190 C 
ATOM      7  C   LIG    1        0.281  -3.503  10.454  0.00  0.00    +0.050 C 
ATOM      8  C   LIG    1        1.738  -3.995  10.441  0.00  0.00    +0.010 C 
ATOM      9  C   LIG    1        1.218  -5.272   9.759  0.00  0.00    +0.040 C 
BRANCH   6  10
ATOM     10  C   LIG    1       -1.282  -5.142   9.284  0.00  0.00    -0.070 A 
ATOM     11  C   LIG    1       -2.219  -4.919   8.292  0.00  0.00    +0.010 A 
ATOM     12  C   LIG    1       -3.432  -5.581   8.325  0.00  0.00    +0.000 A 
ATOM     13  C   LIG    1       -3.712  -6.459   9.355  0.00  0.00    +0.000 A 
ATOM     14  C   LIG    1       -2.777  -6.679  10.350  0.00  0.00    +0.000 A 
ATOM     15  C   LIG    1       -1.562  -6.020  10.314  0.00  0.00    +0.010 A 
ENDBRANCH   6  10
ENDBRANCH   3   6
ENDBRANCH   1   2
BRANCH   1  16
ATOM     16  C   LIG    1        0.942  -4.944   4.451  0.00  0.00    +0.160 C 
BRANCH  16  24
ATOM     17  C   LIG    1        1.990  -3.506  -3.077  0.00  0.00    +0.150 C 
ATOM     18  C   LIG    1        1.780  -3.696  -1.597  0.00  0.00    -0.200 A 
ATOM     19  C   LIG    1        1.573  -2.714  -0.740  0.00  0.00    -0.030 A 
ATOM     20  C   LIG    1        1.392  -3.135   0.635  0.00  0.00    -0.220 A 
ATOM     21  C   LIG    1        1.481  -4.511   0.777  0.00  0.00    +0.050 A 
ATOM     22  N   LIG    1        1.329  -5.060   2.032  0.00  0.00    -0.590 N 
ATOM     23  H   LIG    1        1.389  -6.022   2.142  0.00  0.00    +0.420 HD
ATOM     24  C   LIG    1        1.099  -4.286   3.104  0.00  0.00    +0.440 A 
ATOM     25  N   LIG    1        1.007  -2.988   3.027  0.00  0.00    -0.580 NA
ATOM     26  C   LIG    1        1.139  -2.344   1.855  0.00  0.00    +0.550 A 
ATOM     27  O   LIG    1        1.050  -1.128   1.801  0.00  0.00    -0.480 OA
ATOM     28  C   LIG    1        1.523  -1.267  -1.159  0.00  0.00    +0.130 C 
ATOM     29  S   LIG    1        1.784  -5.252  -0.787  0.00  0.00    +0.170 S 
ENDBRANCH  16  24
ENDBRANCH   1  16
TORSDOF 5
