REMARK  Name = ZINCpk000000mQA8.0
REMARK                            x       y       z     vdW  Elec       q    Type
REMARK                         _______ _______ _______ _____ _____    ______ ____
ROOT
ATOM      1  C   LIG    1       -0.362   6.226  -5.835  0.00  0.00    +0.530 C 
ATOM      2  N   LIG    1       -0.866   5.325  -4.968  0.00  0.00    -0.610 N 
ATOM      3  C   LIG    1       -1.672   5.760  -3.820  0.00  0.00    +0.270 C 
ATOM      4  C   LIG    1       -1.069   5.168  -2.542  0.00  0.00    +0.010 C 
ATOM      5  C   LIG    1       -0.957   3.649  -2.692  0.00  0.00    +0.020 C 
ATOM      6  C   LIG    1       -0.029   3.317  -3.862  0.00  0.00    +0.010 C 
ATOM      7  C   LIG    1       -0.620   3.888  -5.155  0.00  0.00    +0.260 C 
ATOM      8  O   LIG    1       -0.573   7.409  -5.670  0.00  0.00    -0.530 OA
ENDROOT
BRANCH   5   9
ATOM      9  C   LIG    1       -0.388   3.050  -1.404  0.00  0.00    +0.240 C 
ATOM     10  C   LIG    1       -0.440   1.504  -1.487  0.00  0.00    +0.010 C 
ATOM     11  C   LIG    1        0.339   0.907  -0.391  0.00  0.00    +0.000 C 
ATOM     12  C   LIG    1       -0.192   1.229   1.002  0.00  0.00    +0.000 C 
ATOM     13  C   LIG    1        0.369   2.556   1.455  0.00  0.00    +0.020 C 
ATOM     14  C   LIG    1       -0.594   3.693   1.069  0.00  0.00    +0.260 C 
ATOM     15  N   LIG    1       -1.171   3.502  -0.276  0.00  0.00    -0.600 N 
ATOM     16  C   LIG    1       -2.480   3.760  -0.461  0.00  0.00    +0.510 C 
ATOM     17  O   LIG    1       -3.004   3.510  -1.526  0.00  0.00    -0.530 OA
ATOM     18  C   LIG    1       -3.295   4.360   0.656  0.00  0.00    +0.070 C 
ENDBRANCH   5   9
BRANCH   1  23
ATOM     19  C   LIG    1        4.463   5.250  -8.530  0.00  0.00    +0.100 C 
ATOM     20  C   LIG    1        3.279   6.139  -8.813  0.00  0.00    +0.530 C 
ATOM     21  N   LIG    1        2.246   6.181  -7.949  0.00  0.00    -0.650 N 
ATOM     22  C   LIG    1        0.965   6.911  -7.903  0.00  0.00    +0.320 C 
ATOM     23  C   LIG    1        0.463   5.764  -7.008  0.00  0.00    -0.020 C 
ATOM     24  C   LIG    1        1.943   5.516  -6.666  0.00  0.00    +0.300 C 
ATOM     25  O   LIG    1        3.256   6.815  -9.820  0.00  0.00    -0.540 OA
ENDBRANCH   1  23
TORSDOF 2
