REMARK  Name = ZINCkj000005hBMv.0
REMARK                            x       y       z     vdW  Elec       q    Type
REMARK                         _______ _______ _______ _____ _____    ______ ____
ROOT
ATOM      1  N   LIG    1        5.090   3.419  -1.278  0.00  0.00    -0.500 N 
ATOM      2  H   LIG    1        5.865   2.776  -1.205  0.00  0.00    +0.430 HD
ATOM      3  H   LIG    1        5.107   4.056  -0.495  0.00  0.00    +0.430 HD
ENDROOT
BRANCH   1   7
ATOM      4  C   LIG    1        1.280   1.975   0.000  0.00  0.00    +0.030 C 
ATOM      5  C   LIG    1        1.338   2.863  -1.245  0.00  0.00    +0.070 C 
ATOM      6  C   LIG    1        2.652   3.646  -1.253  0.00  0.00    +0.040 C 
ATOM      7  C   LIG    1        3.828   2.667  -1.270  0.00  0.00    +0.160 C 
ATOM      8  C   LIG    1        3.771   1.780  -0.024  0.00  0.00    +0.050 C 
ATOM      9  C   LIG    1        2.457   0.997  -0.016  0.00  0.00    +0.090 C 
BRANCH   4  10
ATOM     10  C   LIG    1       -0.014   1.204   0.009  0.00  0.00    +0.460 C 
ATOM     11  O   LIG    1        0.002  -0.004   0.002  0.00  0.00    -0.500 OA
BRANCH  10  13
ATOM     12  C   LIG    1       -2.393   1.052   0.019  0.00  0.00    +0.280 C 
ATOM     13  O   LIG    1       -1.186   1.859   0.018  0.00  0.00    -0.360 OA
ENDBRANCH  10  13
ENDBRANCH   4  10
ENDBRANCH   1   7
BRANCH   1  14
ATOM     14  C   LIG    1        5.199   4.179  -2.530  0.00  0.00    +0.160 C 
ATOM     15  C   LIG    1        5.299   3.209  -3.708  0.00  0.00    +0.040 C 
ATOM     16  C   LIG    1        5.413   4.000  -5.013  0.00  0.00    +0.060 C 
ATOM     17  C   LIG    1        6.665   4.879  -4.968  0.00  0.00    +0.050 C 
ATOM     18  C   LIG    1        6.565   5.849  -3.790  0.00  0.00    +0.010 C 
ATOM     19  C   LIG    1        6.451   5.058  -2.486  0.00  0.00    +0.080 C 
BRANCH  18  20
ATOM     20  C   LIG    1        7.798   6.715  -3.746  0.00  0.00    +0.520 C 
ATOM     21  O   LIG    1        8.515   6.700  -2.768  0.00  0.00    -0.540 OA
ATOM     22  N   LIG    1        8.104   7.505  -4.794  0.00  0.00    -0.850 N 
ATOM     23  H   LIG    1        8.898   8.062  -4.766  0.00  0.00    +0.410 HD
ATOM     24  H   LIG    1        7.530   7.518  -5.576  0.00  0.00    +0.400 HD
ENDBRANCH  18  20
ENDBRANCH   1  14
TORSDOF 5
