REMARK  Name = ZINCnE000008IXBz.0
REMARK                            x       y       z     vdW  Elec       q    Type
REMARK                         _______ _______ _______ _____ _____    ______ ____
ROOT
ATOM      1  C   LIG    1       -4.455  -0.214   0.139  0.00  0.00    -0.020 A 
ATOM      2  C   LIG    1       -4.545  -0.927   1.279  0.00  0.00    -0.030 A 
ATOM      3  C   LIG    1       -4.698  -2.278   0.910  0.00  0.00    -0.020 A 
ATOM      4  C   LIG    1       -4.684  -2.318  -0.449  0.00  0.00    -0.010 A 
ATOM      5  O   LIG    1       -4.536  -1.058  -0.903  0.00  0.00    -0.170 OA
ENDROOT
BRANCH   4   6
ATOM      6  C   LIG    1       -4.811  -3.531  -1.283  0.00  0.00    -0.010 A 
ATOM      7  C   LIG    1       -4.955  -4.783  -0.681  0.00  0.00    +0.060 A 
ATOM      8  C   LIG    1       -5.078  -5.911  -1.464  0.00  0.00    -0.010 A 
ATOM      9  C   LIG    1       -5.047  -5.806  -2.846  0.00  0.00    +0.090 A 
ATOM     10  C   LIG    1       -4.899  -4.567  -3.448  0.00  0.00    -0.010 A 
ATOM     11  F   LIG    1       -5.162  -6.915  -3.608  0.00  0.00    -0.140 F 
ATOM     12  C   LIG    1       -4.781  -3.431  -2.675  0.00  0.00    +0.060 A 
ENDBRANCH   4   6
BRANCH   1  13
ATOM     13  C   LIG    1       -4.284   1.280   0.048  0.00  0.00    +0.360 C 
BRANCH  13  20
ATOM     14  C   LIG    1       -2.185   1.096   1.239  0.00  0.00    +0.050 C 
ATOM     15  C   LIG    1       -0.732   1.581   1.266  0.00  0.00    +0.060 C 
ATOM     16  C   LIG    1       -0.013   1.086   0.008  0.00  0.00    +0.000 C 
ATOM     17  C   LIG    1       -0.756   1.594  -1.230  0.00  0.00    +0.180 C 
ATOM     18  C   LIG    1       -2.207   1.109  -1.184  0.00  0.00    +0.150 C 
ATOM     19  F   LIG    1       -0.135   1.101  -2.383  0.00  0.00    -0.220 F 
ATOM     20  N   LIG    1       -2.852   1.610   0.036  0.00  0.00    -0.490 NA
BRANCH  14  22
ATOM     21  O   LIG    1       -2.626   1.145   3.563  0.00  0.00    -0.690 OA
ATOM     22  C   LIG    1       -2.903   1.598   2.465  0.00  0.00    +0.510 C 
ATOM     23  O   LIG    1       -3.762   2.457   2.360  0.00  0.00    -0.680 OA
ENDBRANCH  14  22
ENDBRANCH  13  20
ENDBRANCH   1  13
TORSDOF 4
