REMARK  Name = ZINCnE000004RaWF.0
REMARK                            x       y       z     vdW  Elec       q    Type
REMARK                         _______ _______ _______ _____ _____    ______ ____
ROOT
ATOM      1  C   LIG    1       -0.348   1.237   0.215  0.00  0.00    +0.300 C 
ENDROOT
BRANCH   1  10
ATOM      2  N   LIG    1       -2.207   1.131  -1.518  0.00  0.00    -0.490 N 
ATOM      3  C   LIG    1       -2.665   1.934  -2.543  0.00  0.00    +0.050 A 
ATOM      4  C   LIG    1       -3.696   1.831  -3.467  0.00  0.00    +0.010 A 
ATOM      5  C   LIG    1       -3.888   2.834  -4.392  0.00  0.00    +0.020 A 
ATOM      6  C   LIG    1       -3.058   3.946  -4.405  0.00  0.00    +0.000 A 
ATOM      7  C   LIG    1       -2.038   4.066  -3.504  0.00  0.00    +0.070 A 
ATOM      8  C   LIG    1       -1.825   3.061  -2.557  0.00  0.00    +0.050 A 
ATOM      9  N   LIG    1       -0.921   2.893  -1.558  0.00  0.00    -0.470 NA
ATOM     10  C   LIG    1       -1.148   1.765  -0.949  0.00  0.00    +0.300 A 
BRANCH   2  12
ATOM     11  C   LIG    1       -3.848   0.052  -0.060  0.00  0.00    +0.040 C 
ATOM     12  C   LIG    1       -2.763  -0.164  -1.116  0.00  0.00    +0.280 C 
ENDBRANCH   2  12
ENDBRANCH   1  10
BRANCH   1  13
ATOM     13  N   LIG    1       -0.942   1.711   1.472  0.00  0.00    -0.680 NA
ATOM     14  H   LIG    1       -1.931   1.513   1.503  0.00  0.00    +0.330 HD
BRANCH  13  15
ATOM     15  C   LIG    1       -0.252   1.131   2.632  0.00  0.00    +0.230 C 
BRANCH  15  16
ATOM     16  C   LIG    1       -1.158   1.187   3.835  0.00  0.00    -0.080 A 
ATOM     17  C   LIG    1       -1.937   2.237   4.098  0.00  0.00    -0.040 A 
ATOM     18  S   LIG    1       -2.845   1.942   5.575  0.00  0.00    +0.040 S 
ATOM     19  C   LIG    1       -2.093   0.362   5.758  0.00  0.00    -0.070 A 
ATOM     20  C   LIG    1       -1.248   0.150   4.747  0.00  0.00    +0.070 A 
ENDBRANCH  15  16
BRANCH  15  21
ATOM     21  C   LIG    1        1.024   1.925   2.917  0.00  0.00    -0.050 C 
BRANCH  21  22
ATOM     22  C   LIG    1        1.812   1.238   4.002  0.00  0.00    +0.490 C 
ATOM     23  O   LIG    1        2.804   1.773   4.467  0.00  0.00    -0.700 OA
ATOM     24  O   LIG    1        1.458   0.147   4.415  0.00  0.00    -0.690 OA
ENDBRANCH  21  22
ENDBRANCH  15  21
ENDBRANCH  13  15
ENDBRANCH   1  13
TORSDOF 7
