REMARK  Name = ZINCqH0000034Fzd.1
REMARK                            x       y       z     vdW  Elec       q    Type
REMARK                         _______ _______ _______ _____ _____    ______ ____
ROOT
ATOM      1  C   LIG    1       -0.820   3.214  -2.016  0.00  0.00    +0.280 C 
ATOM      2  N   LIG    1       -0.487   4.482  -1.355  0.00  0.00    -0.380 N 
ATOM      3  H   LIG    1        0.260   4.938  -1.858  0.00  0.00    +0.420 HD
ENDROOT
BRANCH   2   4
ATOM      4  C   LIG    1       -0.057   4.217   0.025  0.00  0.00    +0.330 C 
BRANCH   4   5
ATOM      5  C   LIG    1        1.226   3.427   0.009  0.00  0.00    -0.360 A 
ATOM      6  C   LIG    1        2.431   4.071   0.002  0.00  0.00    +0.310 A 
ATOM      7  C   LIG    1        3.631   3.353  -0.014  0.00  0.00    -0.050 A 
ATOM      8  C   LIG    1        3.632   1.992  -0.021  0.00  0.00    +0.050 A 
ATOM      9  C   LIG    1        2.412   1.298  -0.014  0.00  0.00    -0.110 A 
ATOM     10  C   LIG    1        2.349  -0.106  -0.021  0.00  0.00    +0.020 A 
ATOM     11  C   LIG    1        1.126  -0.706  -0.013  0.00  0.00    +0.160 A 
ATOM     12  N   LIG    1        0.002  -0.004   0.002  0.00  0.00    -0.470 NA
ATOM     13  C   LIG    1       -0.016   1.308   0.009  0.00  0.00    +0.200 A 
ATOM     14  O   LIG    1        2.464   5.430   0.009  0.00  0.00    -0.690 OA
ATOM     15  C   LIG    1        1.192   2.025   0.002  0.00  0.00    -0.010 A 
ENDBRANCH   4   5
ENDBRANCH   2   4
BRANCH   2  16
ATOM     16  C   LIG    1       -1.670   5.353  -1.340  0.00  0.00    +0.340 C 
BRANCH  16  17
ATOM     17  C   LIG    1       -2.037   5.725  -2.754  0.00  0.00    -0.290 A 
ATOM     18  C   LIG    1       -2.879   5.041  -3.564  0.00  0.00    +0.280 A 
ATOM     19  N   LIG    1       -2.940   5.700  -4.743  0.00  0.00    -0.310 N 
ATOM     20  N   LIG    1       -2.108   6.823  -4.653  0.00  0.00    -0.270 NA
ATOM     21  C   LIG    1       -1.573   6.840  -3.459  0.00  0.00    +0.280 A 
BRANCH  19  22
ATOM     22  C   LIG    1       -3.701   5.324  -5.859  0.00  0.00    +0.140 A 
ATOM     23  C   LIG    1       -4.483   4.178  -5.814  0.00  0.00    -0.010 A 
ATOM     24  C   LIG    1       -5.237   3.814  -6.913  0.00  0.00    +0.050 A 
ATOM     25  C   LIG    1       -5.205   4.585  -8.061  0.00  0.00    +0.010 A 
ATOM     26  C   LIG    1       -4.423   5.724  -8.111  0.00  0.00    +0.050 A 
ATOM     27  C   LIG    1       -3.671   6.096  -7.013  0.00  0.00    +0.030 A 
ENDBRANCH  19  22
ENDBRANCH  16  17
ENDBRANCH   2  16
TORSDOF 5
