REMARK  Name = ZINCqH0000034Fzd.2
REMARK                            x       y       z     vdW  Elec       q    Type
REMARK                         _______ _______ _______ _____ _____    ______ ____
ROOT
ATOM      1  C   LIG    1        6.847   4.719   2.005  0.00  0.00    +0.290 C 
ATOM      2  N   LIG    1        5.848   5.583   1.362  0.00  0.00    -0.380 N 
ATOM      3  H   LIG    1        4.977   5.524   1.869  0.00  0.00    +0.420 HD
ENDROOT
BRANCH   2   4
ATOM      4  C   LIG    1        6.324   6.972   1.367  0.00  0.00    +0.320 C 
BRANCH   4   5
ATOM      5  C   LIG    1        6.422   7.465   2.788  0.00  0.00    -0.360 A 
ATOM      6  C   LIG    1        5.353   8.078   3.378  0.00  0.00    +0.310 A 
ATOM      7  C   LIG    1        5.425   8.536   4.698  0.00  0.00    -0.050 A 
ATOM      8  C   LIG    1        6.565   8.393   5.428  0.00  0.00    +0.050 A 
ATOM      9  C   LIG    1        7.683   7.774   4.850  0.00  0.00    -0.110 A 
ATOM     10  C   LIG    1        8.889   7.599   5.553  0.00  0.00    +0.020 A 
ATOM     11  C   LIG    1        9.930   6.987   4.923  0.00  0.00    +0.160 A 
ATOM     12  N   LIG    1        9.837   6.557   3.672  0.00  0.00    -0.470 NA
ATOM     13  C   LIG    1        8.745   6.686   2.956  0.00  0.00    +0.200 A 
ATOM     14  O   LIG    1        4.202   8.240   2.675  0.00  0.00    -0.690 OA
ATOM     15  C   LIG    1        7.612   7.303   3.512  0.00  0.00    -0.010 A 
ENDBRANCH   4   5
ENDBRANCH   2   4
BRANCH   2  16
ATOM     16  C   LIG    1        5.638   5.142  -0.024  0.00  0.00    +0.340 C 
BRANCH  16  17
ATOM     17  C   LIG    1        5.034   3.761  -0.025  0.00  0.00    -0.290 A 
ATOM     18  C   LIG    1        3.712   3.471  -0.015  0.00  0.00    +0.290 A 
ATOM     19  N   LIG    1        3.586   2.125  -0.021  0.00  0.00    -0.310 N 
ATOM     20  N   LIG    1        4.873   1.572  -0.029  0.00  0.00    -0.270 NA
ATOM     21  C   LIG    1        5.739   2.553  -0.038  0.00  0.00    +0.280 A 
BRANCH  19  22
ATOM     22  C   LIG    1        2.381   1.409  -0.013  0.00  0.00    +0.140 A 
ATOM     23  C   LIG    1        1.169   2.087   0.002  0.00  0.00    +0.000 A 
ATOM     24  C   LIG    1       -0.017   1.379   0.010  0.00  0.00    +0.050 A 
ATOM     25  C   LIG    1        0.002  -0.004   0.002  0.00  0.00    +0.010 A 
ATOM     26  C   LIG    1        1.207  -0.682  -0.013  0.00  0.00    +0.040 A 
ATOM     27  C   LIG    1        2.396   0.021  -0.020  0.00  0.00    +0.030 A 
ENDBRANCH  19  22
ENDBRANCH  16  17
ENDBRANCH   2  16
TORSDOF 5
