REMARK  Name = ZINCrD0000038a3H.0
REMARK                            x       y       z     vdW  Elec       q    Type
REMARK                         _______ _______ _______ _____ _____    ______ ____
ROOT
ATOM      1  C   LIG    1       -0.652  -2.123  -0.025  0.00  0.00    -0.100 A 
ATOM      2  C   LIG    1        0.620  -1.583   0.063  0.00  0.00    +0.150 A 
ATOM      3  C   LIG    1        0.797  -0.200  -0.102  0.00  0.00    +0.100 A 
ATOM      4  N   LIG    1        2.016   0.350  -0.021  0.00  0.00    -0.450 NA
ATOM      5  C   LIG    1        2.157   1.652  -0.179  0.00  0.00    +0.300 A 
ATOM      6  C   LIG    1        1.036   2.465  -0.430  0.00  0.00    +0.240 A 
ATOM      7  N   LIG    1       -0.163   1.942  -0.512  0.00  0.00    -0.400 NA
ATOM      8  C   LIG    1       -0.329   0.622  -0.355  0.00  0.00    +0.070 A 
ATOM      9  C   LIG    1       -1.608   0.043  -0.439  0.00  0.00    +0.070 A 
ATOM     10  C   LIG    1       -1.762  -1.296  -0.277  0.00  0.00    +0.080 A 
ENDROOT
BRANCH   5  11
ATOM     11  N   LIG    1        3.417   2.223  -0.096  0.00  0.00    -0.470 N 
ATOM     12  C   LIG    1        4.065   1.886   1.178  0.00  0.00    +0.220 C 
ATOM     13  C   LIG    1        5.533   2.324   1.134  0.00  0.00    +0.100 C 
ATOM     14  C   LIG    1        5.580   3.790   0.756  0.00  0.00    -0.080 C 
ATOM     15  C   LIG    1        4.771   4.235  -0.444  0.00  0.00    +0.100 C 
ATOM     16  C   LIG    1        6.304   4.654   1.453  0.00  0.00    +0.040 C 
ATOM     17  C   LIG    1        3.351   3.676  -0.300  0.00  0.00    +0.200 C 
BRANCH  16  18
ATOM     18  C   LIG    1        7.220   4.170   2.508  0.00  0.00    +0.060 A 
ATOM     19  N   LIG    1        7.497   2.922   2.800  0.00  0.00    -0.360 NA
ATOM     20  O   LIG    1        8.286   2.847   3.713  0.00  0.00    +0.090 OA
ATOM     21  C   LIG    1        8.641   4.058   4.167  0.00  0.00    -0.020 A 
ATOM     22  C   LIG    1        9.597   4.351   5.294  0.00  0.00    +0.180 C 
ATOM     23  C   LIG    1        7.976   4.965   3.417  0.00  0.00    -0.060 A 
ENDBRANCH  16  18
ENDBRANCH   5  11
BRANCH   1  24
ATOM     24  C   LIG    1       -0.846  -3.578   0.146  0.00  0.00    +0.510 C 
ATOM     25  O   LIG    1        0.109  -4.296   0.363  0.00  0.00    -0.500 OA
BRANCH  24  27
ATOM     26  C   LIG    1       -2.196  -5.544   0.240  0.00  0.00    +0.290 C 
ATOM     27  O   LIG    1       -2.082  -4.107   0.062  0.00  0.00    -0.350 OA
ENDBRANCH  24  27
ENDBRANCH   1  24
TORSDOF 4
