REMARK  Name = ZINCrD000000A4DG.0
REMARK                            x       y       z     vdW  Elec       q    Type
REMARK                         _______ _______ _______ _____ _____    ______ ____
ROOT
ATOM      1  N   LIG    1       -6.739   4.557   3.855  0.00  0.00    -0.750 N 
ATOM      2  H   LIG    1       -7.111   4.876   4.692  0.00  0.00    +0.390 HD
ATOM      3  C   LIG    1       -7.323   4.889   2.687  0.00  0.00    +0.710 C 
ATOM      4  N   LIG    1       -8.480   5.580   2.685  0.00  0.00    -0.620 N 
ATOM      5  O   LIG    1       -6.805   4.567   1.635  0.00  0.00    -0.570 OA
ENDROOT
BRANCH   4   6
ATOM      6  C   LIG    1       -9.173   5.844   1.421  0.00  0.00    +0.260 C 
ATOM      7  C   LIG    1       -9.483   4.518   0.720  0.00  0.00    +0.000 C 
ATOM      8  C   LIG    1      -10.135   4.807  -0.635  0.00  0.00    +0.220 C 
ATOM      9  O   LIG    1       -9.263   5.625  -1.417  0.00  0.00    -0.380 OA
ATOM     10  C   LIG    1       -8.976   6.897  -0.833  0.00  0.00    +0.210 C 
ATOM     11  C   LIG    1       -8.277   6.692   0.514  0.00  0.00    +0.000 C 
ENDBRANCH   4   6
BRANCH   1  12
ATOM     12  C   LIG    1       -5.541   3.713   3.861  0.00  0.00    +0.280 C 
BRANCH  12  13
ATOM     13  C   LIG    1       -5.083   3.489   5.304  0.00  0.00    +0.060 C 
BRANCH  13  17
ATOM     14  C   LIG    1       -1.589   1.027   5.321  0.00  0.00    +0.220 A 
ATOM     15  C   LIG    1       -2.849   0.447   5.379  0.00  0.00    -0.080 A 
ATOM     16  C   LIG    1       -3.976   1.245   5.379  0.00  0.00    +0.060 A 
ATOM     17  C   LIG    1       -3.851   2.621   5.310  0.00  0.00    -0.140 A 
ATOM     18  C   LIG    1       -2.598   3.202   5.247  0.00  0.00    +0.060 A 
ATOM     19  C   LIG    1       -1.466   2.409   5.252  0.00  0.00    -0.080 A 
BRANCH  14  20
ATOM     20  N   LIG    1       -0.447   0.223   5.326  0.00  0.00    -0.880 N 
ATOM     21  H   LIG    1       -0.533  -0.742   5.378  0.00  0.00    +0.400 HD
ATOM     22  H   LIG    1        0.433   0.629   5.281  0.00  0.00    +0.400 HD
ENDBRANCH  14  20
ENDBRANCH  13  17
ENDBRANCH  12  13
ENDBRANCH   1  12
BRANCH   4  23
ATOM     23  C   LIG    1       -9.046   6.065   3.946  0.00  0.00    +0.330 C 
BRANCH  23  24
ATOM     24  C   LIG    1       -8.516   7.446   4.236  0.00  0.00    -0.120 A 
ATOM     25  C   LIG    1       -7.356   7.600   4.971  0.00  0.00    +0.050 A 
ATOM     26  C   LIG    1       -6.865   8.865   5.232  0.00  0.00    -0.010 A 
ATOM     27  C   LIG    1       -7.544   9.979   4.768  0.00  0.00    +0.100 A 
ATOM     28  C   LIG    1       -8.709   9.824   4.036  0.00  0.00    -0.010 A 
ATOM     29  F   LIG    1       -7.069  11.217   5.028  0.00  0.00    -0.140 F 
ATOM     30  C   LIG    1       -9.194   8.557   3.771  0.00  0.00    +0.060 A 
ENDBRANCH  23  24
ENDBRANCH   4  23
TORSDOF 7
