REMARK  Name = ZINCpe000000Ww3T.0
REMARK                            x       y       z     vdW  Elec       q    Type
REMARK                         _______ _______ _______ _____ _____    ______ ____
ROOT
ATOM      1  C   LIG    1       -3.572   3.694   5.239  0.00  0.00    +0.590 C 
ATOM      2  N   LIG    1       -2.244   3.504   5.109  0.00  0.00    -0.610 N 
ATOM      3  C   LIG    1       -1.309   4.052   6.100  0.00  0.00    +0.250 C 
ATOM      4  C   LIG    1       -0.253   4.890   5.371  0.00  0.00    +0.020 C 
ATOM      5  C   LIG    1        0.409   4.038   4.286  0.00  0.00    +0.030 C 
ATOM      6  C   LIG    1       -0.644   3.595   3.268  0.00  0.00    -0.020 C 
ATOM      7  C   LIG    1       -1.704   2.743   3.973  0.00  0.00    +0.290 C 
ATOM      8  O   LIG    1       -4.327   3.343   4.351  0.00  0.00    -0.520 OA
ENDROOT
BRANCH   1  14
ATOM      9  C   LIG    1       -5.159   6.052  10.559  0.00  0.00    +0.160 A 
ATOM     10  C   LIG    1       -6.294   6.460   9.860  0.00  0.00    -0.090 A 
ATOM     11  C   LIG    1       -6.438   6.160   8.538  0.00  0.00    +0.110 A 
ATOM     12  C   LIG    1       -5.439   5.438   7.872  0.00  0.00    -0.150 A 
ATOM     13  C   LIG    1       -5.295   4.983   6.540  0.00  0.00    +0.070 A 
ATOM     14  C   LIG    1       -4.108   4.325   6.452  0.00  0.00    +0.000 A 
ATOM     15  N   LIG    1       -3.490   4.340   7.689  0.00  0.00    -0.580 N 
ATOM     16  H   LIG    1       -2.632   3.937   7.897  0.00  0.00    +0.420 HD
ATOM     17  C   LIG    1       -4.289   5.024   8.575  0.00  0.00    +0.150 A 
ATOM     18  C   LIG    1       -4.160   5.339   9.923  0.00  0.00    -0.050 A 
BRANCH   9  20
ATOM     19  C   LIG    1       -6.100   7.098  12.476  0.00  0.00    +0.250 C 
ATOM     20  O   LIG    1       -5.033   6.359  11.877  0.00  0.00    -0.320 OA
ENDBRANCH   9  20
ENDBRANCH   1  14
BRANCH   6  21
ATOM     21  C   LIG    1        0.025   2.770   2.167  0.00  0.00    +0.280 C 
BRANCH  21  22
ATOM     22  N   LIG    1       -0.961   2.447   1.133  0.00  0.00    -1.120 NA
ATOM     23  H   LIG    1       -1.908   2.558   1.313  0.00  0.00    +0.420 HD
BRANCH  22  24
ATOM     24  S   LIG    1       -0.459   1.892  -0.345  0.00  0.00    +2.800 S 
ATOM     25  O   LIG    1       -1.636   1.641  -1.100  0.00  0.00    -0.980 OA
ATOM     26  O   LIG    1        0.568   2.773  -0.776  0.00  0.00    -0.980 OA
BRANCH  24  27
ATOM     27  N   LIG    1        0.260   0.421  -0.097  0.00  0.00    -1.260 NA
ATOM     28  H   LIG    1        0.624  -0.073  -0.848  0.00  0.00    +0.420 HD
ATOM     29  H   LIG    1        0.317   0.053   0.798  0.00  0.00    +0.410 HD
ENDBRANCH  24  27
ENDBRANCH  22  24
ENDBRANCH  21  22
ENDBRANCH   6  21
TORSDOF 6
