REMARK  Name = ZINCrH000004n0VH.0
REMARK                            x       y       z     vdW  Elec       q    Type
REMARK                         _______ _______ _______ _____ _____    ______ ____
ROOT
ATOM      1  C   LIG    1        0.400   1.386   0.826  0.00  0.00    +0.200 C 
ATOM      2  C   LIG    1        0.824   1.359  -0.647  0.00  0.00    +0.300 C 
ATOM      3  N   LIG    1       -0.346   1.697  -1.474  0.00  0.00    -0.620 N 
ATOM      4  C   LIG    1       -1.110   2.906  -1.129  0.00  0.00    +0.250 C 
ATOM      5  C   LIG    1       -1.441   2.858   0.367  0.00  0.00    +0.220 C 
ATOM      6  C   LIG    1       -0.706   0.922  -2.517  0.00  0.00    +0.710 C 
ATOM      7  N   LIG    1       -1.838   1.191  -3.196  0.00  0.00    -0.680 N 
ATOM      8  H   LIG    1       -2.336   2.003  -3.009  0.00  0.00    +0.410 HD
ATOM      9  O   LIG    1       -0.009  -0.019  -2.844  0.00  0.00    -0.560 OA
ATOM     10  O   LIG    1       -0.239   2.634   1.108  0.00  0.00    -0.370 OA
ENDROOT
BRANCH   1  14
ATOM     11  C   LIG    1        3.848   0.950   3.312  0.00  0.00    +0.140 A 
ATOM     12  C   LIG    1        3.088  -0.162   2.976  0.00  0.00    -0.020 A 
ATOM     13  C   LIG    1        1.974  -0.018   2.171  0.00  0.00    +0.070 A 
ATOM     14  C   LIG    1        1.616   1.232   1.702  0.00  0.00    -0.130 A 
ATOM     15  C   LIG    1        2.374   2.341   2.032  0.00  0.00    +0.080 A 
ATOM     16  C   LIG    1        3.486   2.203   2.840  0.00  0.00    -0.080 A 
BRANCH  11  18
ATOM     17  C   LIG    1        5.678   1.998   4.409  0.00  0.00    +0.250 C 
ATOM     18  O   LIG    1        4.944   0.811   4.103  0.00  0.00    -0.320 OA
ENDBRANCH  11  18
ENDBRANCH   1  14
BRANCH   7  19
ATOM     19  C   LIG    1       -2.296   0.300  -4.173  0.00  0.00    +0.150 A 
ATOM     20  C   LIG    1       -2.980   0.768  -5.292  0.00  0.00    +0.040 A 
ATOM     21  C   LIG    1       -3.414  -0.153  -6.232  0.00  0.00    +0.060 A 
ATOM     22  C   LIG    1       -3.156  -1.496  -6.029  0.00  0.00    +0.010 A 
ATOM     23  N   LIG    1       -2.505  -1.907  -4.959  0.00  0.00    -0.420 NA
ATOM     24  C   LIG    1       -2.071  -1.064  -4.044  0.00  0.00    +0.290 A 
BRANCH  22  25
ATOM     25  C   LIG    1       -3.625  -2.504  -7.047  0.00  0.00    +0.530 C 
ATOM     26  F   LIG    1       -4.788  -2.034  -7.667  0.00  0.00    -0.170 F 
ATOM     27  F   LIG    1       -3.895  -3.719  -6.409  0.00  0.00    -0.160 F 
ATOM     28  F   LIG    1       -2.627  -2.694  -8.009  0.00  0.00    -0.170 F 
ENDBRANCH  22  25
ENDBRANCH   7  19
TORSDOF 4
