REMARK  Name = ZINCrH000004mDKw.0
REMARK                            x       y       z     vdW  Elec       q    Type
REMARK                         _______ _______ _______ _____ _____    ______ ____
ROOT
ATOM      1  N   LIG    1        6.269   2.351  -0.441  0.00  0.00    -0.530 NA
ATOM      2  C   LIG    1        6.589   1.122  -1.179  0.00  0.00    +0.170 C 
ATOM      3  C   LIG    1        5.896   1.155  -2.545  0.00  0.00    +0.270 C 
ATOM      4  N   LIG    1        6.268   2.404  -3.227  0.00  0.00    -0.610 N 
ATOM      5  C   LIG    1        6.104   3.671  -2.498  0.00  0.00    +0.300 C 
ATOM      6  C   LIG    1        6.746   2.388  -4.487  0.00  0.00    +0.600 C 
ATOM      7  O   LIG    1        6.987   3.435  -5.060  0.00  0.00    -0.530 OA
ATOM      8  C   LIG    1        6.789   3.538  -1.133  0.00  0.00    +0.170 C 
ENDROOT
BRANCH   6   9
ATOM      9  C   LIG    1        6.976   1.111  -5.168  0.00  0.00    -0.270 A 
ATOM     10  C   LIG    1        8.073   0.798  -5.911  0.00  0.00    +0.100 A 
ATOM     11  C   LIG    1        8.047  -0.476  -6.448  0.00  0.00    -0.110 A 
ATOM     12  C   LIG    1        6.936  -1.180  -6.136  0.00  0.00    -0.200 A 
ATOM     13  C   LIG    1        6.664  -2.599  -6.599  0.00  0.00    +0.110 C 
ATOM     14  C   LIG    1        7.601  -2.924  -7.765  0.00  0.00    +0.020 C 
ATOM     15  C   LIG    1        9.034  -2.559  -7.369  0.00  0.00    +0.020 C 
ATOM     16  C   LIG    1        9.169  -1.036  -7.312  0.00  0.00    +0.100 C 
ATOM     17  S   LIG    1        5.885  -0.265  -5.149  0.00  0.00    +0.210 S 
ENDBRANCH   6   9
BRANCH   1  18
ATOM     18  C   LIG    1        6.771   2.284   0.938  0.00  0.00    +0.240 C 
BRANCH  18  22
ATOM     19  C   LIG    1        4.679  -0.776   3.067  0.00  0.00    +0.100 A 
ATOM     20  C   LIG    1        4.194   0.523   3.061  0.00  0.00    -0.040 A 
ATOM     21  C   LIG    1        4.872   1.510   2.371  0.00  0.00    +0.070 A 
ATOM     22  C   LIG    1        6.034   1.204   1.688  0.00  0.00    -0.090 A 
ATOM     23  C   LIG    1        6.522  -0.090   1.692  0.00  0.00    +0.030 A 
ATOM     24  C   LIG    1        5.847  -1.081   2.380  0.00  0.00    +0.070 A 
ATOM     25  F   LIG    1        6.324  -2.346   2.385  0.00  0.00    -0.130 F 
BRANCH  19  27
ATOM     26  C   LIG    1        2.819  -1.362   4.428  0.00  0.00    +0.250 C 
ATOM     27  O   LIG    1        4.013  -1.748   3.745  0.00  0.00    -0.310 OA
ENDBRANCH  19  27
ENDBRANCH  18  22
ENDBRANCH   1  18
TORSDOF 4
