REMARK  Name = ZINCrg000000oV8B.0
REMARK                            x       y       z     vdW  Elec       q    Type
REMARK                         _______ _______ _______ _____ _____    ______ ____
ROOT
ATOM      1  C   LIG    1        4.389  -0.580   3.621  0.00  0.00    +0.520 C 
ATOM      2  N   LIG    1        4.207  -0.916   2.328  0.00  0.00    -0.720 N 
ATOM      3  H   LIG    1        4.021  -1.837   2.088  0.00  0.00    +0.400 HD
ATOM      4  O   LIG    1        4.622   0.572   3.921  0.00  0.00    -0.500 OA
ENDROOT
BRANCH   2   5
ATOM      5  C   LIG    1        4.290   0.110   1.286  0.00  0.00    +0.260 C 
ATOM      6  C   LIG    1        4.669  -0.546  -0.044  0.00  0.00    +0.040 C 
ATOM      7  C   LIG    1        4.480   0.484  -1.164  0.00  0.00    +0.050 C 
ATOM      8  C   LIG    1        2.987   0.780  -1.310  0.00  0.00    +0.260 C 
ATOM      9  N   LIG    1        2.402   1.106  -0.015  0.00  0.00    -0.560 N 
ATOM     10  C   LIG    1        2.962   0.800   1.156  0.00  0.00    +0.510 C 
ATOM     11  O   LIG    1        2.365   1.090   2.171  0.00  0.00    -0.510 OA
BRANCH   9  12
ATOM     12  C   LIG    1        1.180   1.787   0.000  0.00  0.00    +0.140 A 
ATOM     13  C   LIG    1       -0.013   1.076   0.008  0.00  0.00    +0.030 A 
ATOM     14  C   LIG    1       -1.218   1.751   0.017  0.00  0.00    +0.020 A 
ATOM     15  C   LIG    1       -1.238   3.133   0.030  0.00  0.00    +0.040 A 
ATOM     16  C   LIG    1       -0.053   3.845   0.022  0.00  0.00    +0.030 A 
ATOM     17  C   LIG    1        1.157   3.176   0.008  0.00  0.00    -0.030 A 
ATOM     18 CL   LIG    1        2.644   4.071  -0.002  0.00  0.00    -0.060 Cl
ENDBRANCH   9  12
ENDBRANCH   2   5
BRANCH   1  19
ATOM     19  C   LIG    1        4.304  -1.635   4.693  0.00  0.00    +0.210 C 
BRANCH  19  21
ATOM     20  C   LIG    1        3.458  -0.084   6.349  0.00  0.00    +0.210 C 
ATOM     21  N   LIG    1        4.538  -1.019   6.006  0.00  0.00    -0.500 NA
BRANCH  21  22
ATOM     22  C   LIG    1        4.699  -2.043   7.047  0.00  0.00    +0.200 C 
ATOM     23  C   LIG    1        3.367  -2.780   7.271  0.00  0.00    +0.020 C 
ATOM     24  C   LIG    1        3.465  -3.594   8.577  0.00  0.00    -0.310 C 
ATOM     25  S   LIG    1        4.669  -2.686   9.613  0.00  0.00    +2.390 S 
ATOM     26  O   LIG    1        3.995  -2.109  10.723  0.00  0.00    -0.930 OA
ATOM     27  O   LIG    1        5.816  -3.499   9.824  0.00  0.00    -0.930 OA
ATOM     28  C   LIG    1        5.069  -1.375   8.396  0.00  0.00    -0.300 C 
ENDBRANCH  21  22
ENDBRANCH  19  21
ENDBRANCH   1  19
TORSDOF 5
