REMARK  Name = ZINCbu0000000GBK.0
REMARK                            x       y       z     vdW  Elec       q    Type
REMARK                         _______ _______ _______ _____ _____    ______ ____
ROOT
ATOM      1  C   LIG    1        1.417   1.994  -0.001  0.00  0.00    -0.020 C 
ATOM      2  C   LIG    1        2.095   1.606  -1.317  0.00  0.00    +0.040 C 
ENDROOT
BRANCH   1   3
ATOM      3  C   LIG    1        1.400   3.518   0.133  0.00  0.00    +0.000 C 
ATOM      4  C   LIG    1        2.835   4.048   0.122  0.00  0.00    +0.020 C 
ATOM      5  C   LIG    1        2.818   5.572   0.257  0.00  0.00    +0.010 C 
ATOM      6  C   LIG    1        2.141   5.960   1.573  0.00  0.00    +0.010 C 
ATOM      7  C   LIG    1        0.705   5.431   1.583  0.00  0.00    +0.010 C 
ATOM      8  C   LIG    1        0.723   3.907   1.449  0.00  0.00    +0.010 C 
ENDBRANCH   1   3
BRANCH   1   9
ATOM      9  C   LIG    1       -0.018   1.465   0.010  0.00  0.00    +0.260 C 
BRANCH   9  11
ATOM     10  C   LIG    1       -1.376  -0.512   0.012  0.00  0.00    +0.320 C 
ATOM     11  N   LIG    1        0.002  -0.004   0.002  0.00  0.00    -0.510 N 
ATOM     12  H   LIG    1        0.490  -0.338   0.820  0.00  0.00    +0.430 HD
ATOM     13  H   LIG    1        0.474  -0.330  -0.828  0.00  0.00    +0.430 HD
ENDBRANCH   9  11
ENDBRANCH   1   9
TORSDOF 3
