REMARK  Name = ZINCrD00000hQ5ei.0
REMARK                            x       y       z     vdW  Elec       q    Type
REMARK                         _______ _______ _______ _____ _____    ______ ____
ROOT
ATOM      1  N   LIG    1       -2.275   4.763   1.720  0.00  0.00    -0.520 N 
ATOM      2  C   LIG    1       -3.176   4.792   0.731  0.00  0.00    +0.530 C 
ATOM      3  C   LIG    1       -2.631   4.035  -0.461  0.00  0.00    +0.110 C 
ATOM      4  C   LIG    1       -1.244   3.558   0.017  0.00  0.00    +0.270 C 
ATOM      5  O   LIG    1       -4.256   5.338   0.781  0.00  0.00    -0.460 OA
ATOM      6  C   LIG    1       -1.151   4.096   1.428  0.00  0.00    +0.500 C 
ATOM      7  O   LIG    1       -0.208   3.947   2.175  0.00  0.00    -0.450 OA
ENDROOT
BRANCH   1  11
ATOM      8  C   LIG    1       -2.916   6.598   5.412  0.00  0.00    +0.140 A 
ATOM      9  C   LIG    1       -2.772   7.371   4.268  0.00  0.00    +0.000 A 
ATOM     10  C   LIG    1       -2.560   6.764   3.046  0.00  0.00    +0.070 A 
ATOM     11  C   LIG    1       -2.490   5.380   2.962  0.00  0.00    +0.060 A 
ATOM     12  C   LIG    1       -2.639   4.607   4.106  0.00  0.00    +0.070 A 
ATOM     13  C   LIG    1       -2.846   5.215   5.328  0.00  0.00    -0.060 A 
BRANCH   8  15
ATOM     14  C   LIG    1       -3.263   6.340   7.750  0.00  0.00    +0.240 C 
ATOM     15  O   LIG    1       -3.125   7.197   6.614  0.00  0.00    -0.310 OA
ENDBRANCH   8  15
ENDBRANCH   1  11
BRANCH   4  16
ATOM     16  N   LIG    1       -1.174   2.095   0.017  0.00  0.00    -0.730 N 
ATOM     17  H   LIG    1       -1.989   1.570   0.035  0.00  0.00    +0.410 HD
BRANCH  16  18
ATOM     18  C   LIG    1        0.070   1.454  -0.010  0.00  0.00    +0.190 A 
ATOM     19  C   LIG    1        1.238   2.205  -0.043  0.00  0.00    -0.010 A 
ATOM     20  C   LIG    1        2.465   1.572  -0.074  0.00  0.00    -0.010 A 
ATOM     21  C   LIG    1        2.531   0.187  -0.075  0.00  0.00    +0.050 A 
ATOM     22  C   LIG    1        1.365  -0.564  -0.042  0.00  0.00    +0.060 A 
ATOM     23  C   LIG    1        0.137   0.067  -0.010  0.00  0.00    -0.010 A 
BRANCH  21  24
ATOM     24  O   LIG    1        3.740  -0.436  -0.107  0.00  0.00    -0.310 OA
BRANCH  24  25
ATOM     25  C   LIG    1        4.899   0.399  -0.139  0.00  0.00    +0.600 C 
ATOM     26  F   LIG    1        4.861   1.205  -1.282  0.00  0.00    -0.170 F 
ATOM     27  F   LIG    1        6.048  -0.399  -0.169  0.00  0.00    -0.130 F 
ATOM     28  F   LIG    1        4.923   1.208   1.002  0.00  0.00    -0.170 F 
ENDBRANCH  24  25
ENDBRANCH  21  24
ENDBRANCH  16  18
ENDBRANCH   4  16
TORSDOF 6
