REMARK  Name = ZINCpk00000ebgQJ.0
REMARK                            x       y       z     vdW  Elec       q    Type
REMARK                         _______ _______ _______ _____ _____    ______ ____
ROOT
ATOM      1  C   LIG    1       -0.593  -5.147  -3.040  0.00  0.00    +0.240 C 
ATOM      2  C   LIG    1        0.011  -3.939  -3.759  0.00  0.00    +0.030 C 
ATOM      3  C   LIG    1        0.854  -3.129  -2.768  0.00  0.00    +0.280 C 
ATOM      4  N   LIG    1        0.019  -2.786  -1.608  0.00  0.00    -0.610 N 
ATOM      5  C   LIG    1       -0.677  -3.866  -0.894  0.00  0.00    +0.280 C 
ATOM      6  C   LIG    1       -0.101  -1.507  -1.202  0.00  0.00    +0.500 C 
ATOM      7  O   LIG    1        0.402  -0.615  -1.853  0.00  0.00    -0.530 OA
ATOM      8  C   LIG    1       -1.506  -4.667  -1.910  0.00  0.00    +0.000 C 
ENDROOT
BRANCH   1  10
ATOM      9  C   LIG    1       -1.573  -7.256  -3.768  0.00  0.00    +0.590 C 
ATOM     10  N   LIG    1       -1.372  -5.942  -3.992  0.00  0.00    -0.720 N 
ATOM     11  H   LIG    1       -1.744  -5.523  -4.784  0.00  0.00    +0.400 HD
ATOM     12  O   LIG    1       -1.034  -7.801  -2.823  0.00  0.00    -0.550 OA
BRANCH   9  18
ATOM     13  C   LIG    1       -2.381 -10.226  -3.413  0.00  0.00    +0.330 C 
ATOM     14  N   LIG    1       -2.803  -9.348  -4.508  0.00  0.00    -0.410 N 
ATOM     15  C   LIG    1       -3.615  -9.698  -5.534  0.00  0.00    +0.190 A 
ATOM     16  C   LIG    1       -3.775  -8.630  -6.351  0.00  0.00    -0.070 A 
ATOM     17  C   LIG    1       -3.041  -7.567  -5.816  0.00  0.00    +0.000 A 
ATOM     18  C   LIG    1       -2.442  -8.028  -4.663  0.00  0.00    -0.060 A 
ENDBRANCH   9  18
ENDBRANCH   1  10
BRANCH   6  19
ATOM     19  C   LIG    1       -0.859  -1.184   0.059  0.00  0.00    +0.270 C 
BRANCH  19  20
ATOM     20  C   LIG    1       -0.023  -1.557   1.257  0.00  0.00    -0.120 A 
ATOM     21  C   LIG    1        1.045  -0.763   1.629  0.00  0.00    +0.020 A 
ATOM     22  C   LIG    1        1.809  -1.104   2.730  0.00  0.00    +0.020 A 
ATOM     23  C   LIG    1        1.510  -2.243   3.453  0.00  0.00    +0.020 A 
ATOM     24  C   LIG    1        0.445  -3.040   3.078  0.00  0.00    +0.010 A 
ATOM     25  C   LIG    1       -0.322  -2.697   1.979  0.00  0.00    +0.020 A 
ENDBRANCH  19  20
BRANCH  19  26
ATOM     26  O   LIG    1       -1.147   0.215   0.097  0.00  0.00    -0.530 OA
ATOM     27  H   LIG    1       -0.361   0.779   0.084  0.00  0.00    +0.390 HD
ENDBRANCH  19  26
ENDBRANCH   6  19
TORSDOF 5
