REMARK  Name = ZINCvU00000006gk.0
REMARK                            x       y       z     vdW  Elec       q    Type
REMARK                         _______ _______ _______ _____ _____    ______ ____
ROOT
ATOM      1  C   LIG    1       -4.454  -3.877  -3.237  0.00  0.00    +0.520 C 
ATOM      2  N   LIG    1       -3.926  -3.743  -4.470  0.00  0.00    -0.610 N 
ATOM      3  C   LIG    1       -4.649  -4.232  -5.652  0.00  0.00    +0.270 C 
ATOM      4  C   LIG    1       -4.771  -3.088  -6.664  0.00  0.00    +0.010 C 
ATOM      5  C   LIG    1       -3.378  -2.530  -6.967  0.00  0.00    +0.030 C 
ATOM      6  C   LIG    1       -2.758  -1.977  -5.683  0.00  0.00    -0.070 C 
ATOM      7  C   LIG    1       -3.658  -0.880  -5.109  0.00  0.00    +0.050 C 
ATOM      8  C   LIG    1       -3.003  -0.293  -3.857  0.00  0.00    +0.200 C 
ATOM      9  N   LIG    1       -1.687   0.257  -4.204  0.00  0.00    -0.470 N 
ATOM     10  C   LIG    1       -0.790  -0.788  -4.712  0.00  0.00    +0.200 C 
ATOM     11  C   LIG    1       -1.379  -1.390  -5.990  0.00  0.00    +0.050 C 
ATOM     12  C   LIG    1       -2.615  -3.107  -4.658  0.00  0.00    +0.270 C 
ATOM     13  O   LIG    1       -5.579  -4.309  -3.103  0.00  0.00    -0.540 OA
ENDROOT
BRANCH   9  14
ATOM     14  C   LIG    1       -1.122   0.913  -3.122  0.00  0.00    +0.360 A 
ATOM     15  C   LIG    1        0.134   1.513  -3.232  0.00  0.00    -0.110 A 
ATOM     16  C   LIG    1        0.654   2.154  -2.125  0.00  0.00    +0.190 A 
ATOM     17  N   LIG    1       -0.052   2.183  -1.004  0.00  0.00    -0.530 NA
ATOM     18  C   LIG    1       -1.233   1.603  -0.930  0.00  0.00    +0.360 A 
ATOM     19  C   LIG    1        2.006   2.817  -2.193  0.00  0.00    +0.140 C 
ATOM     20  N   LIG    1       -1.767   0.981  -1.961  0.00  0.00    -0.550 NA
BRANCH  18  21
ATOM     21  C   LIG    1       -1.996   1.659   0.368  0.00  0.00    +0.080 C 
ATOM     22  C   LIG    1       -2.257   3.119   0.745  0.00  0.00    +0.050 C 
BRANCH  21  23
ATOM     23  C   LIG    1       -1.176   0.987   1.471  0.00  0.00    +0.020 C 
ATOM     24  C   LIG    1       -2.001   0.932   2.759  0.00  0.00    +0.020 C 
ENDBRANCH  21  23
ENDBRANCH  18  21
ENDBRANCH   9  14
BRANCH   1  25
ATOM     25  C   LIG    1       -3.647  -3.490  -2.026  0.00  0.00    -0.010 C 
ATOM     26  C   LIG    1       -2.497  -4.483  -1.839  0.00  0.00    +0.040 C 
BRANCH  25  27
ATOM     27  C   LIG    1       -4.544  -3.510  -0.787  0.00  0.00    +0.050 C 
BRANCH  27  28
ATOM     28  C   LIG    1       -3.758  -2.998   0.421  0.00  0.00    -0.020 C 
ATOM     29  C   LIG    1       -3.397  -1.526   0.208  0.00  0.00    +0.010 C 
BRANCH  28  31
ATOM     30  C   LIG    1       -3.785  -2.740   2.906  0.00  0.00    +0.010 C 
ATOM     31  C   LIG    1       -4.613  -3.135   1.683  0.00  0.00    +0.000 C 
ENDBRANCH  28  31
ENDBRANCH  27  28
ENDBRANCH  25  27
ENDBRANCH   1  25
TORSDOF 7
