REMARK  Name = ZINCpk00000eb0Tz.0
REMARK                            x       y       z     vdW  Elec       q    Type
REMARK                         _______ _______ _______ _____ _____    ______ ____
ROOT
ATOM      1  C   LIG    1       -0.613  -6.328   0.118  0.00  0.00    +0.240 C 
ATOM      2  C   LIG    1        0.068  -5.974  -1.211  0.00  0.00    +0.290 C 
ATOM      3  N   LIG    1        0.054  -4.567  -0.784  0.00  0.00    -0.640 N 
ATOM      4  C   LIG    1        0.033  -3.367  -1.397  0.00  0.00    +0.630 C 
ATOM      5  O   LIG    1        0.019  -3.304  -2.611  0.00  0.00    -0.510 OA
ATOM      6  C   LIG    1        0.081  -5.045   0.606  0.00  0.00    +0.280 C 
ENDROOT
BRANCH   4   7
ATOM      7  C   LIG    1        0.025  -2.127  -0.594  0.00  0.00    +0.000 A 
ATOM      8  N   LIG    1        0.036  -2.046   0.721  0.00  0.00    -0.240 NA
ATOM      9  N   LIG    1        0.023  -0.815   1.089  0.00  0.00    -0.280 N 
ATOM     10  C   LIG    1        0.002  -0.004   0.002  0.00  0.00    +0.030 A 
ATOM     11  C   LIG    1       -0.018   1.503   0.010  0.00  0.00    +0.170 C 
ATOM     12  C   LIG    1        0.031  -0.355   2.479  0.00  0.00    +0.380 C 
ATOM     13  C   LIG    1       -0.003  -0.803  -1.092  0.00  0.00    -0.100 A 
ATOM     14 CL   LIG    1       -0.035  -0.306  -2.755  0.00  0.00    -0.000 Cl
ENDBRANCH   4   7
BRANCH   1  15
ATOM     15  N   LIG    1       -2.075  -6.254   0.083  0.00  0.00    -1.090 NA
ATOM     16  H   LIG    1       -2.514  -5.577  -0.457  0.00  0.00    +0.420 HD
BRANCH  15  17
ATOM     17  S   LIG    1       -2.980  -7.325   0.963  0.00  0.00    +2.700 S 
ATOM     18  O   LIG    1       -2.457  -8.617   0.684  0.00  0.00    -0.950 OA
ATOM     19  O   LIG    1       -4.340  -6.974   0.747  0.00  0.00    -0.950 OA
BRANCH  17  24
ATOM     20  C   LIG    1       -1.850  -6.252   6.792  0.00  0.00    +0.090 C 
ATOM     21  C   LIG    1       -2.133  -6.520   5.336  0.00  0.00    -0.030 A 
ATOM     22  C   LIG    1       -3.164  -5.856   4.698  0.00  0.00    -0.010 A 
ATOM     23  C   LIG    1       -3.423  -6.102   3.363  0.00  0.00    +0.130 A 
ATOM     24  C   LIG    1       -2.650  -7.011   2.665  0.00  0.00    -0.680 A 
ATOM     25  C   LIG    1       -1.622  -7.679   3.304  0.00  0.00    +0.120 A 
ATOM     26  C   LIG    1       -1.360  -7.429   4.638  0.00  0.00    -0.010 A 
ENDBRANCH  17  24
ENDBRANCH  15  17
ENDBRANCH   1  15
TORSDOF 4
