REMARK  Name = ZINCqH0000036bWI.0
REMARK                            x       y       z     vdW  Elec       q    Type
REMARK                         _______ _______ _______ _____ _____    ______ ____
ROOT
ATOM      1  N   LIG    1       -0.702   2.045  -1.183  0.00  0.00    -0.730 N 
ATOM      2  H   LIG    1       -0.739   1.503  -1.987  0.00  0.00    +0.400 HD
ENDROOT
BRANCH   1  10
ATOM      3  C   LIG    1        4.186   2.259  -0.170  0.00  0.00    +0.100 A 
ATOM      4  C   LIG    1        3.394   3.324   0.229  0.00  0.00    -0.040 A 
ATOM      5  C   LIG    1        2.024   3.170   0.312  0.00  0.00    +0.070 A 
ATOM      6  C   LIG    1        1.437   1.955  -0.001  0.00  0.00    -0.130 A 
ATOM      7  C   LIG    1        2.224   0.890  -0.400  0.00  0.00    -0.090 A 
ATOM      8  C   LIG    1        1.350  -0.314  -0.682  0.00  0.00    +0.100 C 
ATOM      9  C   LIG    1        0.002  -0.004   0.002  0.00  0.00    +0.050 C 
ATOM     10  C   LIG    1       -0.019   1.539   0.011  0.00  0.00    +0.300 C 
ATOM     11  C   LIG    1        3.598   1.041  -0.485  0.00  0.00    +0.080 A 
ATOM     12  F   LIG    1        4.368   0.001  -0.874  0.00  0.00    -0.130 F 
BRANCH   3  14
ATOM     13  C   LIG    1        6.070   3.688   0.084  0.00  0.00    +0.250 C 
ATOM     14  O   LIG    1        5.535   2.406  -0.254  0.00  0.00    -0.310 OA
ENDBRANCH   3  14
ENDBRANCH   1  10
BRANCH   1  15
ATOM     15  C   LIG    1       -1.299   3.307  -1.163  0.00  0.00    +0.220 A 
ATOM     16  C   LIG    1       -1.251   4.082  -0.011  0.00  0.00    -0.060 A 
ATOM     17  C   LIG    1       -1.838   5.333   0.007  0.00  0.00    +0.070 A 
ATOM     18  C   LIG    1       -2.482   5.813  -1.116  0.00  0.00    -0.130 A 
ATOM     19  C   LIG    1       -2.539   5.041  -2.270  0.00  0.00    +0.210 A 
ATOM     20  C   LIG    1       -3.125   7.176  -1.090  0.00  0.00    +0.090 C 
ATOM     21  C   LIG    1       -1.946   3.787  -2.294  0.00  0.00    -0.060 A 
BRANCH  19  22
ATOM     22  N   LIG    1       -3.192   5.529  -3.408  0.00  0.00    -0.590 N 
ATOM     23  C   LIG    1       -2.565   6.322  -4.476  0.00  0.00    +0.260 C 
ATOM     24  C   LIG    1       -3.717   6.584  -5.465  0.00  0.00    +0.270 C 
ATOM     25  N   LIG    1       -4.872   5.919  -4.845  0.00  0.00    -0.740 N 
ATOM     26  H   LIG    1       -5.770   5.894  -5.212  0.00  0.00    +0.430 HD
ATOM     27  C   LIG    1       -4.488   5.352  -3.694  0.00  0.00    +0.700 C 
ATOM     28  O   LIG    1       -5.248   4.733  -2.974  0.00  0.00    -0.570 OA
ENDBRANCH  19  22
ENDBRANCH   1  15
TORSDOF 4
