REMARK  Name = ZINCrD00000eEHwW.0
REMARK                            x       y       z     vdW  Elec       q    Type
REMARK                         _______ _______ _______ _____ _____    ______ ____
ROOT
ATOM      1  N   LIG    1       -1.075   2.773   1.648  0.00  0.00    -0.380 N 
ATOM      2  N   LIG    1       -0.589   4.010   1.194  0.00  0.00    -0.300 NA
ATOM      3  C   LIG    1       -1.235   4.939   1.850  0.00  0.00    +0.250 A 
ATOM      4  N   LIG    1       -2.096   4.365   2.687  0.00  0.00    -0.530 NA
ATOM      5  C   LIG    1       -2.018   3.054   2.576  0.00  0.00    +0.340 A 
ENDROOT
BRANCH   5   6
ATOM      6  C   LIG    1       -2.817   2.067   3.332  0.00  0.00    -0.030 A 
ATOM      7  C   LIG    1       -3.845   2.497   4.185  0.00  0.00    +0.140 A 
ATOM      8  N   LIG    1       -4.338   3.736   4.521  0.00  0.00    -0.570 N 
ATOM      9  H   LIG    1       -4.007   4.579   4.176  0.00  0.00    +0.430 HD
ATOM     10  C   LIG    1       -5.366   3.601   5.414  0.00  0.00    +0.250 A 
ATOM     11  C   LIG    1       -5.571   2.302   5.683  0.00  0.00    -0.040 A 
ATOM     12  C   LIG    1       -4.594   1.544   4.896  0.00  0.00    -0.090 A 
ATOM     13  C   LIG    1       -4.313   0.183   4.752  0.00  0.00    +0.060 A 
ATOM     14  C   LIG    1       -3.299  -0.224   3.909  0.00  0.00    +0.070 A 
ATOM     15  F   LIG    1       -3.030  -1.541   3.772  0.00  0.00    -0.130 F 
ATOM     16  C   LIG    1       -2.557   0.707   3.198  0.00  0.00    +0.020 A 
ENDBRANCH   5   6
BRANCH   1  18
ATOM     17  C   LIG    1       -0.001   0.684   2.359  0.00  0.00    +0.100 C 
ATOM     18  C   LIG    1       -0.649   1.444   1.201  0.00  0.00    +0.190 C 
ATOM     19  C   LIG    1        0.345   1.574   0.034  0.00  0.00    +0.120 C 
ATOM     20  C   LIG    1       -0.426   2.027  -1.222  0.00  0.00    -0.290 C 
ATOM     21  S   LIG    1       -2.127   1.394  -0.990  0.00  0.00    +2.380 S 
ATOM     22  O   LIG    1       -2.378   0.363  -1.935  0.00  0.00    -0.930 OA
ATOM     23  O   LIG    1       -3.026   2.489  -0.878  0.00  0.00    -0.920 OA
ATOM     24  C   LIG    1       -1.865   0.651   0.665  0.00  0.00    -0.300 C 
ENDBRANCH   1  18
BRANCH   3  25
ATOM     25  C   LIG    1       -1.036   6.423   1.684  0.00  0.00    +0.080 C 
ATOM     26  C   LIG    1       -1.136   7.209   3.002  0.00  0.00    +0.040 C 
ATOM     27  C   LIG    1       -1.899   8.285   2.212  0.00  0.00    +0.010 C 
ATOM     28  C   LIG    1       -2.305   7.168   1.236  0.00  0.00    +0.040 C 
ENDBRANCH   3  25
TORSDOF 3
