REMARK  Name = ZINCrD00000F5LuE.0
REMARK                            x       y       z     vdW  Elec       q    Type
REMARK                         _______ _______ _______ _____ _____    ______ ____
ROOT
ATOM      1  N   LIG    1        1.881   4.868  -1.464  0.00  0.00    -0.980 NA
ENDROOT
BRANCH   1   2
ATOM      2  S   LIG    1        3.121   4.321  -2.417  0.00  0.00    +2.670 S 
ATOM      3  O   LIG    1        4.118   3.828  -1.533  0.00  0.00    -0.950 OA
ATOM      4  O   LIG    1        3.368   5.339  -3.377  0.00  0.00    -0.950 OA
BRANCH   2   6
ATOM      5  C   LIG    1        3.108   1.767  -3.193  0.00  0.00    +0.230 C 
ATOM      6  C   LIG    1        2.516   2.929  -3.311  0.00  0.00    -0.590 C 
ENDBRANCH   2   6
ENDBRANCH   1   2
BRANCH   1   7
ATOM      7  C   LIG    1        0.870   5.769  -2.024  0.00  0.00    +0.270 C 
ATOM      8  C   LIG    1       -0.523   5.183  -1.784  0.00  0.00    +0.060 C 
BRANCH   7   9
ATOM      9  C   LIG    1        0.972   7.136  -1.344  0.00  0.00    +0.200 C 
BRANCH   9  10
ATOM     10  C   LIG    1        0.054   8.110  -2.035  0.00  0.00    -0.100 A 
ATOM     11  C   LIG    1       -1.262   8.229  -1.626  0.00  0.00    +0.060 A 
ATOM     12  C   LIG    1       -2.103   9.127  -2.256  0.00  0.00    +0.040 A 
ATOM     13  C   LIG    1       -1.632   9.899  -3.303  0.00  0.00    -0.090 A 
ATOM     14  C   LIG    1       -0.317   9.776  -3.715  0.00  0.00    +0.040 A 
ATOM     15 BR   LIG    1       -2.785  11.121  -4.170  0.00  0.00    -0.050 Br
ATOM     16  C   LIG    1        0.525   8.882  -3.081  0.00  0.00    +0.040 A 
ENDBRANCH   9  10
BRANCH   9  17
ATOM     17  O   LIG    1        0.593   7.015   0.028  0.00  0.00    -0.360 OA
ATOM     18  C   LIG    1        1.245   7.945   0.896  0.00  0.00    +0.200 C 
ENDBRANCH   9  17
ENDBRANCH   7   9
ENDBRANCH   1   7
BRANCH   1  19
ATOM     19  C   LIG    1        1.796   4.452  -0.062  0.00  0.00    +0.390 C 
BRANCH  19  20
ATOM     20  C   LIG    1        0.819   3.311   0.064  0.00  0.00    +0.090 A 
ATOM     21  C   LIG    1        0.496   2.426  -0.908  0.00  0.00    -0.120 A 
ATOM     22  C   LIG    1       -0.442   1.532  -0.381  0.00  0.00    +0.230 A 
ATOM     23  N   LIG    1       -0.677   1.871   0.861  0.00  0.00    -0.280 NA
ATOM     24  N   LIG    1        0.112   2.987   1.167  0.00  0.00    -0.360 N 
BRANCH  24  25
ATOM     25  C   LIG    1        0.157   3.685   2.454  0.00  0.00    +0.480 C 
BRANCH  25  26
ATOM     26  O   LIG    1       -0.902   4.642   2.514  0.00  0.00    -0.400 OA
ATOM     27  C   LIG    1       -0.882   5.458   3.688  0.00  0.00    +0.230 C 
ENDBRANCH  25  26
ENDBRANCH  24  25
ENDBRANCH  19  20
ENDBRANCH   1  19
TORSDOF 10
