REMARK  Name = ZINCpe000000ZuVi.0
REMARK                            x       y       z     vdW  Elec       q    Type
REMARK                         _______ _______ _______ _____ _____    ______ ____
ROOT
ATOM      1  O   LIG    1        6.783  -0.833  -0.042  0.00  0.00    -0.520 OA
ATOM      2  C   LIG    1        6.460   0.340  -0.051  0.00  0.00    +0.570 C 
ATOM      3  N   LIG    1        7.406   1.299  -0.053  0.00  0.00    -0.600 N 
ATOM      4  C   LIG    1        7.036   2.716   0.065  0.00  0.00    +0.260 C 
ATOM      5  C   LIG    1        7.821   3.337   1.224  0.00  0.00    +0.030 C 
ATOM      6  C   LIG    1        9.317   3.094   1.010  0.00  0.00    +0.020 C 
ATOM      7  C   LIG    1        9.594   1.589   0.989  0.00  0.00    +0.260 C 
ATOM      8  C   LIG    1        8.828   0.948  -0.167  0.00  0.00    +0.290 C 
ENDROOT
BRANCH   7   9
ATOM      9  N   LIG    1       11.030   1.358   0.815  0.00  0.00    -0.630 N 
ATOM     10  C   LIG    1       11.898   0.641   1.761  0.00  0.00    +0.250 C 
ATOM     11  C   LIG    1       13.288   0.690   1.096  0.00  0.00    +0.250 C 
ATOM     12  N   LIG    1       13.054   1.429  -0.153  0.00  0.00    -0.740 N 
ATOM     13  H   LIG    1       13.730   1.639  -0.817  0.00  0.00    +0.430 HD
ATOM     14  C   LIG    1       11.759   1.760  -0.233  0.00  0.00    +0.700 C 
ATOM     15  O   LIG    1       11.289   2.375  -1.171  0.00  0.00    -0.580 OA
ENDBRANCH   7   9
BRANCH   2  16
ATOM     16  C   LIG    1        5.031   0.712  -0.059  0.00  0.00    -0.200 A 
ATOM     17  C   LIG    1        4.576   1.770  -0.858  0.00  0.00    +0.150 A 
ATOM     18  C   LIG    1        3.231   2.080  -0.832  0.00  0.00    -0.040 A 
ATOM     19  C   LIG    1        2.378   1.338  -0.021  0.00  0.00    +0.370 A 
ATOM     20  N   LIG    1        2.840   0.347   0.727  0.00  0.00    -0.500 NA
ATOM     21  C   LIG    1        4.113   0.015   0.728  0.00  0.00    +0.370 A 
BRANCH  19  22
ATOM     22  N   LIG    1        1.018   1.647   0.010  0.00  0.00    -0.420 N 
ATOM     23  C   LIG    1        0.070   1.077   0.823  0.00  0.00    +0.160 A 
ATOM     24  C   LIG    1       -1.103   1.665   0.524  0.00  0.00    +0.150 A 
ATOM     25  N   LIG    1       -0.884   2.574  -0.439  0.00  0.00    -0.470 NA
ATOM     26  C   LIG    1        0.380   2.569  -0.760  0.00  0.00    +0.410 A 
ENDBRANCH  19  22
ENDBRANCH   2  16
TORSDOF 3
