REMARK  Name = ZINCqH00000366uU.0
REMARK                            x       y       z     vdW  Elec       q    Type
REMARK                         _______ _______ _______ _____ _____    ______ ____
ROOT
ATOM      1  C   LIG    1       -1.264   3.402   0.128  0.00  0.00    +0.520 C 
ATOM      2  N   LIG    1       -1.241   2.059   0.019  0.00  0.00    -0.670 N 
ATOM      3  H   LIG    1       -2.072   1.563  -0.047  0.00  0.00    +0.410 HD
ATOM      4  O   LIG    1       -0.226   4.029   0.127  0.00  0.00    -0.510 OA
ENDROOT
BRANCH   2   5
ATOM      5  C   LIG    1       -0.016   1.379   0.002  0.00  0.00    +0.110 A 
ATOM      6  C   LIG    1        0.091   0.127   0.605  0.00  0.00    +0.050 A 
ATOM      7  C   LIG    1        1.288  -0.553   0.602  0.00  0.00    +0.000 A 
ATOM      8  C   LIG    1        2.405   0.009  -0.007  0.00  0.00    +0.170 A 
ATOM      9  N   LIG    1        3.614  -0.657  -0.020  0.00  0.00    -0.630 N 
ATOM     10  H   LIG    1        3.684  -1.528   0.401  0.00  0.00    +0.420 HD
ATOM     11  C   LIG    1        4.695  -0.117  -0.608  0.00  0.00    +0.540 A 
ATOM     12  C   LIG    1        4.644   1.146  -1.235  0.00  0.00    -0.180 A 
ATOM     13  C   LIG    1        3.487   1.852  -1.256  0.00  0.00    +0.130 A 
ATOM     14  C   LIG    1        5.881   1.714  -1.883  0.00  0.00    +0.120 C 
ATOM     15  O   LIG    1        5.747  -0.734  -0.601  0.00  0.00    -0.540 OA
ATOM     16  C   LIG    1        2.302   1.273  -0.619  0.00  0.00    -0.110 A 
ATOM     17  C   LIG    1        1.082   1.954  -0.610  0.00  0.00    +0.090 A 
ENDBRANCH   2   5
BRANCH   1  18
ATOM     18  C   LIG    1       -2.581   4.125   0.252  0.00  0.00    +0.050 C 
ATOM     19  C   LIG    1       -3.313   3.639   1.504  0.00  0.00    +0.080 C 
BRANCH  18  23
ATOM     20  C   LIG    1       -1.872   8.329   0.557  0.00  0.00    +0.100 A 
ATOM     21  C   LIG    1       -1.345   7.465   1.504  0.00  0.00    -0.040 A 
ATOM     22  C   LIG    1       -1.581   6.107   1.406  0.00  0.00    +0.080 A 
ATOM     23  C   LIG    1       -2.331   5.607   0.359  0.00  0.00    -0.080 A 
ATOM     24  C   LIG    1       -2.859   6.466  -0.589  0.00  0.00    +0.040 A 
ATOM     25  C   LIG    1       -2.631   7.826  -0.492  0.00  0.00    +0.070 A 
ATOM     26  F   LIG    1       -3.146   8.665  -1.418  0.00  0.00    -0.130 F 
BRANCH  20  28
ATOM     27  C   LIG    1       -0.857  10.112   1.759  0.00  0.00    +0.250 C 
ATOM     28  O   LIG    1       -1.646   9.666   0.654  0.00  0.00    -0.310 OA
ENDBRANCH  20  28
ENDBRANCH  18  23
ENDBRANCH   1  18
TORSDOF 4
