REMARK  Name = ZINCvU00000009yM.0
REMARK                            x       y       z     vdW  Elec       q    Type
REMARK                         _______ _______ _______ _____ _____    ______ ____
ROOT
ATOM      1  O   LIG    1       -1.308  -0.690   0.238  0.00  0.00    -0.420 OA
ATOM      2  C   LIG    1       -0.283  -0.067   0.024  0.00  0.00    +0.460 A 
ATOM      3  C   LIG    1        1.021  -0.719  -0.253  0.00  0.00    -0.200 A 
ATOM      4  C   LIG    1        1.090  -2.094  -0.477  0.00  0.00    +0.140 A 
ATOM      5  C   LIG    1        2.309  -2.681  -0.738  0.00  0.00    -0.060 A 
ATOM      6  C   LIG    1        3.460  -1.906  -0.779  0.00  0.00    +0.120 A 
ATOM      7  C   LIG    1        3.404  -0.548  -0.558  0.00  0.00    +0.040 A 
ATOM      8 CL   LIG    1        2.405  -4.392  -1.017  0.00  0.00    -0.050 Cl
ATOM      9  C   LIG    1        2.183   0.070  -0.289  0.00  0.00    +0.150 A 
ATOM     10  O   LIG    1        2.158   1.403  -0.066  0.00  0.00    -0.180 OA
ATOM     11  C   LIG    1        0.977   2.052  -0.032  0.00  0.00    +0.090 A 
ATOM     12  C   LIG    1        0.713   3.501  -0.037  0.00  0.00    +0.570 C 
ATOM     13  O   LIG    1        1.568   4.364  -0.080  0.00  0.00    -0.480 OA
ATOM     14  N   LIG    1       -0.615   3.731   0.012  0.00  0.00    -0.580 N 
ATOM     15  C   LIG    1       -1.301   2.429   0.047  0.00  0.00    +0.350 C 
ATOM     16  C   LIG    1       -0.221   1.398   0.016  0.00  0.00    -0.240 A 
ENDROOT
BRANCH  15  17
ATOM     17  C   LIG    1       -2.106   2.301   1.315  0.00  0.00    -0.110 A 
ATOM     18  C   LIG    1       -1.607   2.802   2.503  0.00  0.00    +0.040 A 
ATOM     19  C   LIG    1       -2.345   2.691   3.665  0.00  0.00    -0.010 A 
ATOM     20  C   LIG    1       -3.583   2.066   3.642  0.00  0.00    +0.120 A 
ATOM     21  C   LIG    1       -4.079   1.559   2.450  0.00  0.00    -0.010 A 
ATOM     22  C   LIG    1       -3.340   1.678   1.289  0.00  0.00    +0.060 A 
BRANCH  20  23
ATOM     23  O   LIG    1       -4.309   1.951   4.785  0.00  0.00    -0.500 OA
ATOM     24  H   LIG    1       -4.131   1.142   5.284  0.00  0.00    +0.390 HD
ENDBRANCH  20  23
ENDBRANCH  15  17
BRANCH  14  25
ATOM     25  C   LIG    1       -1.261   5.046   0.025  0.00  0.00    +0.400 C 
BRANCH  25  26
ATOM     26  C   LIG    1       -1.414   5.544  -1.389  0.00  0.00    -0.110 A 
ATOM     27  C   LIG    1       -0.499   6.440  -1.909  0.00  0.00    +0.060 A 
ATOM     28  C   LIG    1       -0.638   6.897  -3.206  0.00  0.00    +0.010 A 
ATOM     29  C   LIG    1       -1.694   6.458  -3.984  0.00  0.00    +0.040 A 
ATOM     30  C   LIG    1       -2.610   5.563  -3.465  0.00  0.00    +0.030 A 
ATOM     31  C   LIG    1       -2.467   5.100  -2.170  0.00  0.00    -0.020 A 
ATOM     32 CL   LIG    1       -3.612   3.969  -1.520  0.00  0.00    -0.060 Cl
ENDBRANCH  25  26
ENDBRANCH  14  25
TORSDOF 4
