REMARK  Name = ZINCvU0000000Jkr.0
REMARK                            x       y       z     vdW  Elec       q    Type
REMARK                         _______ _______ _______ _____ _____    ______ ____
ROOT
ATOM      1  O   LIG    1       -3.661   6.228  -3.167  0.00  0.00    -0.510 OA
ATOM      2  C   LIG    1       -3.659   5.825  -2.023  0.00  0.00    +0.520 C 
ATOM      3  N   LIG    1       -2.491   5.627  -1.381  0.00  0.00    -0.670 N 
ATOM      4  H   LIG    1       -2.485   5.226  -0.497  0.00  0.00    +0.410 HD
ENDROOT
BRANCH   2   5
ATOM      5  C   LIG    1       -4.963   5.547  -1.320  0.00  0.00    +0.000 C 
ATOM      6  C   LIG    1       -5.013   4.075  -0.903  0.00  0.00    +0.030 C 
ATOM      7  C   LIG    1       -6.324   3.804  -0.159  0.00  0.00    +0.270 C 
ATOM      8  N   LIG    1       -7.446   4.230  -1.006  0.00  0.00    -0.630 N 
ATOM      9  C   LIG    1       -7.451   5.601  -1.536  0.00  0.00    +0.300 C 
ATOM     10  C   LIG    1       -8.452   3.380  -1.292  0.00  0.00    +0.710 C 
ATOM     11  N   LIG    1       -8.489   2.162  -0.717  0.00  0.00    -0.680 N 
ATOM     12  H   LIG    1       -7.752   1.866  -0.160  0.00  0.00    +0.400 HD
ATOM     13  O   LIG    1       -9.326   3.712  -2.070  0.00  0.00    -0.560 OA
ATOM     14  C   LIG    1       -6.127   5.852  -2.265  0.00  0.00    +0.050 C 
BRANCH  11  15
ATOM     15  C   LIG    1       -9.592   1.325  -0.922  0.00  0.00    +0.160 A 
ATOM     16  C   LIG    1      -10.832   1.869  -1.225  0.00  0.00    +0.010 A 
ATOM     17  C   LIG    1      -11.917   1.040  -1.432  0.00  0.00    +0.030 A 
ATOM     18  C   LIG    1      -11.771  -0.331  -1.327  0.00  0.00    -0.020 A 
ATOM     19  C   LIG    1      -10.538  -0.876  -1.020  0.00  0.00    +0.030 A 
ATOM     20  C   LIG    1       -9.448  -0.053  -0.817  0.00  0.00    -0.030 A 
ENDBRANCH  11  15
ENDBRANCH   2   5
BRANCH   3  21
ATOM     21  C   LIG    1       -1.287   6.000  -1.987  0.00  0.00    +0.150 A 
ATOM     22  C   LIG    1       -1.274   6.996  -2.955  0.00  0.00    +0.010 A 
ATOM     23  C   LIG    1       -0.085   7.358  -3.557  0.00  0.00    +0.030 A 
ATOM     24  C   LIG    1        1.094   6.733  -3.192  0.00  0.00    -0.010 A 
ATOM     25  C   LIG    1        1.086   5.745  -2.224  0.00  0.00    +0.040 A 
ATOM     26  C   LIG    1       -0.100   5.379  -1.619  0.00  0.00    -0.110 A 
BRANCH  26  27
ATOM     27  C   LIG    1       -0.108   4.302  -0.566  0.00  0.00    +0.120 C 
BRANCH  27  28
ATOM     28  C   LIG    1       -0.442   2.978  -1.203  0.00  0.00    -0.080 A 
ATOM     29  C   LIG    1        0.569   2.171  -1.691  0.00  0.00    +0.010 A 
ATOM     30  C   LIG    1        0.263   0.956  -2.275  0.00  0.00    +0.000 A 
ATOM     31  C   LIG    1       -1.054   0.548  -2.371  0.00  0.00    +0.000 A 
ATOM     32  C   LIG    1       -2.066   1.357  -1.888  0.00  0.00    +0.000 A 
ATOM     33  C   LIG    1       -1.759   2.570  -1.300  0.00  0.00    -0.010 A 
ENDBRANCH  27  28
ENDBRANCH  26  27
ENDBRANCH   3  21
TORSDOF 5
