REMARK  Name = ZINCrH000004qm1k.0
REMARK                            x       y       z     vdW  Elec       q    Type
REMARK                         _______ _______ _______ _____ _____    ______ ____
ROOT
ATOM      1  N   LIG    1       -1.136  -0.696   0.092  0.00  0.00    -0.590 N 
ATOM      2  C   LIG    1        0.007   0.012  -0.007  0.00  0.00    +0.570 C 
ATOM      3  O   LIG    1        1.072  -0.565  -0.102  0.00  0.00    -0.510 OA
ATOM      4  C   LIG    1       -2.427  -0.004   0.097  0.00  0.00    +0.310 C 
ENDROOT
BRANCH   2   5
ATOM      5  C   LIG    1       -0.035   1.494  -0.001  0.00  0.00    -0.020 A 
ATOM      6  C   LIG    1       -0.360   2.188  -1.132  0.00  0.00    -0.010 A 
ATOM      7  C   LIG    1       -0.393   3.648  -1.094  0.00  0.00    +0.540 A 
ATOM      8  N   LIG    1       -0.109   4.318   0.036  0.00  0.00    -0.630 N 
ATOM      9  H   LIG    1       -0.139   5.288   0.034  0.00  0.00    +0.420 HD
ATOM     10  C   LIG    1        0.224   3.655   1.198  0.00  0.00    +0.190 A 
ATOM     11  C   LIG    1        0.515   4.368   2.358  0.00  0.00    -0.020 A 
ATOM     12  C   LIG    1        0.830   3.692   3.517  0.00  0.00    +0.080 A 
ATOM     13  C   LIG    1        0.875   2.305   3.536  0.00  0.00    -0.010 A 
ATOM     14  C   LIG    1        0.599   1.586   2.408  0.00  0.00    +0.080 A 
ATOM     15  O   LIG    1       -0.683   4.268  -2.102  0.00  0.00    -0.520 OA
ATOM     16  C   LIG    1        0.266   2.250   1.224  0.00  0.00    -0.110 A 
ENDBRANCH   2   5
BRANCH   1  17
ATOM     17  C   LIG    1       -1.087  -2.156   0.196  0.00  0.00    +0.350 C 
BRANCH  17  20
ATOM     18  N   LIG    1       -0.955  -3.857   1.987  0.00  0.00    -0.670 N 
ATOM     19  H   LIG    1       -1.046  -4.540   1.304  0.00  0.00    +0.410 HD
ATOM     20  C   LIG    1       -1.010  -2.554   1.648  0.00  0.00    +0.500 C 
ATOM     21  O   LIG    1       -0.997  -1.702   2.510  0.00  0.00    -0.500 OA
BRANCH  18  29
ATOM     22  C   LIG    1       -1.877  -6.418   2.819  0.00  0.00    +0.110 C 
ATOM     23  C   LIG    1       -1.202  -5.466   3.772  0.00  0.00    -0.110 A 
ATOM     24  C   LIG    1       -1.015  -5.826   5.092  0.00  0.00    +0.070 A 
ATOM     25  C   LIG    1       -0.395  -4.952   5.968  0.00  0.00    -0.100 A 
ATOM     26  C   LIG    1        0.039  -3.716   5.524  0.00  0.00    +0.070 A 
ATOM     27  C   LIG    1       -0.140  -3.353   4.204  0.00  0.00    +0.030 A 
ATOM     28 BR   LIG    1       -0.140  -5.450   7.775  0.00  0.00    -0.050 Br
ATOM     29  C   LIG    1       -0.767  -4.225   3.324  0.00  0.00    +0.160 A 
ENDBRANCH  18  29
ENDBRANCH  17  20
ENDBRANCH   1  17
TORSDOF 4
