REMARK  Name = ZINCpk00000KfLdL.0
REMARK                            x       y       z     vdW  Elec       q    Type
REMARK                         _______ _______ _______ _____ _____    ______ ____
ROOT
ATOM      1  C   LIG    1       -2.201   4.739   5.926  0.00  0.00    +0.200 C 
ENDROOT
BRANCH   1   2
ATOM      2  O   LIG    1       -0.965   4.824   5.214  0.00  0.00    -0.530 OA
ATOM      3  H   LIG    1       -0.267   4.255   5.569  0.00  0.00    +0.370 HD
ENDBRANCH   1   2
BRANCH   1   4
ATOM      4  C   LIG    1       -1.979   5.151   7.383  0.00  0.00    +0.150 C 
BRANCH   4  11
ATOM      5  C   LIG    1       -5.501   7.222  10.801  0.00  0.00    +0.200 C 
ATOM      6  C   LIG    1       -4.009   7.106  10.623  0.00  0.00    +0.180 A 
ATOM      7  N   LIG    1       -3.115   7.023  11.576  0.00  0.00    -0.300 NA
ATOM      8  N   LIG    1       -1.936   6.934  11.061  0.00  0.00    -0.280 NA
ATOM      9  C   LIG    1       -2.026   6.955   9.768  0.00  0.00    +0.130 A 
ATOM     10  C   LIG    1       -0.932   6.873   8.733  0.00  0.00    +0.360 C 
ATOM     11  N   LIG    1       -1.555   6.557   7.435  0.00  0.00    -0.510 NA
ATOM     12  C   LIG    1       -2.682   7.458   7.152  0.00  0.00    +0.250 C 
ATOM     13  C   LIG    1       -3.855   7.130   8.085  0.00  0.00    +0.260 C 
ATOM     14  N   LIG    1       -3.344   7.068   9.455  0.00  0.00    -0.470 N 
ENDBRANCH   4  11
ENDBRANCH   1   4
BRANCH   1  15
ATOM     15  C   LIG    1       -2.721   3.301   5.877  0.00  0.00    +0.270 C 
BRANCH  15  16
ATOM     16  N   LIG    1       -3.046   2.947   4.493  0.00  0.00    -0.490 N 
ATOM     17  C   LIG    1       -4.271   3.028   3.906  0.00  0.00    +0.460 A 
ATOM     18  N   LIG    1       -4.201   2.634   2.668  0.00  0.00    -0.490 NA
ATOM     19  C   LIG    1       -2.925   2.273   2.376  0.00  0.00    +0.040 A 
ATOM     20  C   LIG    1       -2.300   1.793   1.222  0.00  0.00    +0.070 A 
ATOM     21  C   LIG    1       -0.964   1.508   1.240  0.00  0.00    -0.090 A 
ATOM     22  C   LIG    1       -0.214   1.701   2.392  0.00  0.00    -0.060 A 
ATOM     23  C   LIG    1       -0.809   2.179   3.540  0.00  0.00    +0.020 A 
ATOM     24  C   LIG    1        1.259   1.386   2.387  0.00  0.00    +0.100 C 
ATOM     25  C   LIG    1       -0.296   0.984  -0.005  0.00  0.00    +0.100 C 
ATOM     26  C   LIG    1       -2.166   2.469   3.542  0.00  0.00    +0.060 A 
ENDBRANCH  15  16
ENDBRANCH   1  15
TORSDOF 5
