REMARK  Name = ZINCrD000000Cfps.0
REMARK                            x       y       z     vdW  Elec       q    Type
REMARK                         _______ _______ _______ _____ _____    ______ ____
ROOT
ATOM      1  O   LIG    1        5.534   1.668  -2.468  0.00  0.00    -0.520 OA
ATOM      2  C   LIG    1        4.575   2.392  -2.655  0.00  0.00    +0.710 C 
ATOM      3  N   LIG    1        4.608   3.313  -3.639  0.00  0.00    -0.740 N 
ATOM      4  H   LIG    1        3.843   3.890  -3.788  0.00  0.00    +0.400 HD
ATOM      5  N   LIG    1        3.479   2.274  -1.879  0.00  0.00    -0.650 N 
ATOM      6  H   LIG    1        2.715   2.851  -2.028  0.00  0.00    +0.410 HD
ENDROOT
BRANCH   3   7
ATOM      7  C   LIG    1        5.798   3.441  -4.482  0.00  0.00    +0.270 C 
ATOM      8  C   LIG    1        5.722   2.434  -5.634  0.00  0.00    -0.010 C 
ATOM      9  C   LIG    1        6.929   2.631  -6.555  0.00  0.00    +0.230 C 
ATOM     10  O   LIG    1        6.950   3.978  -7.032  0.00  0.00    -0.370 OA
ATOM     11  C   LIG    1        7.070   4.960  -6.001  0.00  0.00    +0.210 C 
ATOM     12  C   LIG    1        5.867   4.859  -5.059  0.00  0.00    +0.010 C 
BRANCH  11  13
ATOM     13  C   LIG    1        7.111   6.334  -6.618  0.00  0.00    -0.140 A 
ATOM     14  C   LIG    1        7.963   7.305  -6.115  0.00  0.00    +0.080 A 
ATOM     15  C   LIG    1        7.970   8.554  -6.718  0.00  0.00    -0.030 A 
ATOM     16  C   LIG    1        7.127   8.791  -7.786  0.00  0.00    +0.260 A 
ATOM     17  N   LIG    1        6.325   7.845  -8.235  0.00  0.00    -0.490 NA
ATOM     18  C   LIG    1        6.294   6.645  -7.689  0.00  0.00    +0.290 A 
ENDBRANCH  11  13
ENDBRANCH   3   7
BRANCH   5  19
ATOM     19  C   LIG    1        3.446   1.325  -0.865  0.00  0.00    +0.460 A 
ATOM     20  N   LIG    1        4.412   0.491  -0.562  0.00  0.00    -0.460 NA
ATOM     21  C   LIG    1        4.026  -0.282   0.466  0.00  0.00    +0.180 A 
ATOM     22  C   LIG    1        2.782   0.080   0.825  0.00  0.00    +0.120 A 
ATOM     23  N   LIG    1        2.405   1.105  -0.014  0.00  0.00    -0.430 N 
BRANCH  23  24
ATOM     24  C   LIG    1        1.180   1.787   0.000  0.00  0.00    +0.120 A 
ATOM     25  C   LIG    1       -0.013   1.076   0.008  0.00  0.00    +0.020 A 
ATOM     26  C   LIG    1       -1.218   1.751   0.017  0.00  0.00    +0.040 A 
ATOM     27  C   LIG    1       -1.237   3.133   0.030  0.00  0.00    +0.020 A 
ATOM     28  C   LIG    1       -0.051   3.844   0.022  0.00  0.00    +0.040 A 
ATOM     29  C   LIG    1        1.157   3.175   0.008  0.00  0.00    +0.000 A 
ENDBRANCH  23  24
ENDBRANCH   5  19
TORSDOF 4
