REMARK  Name = ZINCBI0000000bLj.0
REMARK                            x       y       z     vdW  Elec       q    Type
REMARK                         _______ _______ _______ _____ _____    ______ ____
ROOT
ATOM      1  C   LIG    1       -4.949  -3.148   3.564  0.00  0.00    +0.500 C 
ATOM      2  N   LIG    1       -4.762  -2.237   4.540  0.00  0.00    -0.690 N 
ATOM      3  H   LIG    1       -3.992  -2.306   5.126  0.00  0.00    +0.410 HD
ATOM      4  O   LIG    1       -5.912  -3.062   2.830  0.00  0.00    -0.510 OA
ENDROOT
BRANCH   1   7
ATOM      5  N   LIG    1       -4.159  -5.175   2.411  0.00  0.00    -0.700 N 
ATOM      6  H   LIG    1       -4.928  -5.107   1.825  0.00  0.00    +0.420 HD
ATOM      7  C   LIG    1       -3.971  -4.264   3.386  0.00  0.00    +0.510 C 
ATOM      8  O   LIG    1       -3.009  -4.351   4.120  0.00  0.00    -0.510 OA
BRANCH   5  17
ATOM      9  C   LIG    1        0.056  -4.815  -0.125  0.00  0.00    -0.170 A 
ATOM     10  C   LIG    1       -0.502  -4.034   0.870  0.00  0.00    +0.030 A 
ATOM     11  C   LIG    1       -1.552  -4.524   1.618  0.00  0.00    +0.040 A 
ATOM     12  C   LIG    1       -2.056  -5.796   1.380  0.00  0.00    -0.060 A 
ATOM     13  C   LIG    1       -1.504  -6.572   0.385  0.00  0.00    -0.060 A 
ATOM     14  C   LIG    1       -2.009  -7.954   0.061  0.00  0.00    +0.080 C 
ATOM     15  C   LIG    1       -2.847  -8.503   1.214  0.00  0.00    +0.040 C 
ATOM     16  C   LIG    1       -3.905  -7.457   1.584  0.00  0.00    +0.040 C 
ATOM     17  C   LIG    1       -3.200  -6.270   2.237  0.00  0.00    +0.290 C 
ATOM     18  C   LIG    1       -0.444  -6.079  -0.364  0.00  0.00    +0.030 A 
BRANCH   9  19
ATOM     19  C   LIG    1        1.205  -4.288  -0.945  0.00  0.00    +0.330 C 
BRANCH  19  20
ATOM     20  N   LIG    1        2.473  -4.644  -0.296  0.00  0.00    -0.640 N 
ATOM     21  H   LIG    1        2.544  -5.648  -0.224  0.00  0.00    +0.440 HD
ATOM     22  H   LIG    1        2.505  -4.237   0.627  0.00  0.00    +0.430 HD
ATOM     23  H   LIG    1        3.243  -4.291  -0.846  0.00  0.00    +0.440 HD
ENDBRANCH  19  20
ENDBRANCH   9  19
ENDBRANCH   5  17
ENDBRANCH   1   7
BRANCH   2  24
ATOM     24  C   LIG    1       -5.720  -1.143   4.714  0.00  0.00    +0.320 C 
BRANCH  24  25
ATOM     25  C   LIG    1       -5.223  -0.206   5.784  0.00  0.00    -0.100 A 
ATOM     26  C   LIG    1       -5.821  -0.198   7.028  0.00  0.00    +0.040 A 
ATOM     27  C   LIG    1       -5.366   0.662   8.012  0.00  0.00    +0.020 A 
ATOM     28  C   LIG    1       -4.311   1.519   7.755  0.00  0.00    +0.030 A 
ATOM     29  C   LIG    1       -3.703   1.516   6.516  0.00  0.00    +0.030 A 
ATOM     30  C   LIG    1       -4.160   0.655   5.520  0.00  0.00    -0.040 A 
BRANCH  30  31
ATOM     31  C   LIG    1       -3.513   0.652   4.184  0.00  0.00    -0.030 A 
ATOM     32  C   LIG    1       -4.272   0.888   3.039  0.00  0.00    +0.030 A 
ATOM     33  C   LIG    1       -3.665   0.883   1.800  0.00  0.00    +0.040 A 
ATOM     34  C   LIG    1       -2.307   0.644   1.692  0.00  0.00    -0.120 A 
ATOM     35  C   LIG    1       -1.550   0.403   2.825  0.00  0.00    +0.020 A 
ATOM     36  C   LIG    1       -2.146   0.411   4.070  0.00  0.00    +0.030 A 
BRANCH  34  37
ATOM     37  C   LIG    1       -1.650   0.639   0.336  0.00  0.00    +0.340 C 
BRANCH  37  38
ATOM     38  N   LIG    1       -1.190   1.991   0.012  0.00  0.00    -0.460 N 
ATOM     39  C   LIG    1        0.038   2.523   0.303  0.00  0.00    +0.110 A 
ATOM     40  C   LIG    1        0.041   3.781  -0.176  0.00  0.00    +0.150 A 
ATOM     41  N   LIG    1       -1.154   4.013  -0.740  0.00  0.00    -0.490 NA
ATOM     42  C   LIG    1       -1.897   2.947  -0.629  0.00  0.00    +0.390 A 
ENDBRANCH  37  38
ENDBRANCH  34  37
ENDBRANCH  30  31
ENDBRANCH  24  25
ENDBRANCH   2  24
TORSDOF 9
