REMARK  Name = ZINCpe00000bzag5.0
REMARK                            x       y       z     vdW  Elec       q    Type
REMARK                         _______ _______ _______ _____ _____    ______ ____
ROOT
ATOM      1  C   LIG    1        2.590   1.956  -7.073  0.00  0.00    +0.620 C 
ATOM      2  N   LIG    1        1.369   1.901  -6.506  0.00  0.00    -0.610 N 
ATOM      3  C   LIG    1        1.089   1.968  -5.060  0.00  0.00    +0.270 C 
ATOM      4  C   LIG    1       -0.281   1.264  -4.889  0.00  0.00    -0.030 C 
ATOM      5  C   LIG    1       -1.029   1.721  -6.169  0.00  0.00    +0.050 C 
ATOM      6  C   LIG    1        0.094   1.767  -7.227  0.00  0.00    +0.220 C 
ATOM      7  C   LIG    1        0.093   0.473  -8.043  0.00  0.00    +0.040 C 
ATOM      8  O   LIG    1        2.702   1.893  -8.282  0.00  0.00    -0.530 OA
ENDROOT
BRANCH   1  12
ATOM      9  N   LIG    1        5.032   2.287  -4.501  0.00  0.00    -0.280 N 
ATOM     10  C   LIG    1        5.881   2.286  -5.551  0.00  0.00    +0.160 A 
ATOM     11  C   LIG    1        5.133   2.164  -6.672  0.00  0.00    -0.020 A 
ATOM     12  C   LIG    1        3.792   2.094  -6.226  0.00  0.00    -0.020 A 
ATOM     13  N   LIG    1        3.819   2.179  -4.911  0.00  0.00    -0.260 NA
BRANCH   9  15
ATOM     14  C   LIG    1        4.697   3.571  -2.446  0.00  0.00    +0.040 C 
ATOM     15  C   LIG    1        5.435   2.399  -3.097  0.00  0.00    +0.310 C 
ENDBRANCH   9  15
ENDBRANCH   1  12
BRANCH   4  16
ATOM     16  C   LIG    1       -0.997   1.758  -3.630  0.00  0.00    +0.270 C 
BRANCH  16  17
ATOM     17  N   LIG    1       -0.288   1.272  -2.443  0.00  0.00    -0.730 N 
ATOM     18  H   LIG    1        0.507   0.726  -2.543  0.00  0.00    +0.400 HD
ATOM     19  C   LIG    1       -0.742   1.585  -1.213  0.00  0.00    +0.510 C 
ATOM     20  O   LIG    1       -1.736   2.268  -1.088  0.00  0.00    -0.530 OA
BRANCH  19  21
ATOM     21  C   LIG    1       -0.013   1.086   0.008  0.00  0.00    +0.140 C 
BRANCH  21  22
ATOM     22  C   LIG    1       -0.718   1.572   1.248  0.00  0.00    -0.230 A 
ATOM     23  C   LIG    1       -0.468   2.728   1.905  0.00  0.00    +0.240 A 
ATOM     24  N   LIG    1       -1.310   2.794   2.957  0.00  0.00    -0.480 N 
ATOM     25  H   LIG    1       -1.359   3.515   3.605  0.00  0.00    +0.440 HD
ATOM     26  N   LIG    1       -2.099   1.637   2.951  0.00  0.00    -0.290 NA
ATOM     27  C   LIG    1       -1.743   0.905   1.926  0.00  0.00    +0.250 A 
ENDBRANCH  21  22
ENDBRANCH  19  21
ENDBRANCH  16  17
ENDBRANCH   4  16
TORSDOF 6
