REMARK  Name = ZINCkj000005g5KI.0
REMARK                            x       y       z     vdW  Elec       q    Type
REMARK                         _______ _______ _______ _____ _____    ______ ____
ROOT
ATOM      1  C   LIG    1        2.338   1.393  -0.013  0.00  0.00    -0.200 A 
ATOM      2  C   LIG    1        2.387  -0.010  -0.021  0.00  0.00    +0.160 A 
ATOM      3  C   LIG    1        1.207  -0.704  -0.013  0.00  0.00    -0.030 A 
ATOM      4  C   LIG    1        0.002  -0.004   0.002  0.00  0.00    +0.320 A 
ATOM      5  N   LIG    1       -0.016   1.322   0.009  0.00  0.00    -0.530 NA
ATOM      6  C   LIG    1        1.095   2.028   0.003  0.00  0.00    +0.320 A 
ENDROOT
BRANCH   4   7
ATOM      7  N   LIG    1       -1.193  -0.703   0.009  0.00  0.00    -0.480 N 
ATOM      8  C   LIG    1       -1.248  -1.591   1.087  0.00  0.00    +0.200 C 
ATOM      9  C   LIG    1       -2.464  -2.537   0.989  0.00  0.00    +0.040 C 
ATOM     10  C   LIG    1       -3.704  -1.788   1.405  0.00  0.00    +0.010 C 
ATOM     11  C   LIG    1       -4.440  -1.149   0.210  0.00  0.00    +0.040 C 
ATOM     12  C   LIG    1       -3.463  -0.514  -0.793  0.00  0.00    -0.010 C 
ATOM     13  C   LIG    1       -2.344   0.216  -0.094  0.00  0.00    +0.220 C 
BRANCH  12  14
ATOM     14  C   LIG    1       -4.228   0.474  -1.677  0.00  0.00    +0.280 C 
BRANCH  14  15
ATOM     15  N   LIG    1       -3.331   0.998  -2.716  0.00  0.00    -0.640 N 
ATOM     16  H   LIG    1       -2.552   1.469  -2.281  0.00  0.00    +0.430 HD
ATOM     17  H   LIG    1       -3.835   1.649  -3.299  0.00  0.00    +0.440 HD
ATOM     18  H   LIG    1       -2.990   0.235  -3.281  0.00  0.00    +0.440 HD
ENDBRANCH  14  15
ENDBRANCH  12  14
ENDBRANCH   4   7
BRANCH   1  21
ATOM     19  N   LIG    1        3.526   3.531  -0.013  0.00  0.00    -0.730 N 
ATOM     20  H   LIG    1        2.666   3.979  -0.002  0.00  0.00    +0.400 HD
ATOM     21  C   LIG    1        3.583   2.184  -0.021  0.00  0.00    +0.560 C 
ATOM     22  O   LIG    1        4.661   1.622  -0.035  0.00  0.00    -0.530 OA
BRANCH  19  24
ATOM     23  C   LIG    1        4.418   5.808  -0.010  0.00  0.00    +0.030 C 
ATOM     24  C   LIG    1        4.762   4.317  -0.021  0.00  0.00    +0.250 C 
ENDBRANCH  19  24
ENDBRANCH   1  21
TORSDOF 5
