REMARK  Name = ZINCkj000005k9cX.1
REMARK                            x       y       z     vdW  Elec       q    Type
REMARK                         _______ _______ _______ _____ _____    ______ ____
ROOT
ATOM      1  C   LIG    1       -3.012   5.797   1.462  0.00  0.00    +0.150 C 
ATOM      2  C   LIG    1       -2.167   7.066   1.611  0.00  0.00    +0.070 C 
ATOM      3  C   LIG    1       -3.094   8.276   1.745  0.00  0.00    +0.250 C 
ATOM      4  N   LIG    1       -3.949   8.114   2.928  0.00  0.00    -0.390 N 
ATOM      5  C   LIG    1       -4.812   6.939   2.761  0.00  0.00    +0.260 C 
ATOM      6  H   LIG    1       -3.370   7.991   3.745  0.00  0.00    +0.420 HD
ATOM      7  C   LIG    1       -3.951   5.677   2.666  0.00  0.00    +0.060 C 
ENDROOT
BRANCH   1   8
ATOM      8  N   LIG    1       -2.130   4.623   1.410  0.00  0.00    -0.680 NA
ATOM      9  H   LIG    1       -2.591   3.807   1.782  0.00  0.00    +0.360 HD
BRANCH   8  10
ATOM     10  C   LIG    1       -1.656   4.382   0.040  0.00  0.00    +0.280 C 
BRANCH  10  13
ATOM     11  C   LIG    1       -2.583   1.394   0.020  0.00  0.00    +0.110 C 
ATOM     12  C   LIG    1       -1.157   1.881   0.017  0.00  0.00    -0.230 A 
ATOM     13  C   LIG    1       -0.756   3.173   0.025  0.00  0.00    +0.080 A 
ATOM     14  N   LIG    1        0.593   3.186   0.013  0.00  0.00    -0.460 N 
ATOM     15  H   LIG    1        1.156   3.976   0.012  0.00  0.00    +0.440 HD
ATOM     16  N   LIG    1        1.037   1.857   0.002  0.00  0.00    -0.280 NA
ATOM     17  C   LIG    1       -0.013   1.076   0.008  0.00  0.00    +0.240 A 
ENDBRANCH  10  13
ENDBRANCH   8  10
ENDBRANCH   1   8
BRANCH   4  18
ATOM     18  C   LIG    1       -4.781   9.312   3.095  0.00  0.00    +0.270 C 
BRANCH  18  19
ATOM     19  C   LIG    1       -3.887  10.517   3.393  0.00  0.00    -0.050 C 
ATOM     20  C   LIG    1       -4.732  11.806   3.497  0.00  0.00    +0.040 C 
ATOM     21  C   LIG    1       -4.496  12.295   4.943  0.00  0.00    +0.220 C 
ATOM     22  O   LIG    1       -3.227  11.720   5.324  0.00  0.00    -0.360 OA
ATOM     23  C   LIG    1       -3.237  10.377   4.788  0.00  0.00    +0.200 C 
ENDBRANCH  18  19
ENDBRANCH   4  18
TORSDOF 5
