REMARK  Name = ZINCkj000005k9cX.0
REMARK                            x       y       z     vdW  Elec       q    Type
REMARK                         _______ _______ _______ _____ _____    ______ ____
ROOT
ATOM      1  C   LIG    1        1.620   1.714  -2.350  0.00  0.00    +0.140 C 
ATOM      2  C   LIG    1        2.269   1.192  -1.064  0.00  0.00    +0.060 C 
ATOM      3  C   LIG    1        1.438   1.642   0.139  0.00  0.00    +0.250 C 
ATOM      4  N   LIG    1        0.076   1.107   0.025  0.00  0.00    -0.390 N 
ATOM      5  C   LIG    1       -0.578   1.659  -1.168  0.00  0.00    +0.250 C 
ATOM      6  H   LIG    1        0.116   0.101  -0.050  0.00  0.00    +0.420 HD
ATOM      7  C   LIG    1        0.176   1.210  -2.421  0.00  0.00    +0.070 C 
ENDROOT
BRANCH   1   8
ATOM      8  N   LIG    1        2.370   1.222  -3.513  0.00  0.00    -0.670 NA
ATOM      9  H   LIG    1        3.348   1.107  -3.291  0.00  0.00    +0.360 HD
BRANCH   8  10
ATOM     10  C   LIG    1        2.194   2.112  -4.668  0.00  0.00    +0.280 C 
BRANCH  10  17
ATOM     11  C   LIG    1        1.117   0.087  -6.854  0.00  0.00    +0.110 C 
ATOM     12  C   LIG    1        2.500   0.683  -6.804  0.00  0.00    -0.220 A 
ATOM     13  C   LIG    1        3.501   0.448  -7.684  0.00  0.00    +0.240 A 
ATOM     14  N   LIG    1        4.572   1.167  -7.290  0.00  0.00    -0.470 N 
ATOM     15  H   LIG    1        5.435   1.195  -7.732  0.00  0.00    +0.440 HD
ATOM     16  N   LIG    1        4.217   1.872  -6.133  0.00  0.00    -0.290 NA
ATOM     17  C   LIG    1        2.976   1.577  -5.839  0.00  0.00    +0.070 A 
ENDBRANCH  10  17
ENDBRANCH   8  10
ENDBRANCH   1   8
BRANCH   4  18
ATOM     18  C   LIG    1       -0.696   1.477   1.218  0.00  0.00    +0.270 C 
BRANCH  18  19
ATOM     19  C   LIG    1       -0.112   0.770   2.443  0.00  0.00    -0.050 C 
ATOM     20  C   LIG    1       -0.848   1.215   3.727  0.00  0.00    +0.030 C 
ATOM     21  C   LIG    1       -1.468  -0.090   4.275  0.00  0.00    +0.220 C 
ATOM     22  O   LIG    1       -0.647  -1.146   3.729  0.00  0.00    -0.360 OA
ATOM     23  C   LIG    1       -0.371  -0.750   2.365  0.00  0.00    +0.200 C 
ENDBRANCH  18  19
ENDBRANCH   4  18
TORSDOF 5
