REMARK  Name = ZINCrg00000xK9VA.0
REMARK                            x       y       z     vdW  Elec       q    Type
REMARK                         _______ _______ _______ _____ _____    ______ ____
ROOT
ATOM      1  C   LIG    1        0.209   5.558   3.176  0.00  0.00    +0.230 C 
ATOM      2  C   LIG    1        1.656   5.167   3.480  0.00  0.00    +0.010 C 
ATOM      3  C   LIG    1        2.404   6.378   4.042  0.00  0.00    +0.020 C 
ATOM      4  C   LIG    1        1.722   6.848   5.327  0.00  0.00    +0.010 C 
ATOM      5  C   LIG    1        0.274   7.239   5.023  0.00  0.00    +0.250 C 
ATOM      6  C   LIG    1       -0.474   6.028   4.462  0.00  0.00    +0.030 C 
ENDROOT
BRANCH   1   8
ATOM      7  C   LIG    1       -0.443   4.117   1.322  0.00  0.00    +0.530 C 
ATOM      8  N   LIG    1       -0.508   4.399   2.638  0.00  0.00    -0.730 N 
ATOM      9  H   LIG    1       -1.029   3.833   3.230  0.00  0.00    +0.400 HD
ATOM     10  O   LIG    1        0.280   4.768   0.598  0.00  0.00    -0.530 OA
BRANCH   7  11
ATOM     11  C   LIG    1       -1.268   2.994   0.750  0.00  0.00    -0.080 C 
ATOM     12  C   LIG    1       -1.150   2.987  -0.790  0.00  0.00    +0.050 C 
ATOM     13  C   LIG    1       -2.394   3.777  -1.268  0.00  0.00    +0.010 C 
ATOM     14  C   LIG    1       -3.492   3.328  -0.273  0.00  0.00    +0.020 C 
ATOM     15  C   LIG    1       -2.756   3.213   1.078  0.00  0.00    +0.020 C 
BRANCH  11  17
ATOM     16  C   LIG    1        0.663   1.419   0.931  0.00  0.00    +0.010 C 
ATOM     17  C   LIG    1       -0.798   1.654   1.320  0.00  0.00    +0.030 C 
ENDBRANCH  11  17
ENDBRANCH   7  11
ENDBRANCH   1   8
BRANCH   5  18
ATOM     18  N   LIG    1        0.258   8.323   4.037  0.00  0.00    -0.720 N 
ATOM     19  H   LIG    1        0.158   8.119   3.094  0.00  0.00    +0.400 HD
ATOM     20  C   LIG    1        0.383   9.603   4.441  0.00  0.00    +0.490 C 
ATOM     21  O   LIG    1        0.508   9.857   5.620  0.00  0.00    -0.520 OA
BRANCH  20  22
ATOM     22  C   LIG    1        0.367  10.717   3.427  0.00  0.00    +0.370 C 
BRANCH  22  23
ATOM     23  N   LIG    1        0.518  12.003   4.112  0.00  0.00    -0.610 N 
ATOM     24  C   LIG    1        1.782  12.695   4.417  0.00  0.00    +0.320 C 
ATOM     25  C   LIG    1        1.335  13.960   5.122  0.00  0.00    +0.530 C 
ATOM     26  N   LIG    1       -0.011  13.899   5.162  0.00  0.00    -0.680 N 
ATOM     27  H   LIG    1       -0.576  14.580   5.560  0.00  0.00    +0.430 HD
ATOM     28  O   LIG    1        2.041  14.843   5.560  0.00  0.00    -0.470 OA
ATOM     29  C   LIG    1       -0.471  12.785   4.581  0.00  0.00    +0.710 C 
ATOM     30  O   LIG    1       -1.652  12.509   4.490  0.00  0.00    -0.540 OA
ENDBRANCH  22  23
ENDBRANCH  20  22
ENDBRANCH   5  18
TORSDOF 6
