REMARK  Name = ZINCrD00000hQ7tE.0
REMARK                            x       y       z     vdW  Elec       q    Type
REMARK                         _______ _______ _______ _____ _____    ______ ____
ROOT
ATOM      1  C   LIG    1       -3.694   3.406   0.084  0.00  0.00    -0.060 C 
ATOM      2  C   LIG    1       -2.538   4.102   0.055  0.00  0.00    +0.120 C 
ENDROOT
BRANCH   1   4
ATOM      3  O   LIG    1       -4.996   5.331   0.090  0.00  0.00    -0.540 OA
ATOM      4  C   LIG    1       -4.974   4.114   0.102  0.00  0.00    +0.570 C 
ATOM      5  N   LIG    1       -6.128   3.419   0.131  0.00  0.00    -0.630 N 
ATOM      6  C   LIG    1       -7.556   3.887   0.160  0.00  0.00    +0.250 C 
ATOM      7  C   LIG    1       -8.129   3.110  -1.088  0.00  0.00    +0.030 C 
ATOM      8  C   LIG    1       -7.330   1.783  -1.078  0.00  0.00    +0.020 C 
ATOM      9  C   LIG    1       -8.092   3.131   1.413  0.00  0.00    +0.000 C 
ATOM     10  C   LIG    1       -7.297   1.810   1.407  0.00  0.00    +0.040 C 
ATOM     11  C   LIG    1       -6.384   1.939   0.150  0.00  0.00    +0.240 C 
BRANCH   9  12
ATOM     12  C   LIG    1       -7.800   3.926   2.687  0.00  0.00    +0.170 C 
BRANCH  12  13
ATOM     13  O   LIG    1       -8.402   3.272   3.806  0.00  0.00    -0.570 OA
ATOM     14  H   LIG    1       -8.257   3.721   4.649  0.00  0.00    +0.380 HD
ENDBRANCH  12  13
ENDBRANCH   9  12
ENDBRANCH   1   4
BRANCH   2  15
ATOM     15  C   LIG    1       -1.252   3.390   0.038  0.00  0.00    -0.040 A 
ATOM     16  C   LIG    1       -0.052   4.109   0.008  0.00  0.00    +0.060 A 
ATOM     17  C   LIG    1        1.151   3.438  -0.009  0.00  0.00    +0.060 A 
ATOM     18  C   LIG    1        1.175   2.049   0.004  0.00  0.00    +0.050 A 
ATOM     19  C   LIG    1       -0.015   1.328   0.034  0.00  0.00    +0.090 A 
ATOM     20  F   LIG    1        0.014  -0.023   0.046  0.00  0.00    -0.120 F 
ATOM     21  C   LIG    1       -1.224   1.990   0.045  0.00  0.00    +0.020 A 
BRANCH  18  22
ATOM     22  O   LIG    1        2.364   1.393  -0.013  0.00  0.00    -0.240 OA
BRANCH  22  23
ATOM     23  C   LIG    1        2.807   0.905  -1.201  0.00  0.00    +0.070 A 
ATOM     24  C   LIG    1        3.962   0.132  -1.260  0.00  0.00    +0.050 A 
ATOM     25  C   LIG    1        4.370  -0.349  -2.494  0.00  0.00    +0.020 A 
ATOM     26  C   LIG    1        3.630  -0.036  -3.618  0.00  0.00    +0.230 A 
ATOM     27  N   LIG    1        2.543   0.704  -3.529  0.00  0.00    -0.450 NA
ATOM     28  C   LIG    1        2.117   1.176  -2.374  0.00  0.00    +0.180 A 
ENDBRANCH  22  23
ENDBRANCH  18  22
ENDBRANCH   2  15
TORSDOF 6
