REMARK  Name = ZINCpe000000YRFR.0
REMARK                            x       y       z     vdW  Elec       q    Type
REMARK                         _______ _______ _______ _____ _____    ______ ____
ROOT
ATOM      1  N   LIG    1        0.187  -2.900   0.311  0.00  0.00    -0.720 N 
ATOM      2  H   LIG    1       -0.663  -2.443   0.210  0.00  0.00    +0.400 HD
ATOM      3  C   LIG    1        1.322  -2.188   0.455  0.00  0.00    +0.560 C 
ATOM      4  O   LIG    1        2.386  -2.760   0.582  0.00  0.00    -0.510 OA
ENDROOT
BRANCH   3   5
ATOM      5  C   LIG    1        1.271  -0.707   0.459  0.00  0.00    -0.060 A 
ATOM      6  C   LIG    1        0.056  -0.029   0.314  0.00  0.00    +0.000 A 
ATOM      7  C   LIG    1        0.051   1.352   0.323  0.00  0.00    +0.320 A 
ATOM      8  N   LIG    1        1.170   2.034   0.464  0.00  0.00    -0.490 NA
ATOM      9  C   LIG    1        2.342   1.435   0.604  0.00  0.00    +0.370 A 
ATOM     10  C   LIG    1        2.436   0.050   0.606  0.00  0.00    +0.060 A 
BRANCH   9  11
ATOM     11  N   LIG    1        3.499   2.207   0.751  0.00  0.00    -0.340 N 
ATOM     12  C   LIG    1        3.576   3.553   0.769  0.00  0.00    +0.520 A 
ATOM     13  N   LIG    1        4.832   3.884   0.925  0.00  0.00    -0.540 NA
ATOM     14  C   LIG    1        5.582   2.785   1.010  0.00  0.00    +0.450 A 
ATOM     15  N   LIG    1        4.811   1.734   0.915  0.00  0.00    -0.310 NA
ENDBRANCH   9  11
ENDBRANCH   3   5
BRANCH   1  16
ATOM     16  C   LIG    1        0.237  -4.364   0.307  0.00  0.00    +0.290 C 
BRANCH  16  17
ATOM     17  C   LIG    1       -1.177  -4.922   0.130  0.00  0.00    +0.070 C 
BRANCH  17  19
ATOM     18  O   LIG    1       -0.063  -6.999   0.253  0.00  0.00    -0.500 OA
ATOM     19  C   LIG    1       -1.126  -6.428   0.127  0.00  0.00    +0.520 C 
ATOM     20  N   LIG    1       -2.260  -7.141  -0.017  0.00  0.00    -0.670 N 
ATOM     21  H   LIG    1       -3.118  -6.688  -0.042  0.00  0.00    +0.420 HD
BRANCH  20  22
ATOM     22  C   LIG    1       -2.202  -8.530  -0.131  0.00  0.00    +0.190 A 
ATOM     23  C   LIG    1       -1.122  -9.152  -0.755  0.00  0.00    -0.030 A 
ATOM     24  C   LIG    1       -1.099 -10.529  -0.843  0.00  0.00    +0.280 A 
ATOM     25  N   LIG    1       -2.088 -11.254  -0.355  0.00  0.00    -0.500 NA
ATOM     26  C   LIG    1       -3.130 -10.702   0.238  0.00  0.00    +0.280 A 
ATOM     27  C   LIG    1       -3.226  -9.332   0.371  0.00  0.00    -0.060 A 
ENDBRANCH  20  22
ENDBRANCH  17  19
ENDBRANCH  16  17
ENDBRANCH   1  16
TORSDOF 6
