REMARK  Name = ZINCpe000000VIjx.0
REMARK                            x       y       z     vdW  Elec       q    Type
REMARK                         _______ _______ _______ _____ _____    ______ ____
ROOT
ATOM      1  C   LIG    1       -3.224   2.203   4.895  0.00  0.00    +0.520 C 
ATOM      2  O   LIG    1       -2.663   3.282   4.922  0.00  0.00    -0.560 OA
ENDROOT
BRANCH   1   6
ATOM      3  C   LIG    1       -5.924   1.198   7.802  0.00  0.00    +0.120 C 
ATOM      4  C   LIG    1       -6.599   1.164   6.431  0.00  0.00    +0.000 C 
ATOM      5  C   LIG    1       -5.605   1.562   5.321  0.00  0.00    +0.070 C 
ATOM      6  C   LIG    1       -4.238   1.855   5.953  0.00  0.00    -0.100 C 
ATOM      7  C   LIG    1       -3.811   0.614   6.723  0.00  0.00    +0.380 C 
ATOM      8  O   LIG    1       -2.790   0.016   6.480  0.00  0.00    -0.430 OA
ATOM      9  C   LIG    1       -4.386   2.999   6.963  0.00  0.00    +0.080 C 
ATOM     10  C   LIG    1       -4.769   0.183   7.824  0.00  0.00    +0.020 C 
ATOM     11  C   LIG    1       -5.371   2.598   8.069  0.00  0.00    +0.050 C 
BRANCH   3  13
ATOM     12  C   LIG    1       -7.453  -0.439   8.656  0.00  0.00    +0.200 C 
ATOM     13  O   LIG    1       -6.876   0.859   8.812  0.00  0.00    -0.370 OA
ENDBRANCH   3  13
ENDBRANCH   1   6
BRANCH   1  14
ATOM     14  N   LIG    1       -2.942   1.332   3.931  0.00  0.00    -0.670 NA
ATOM     15  C   LIG    1       -2.045   1.641   2.995  0.00  0.00    +0.490 A 
ATOM     16  C   LIG    1       -1.318   2.845   2.898  0.00  0.00    -0.100 A 
ATOM     17  C   LIG    1       -0.510   2.766   1.818  0.00  0.00    +0.360 A 
ATOM     18  N   LIG    1       -0.698   1.558   1.213  0.00  0.00    -0.370 N 
ATOM     19  N   LIG    1       -1.656   0.844   1.946  0.00  0.00    -0.470 N 
ATOM     20  H   LIG    1       -1.984  -0.047   1.749  0.00  0.00    +0.450 HD
BRANCH  18  21
ATOM     21  C   LIG    1       -0.013   1.086   0.008  0.00  0.00    +0.390 C 
BRANCH  21  22
ATOM     22  C   LIG    1       -0.742   1.585  -1.213  0.00  0.00    +0.480 C 
ATOM     23  N   LIG    1       -0.288   1.272  -2.443  0.00  0.00    -0.620 N 
ATOM     24  C   LIG    1        0.913   0.447  -2.593  0.00  0.00    +0.280 C 
ATOM     25  C   LIG    1       -0.997   1.758  -3.630  0.00  0.00    +0.300 C 
ATOM     26  O   LIG    1       -1.736   2.268  -1.088  0.00  0.00    -0.510 OA
ENDBRANCH  21  22
ENDBRANCH  18  21
ENDBRANCH   1  14
TORSDOF 5
