REMARK  Name = ZINCvU00000005hZ.0
REMARK                            x       y       z     vdW  Elec       q    Type
REMARK                         _______ _______ _______ _____ _____    ______ ____
ROOT
ATOM      1  C   LIG    1       -4.940   4.977   1.822  0.00  0.00    +0.230 A 
ATOM      2  N   LIG    1       -4.902   4.700   0.540  0.00  0.00    -0.240 NA
ATOM      3  N   LIG    1       -3.924   3.904   0.292  0.00  0.00    -0.280 NA
ATOM      4  C   LIG    1       -3.282   3.618   1.402  0.00  0.00    +0.160 A 
ATOM      5  N   LIG    1       -3.904   4.292   2.414  0.00  0.00    -0.440 N 
ENDROOT
BRANCH   1  12
ATOM      6 CL   LIG    1       -5.387   7.677   0.550  0.00  0.00    -0.040 Cl
ATOM      7  C   LIG    1       -6.188   7.128   1.989  0.00  0.00    +0.000 A 
ATOM      8  C   LIG    1       -7.098   7.945   2.630  0.00  0.00    +0.030 A 
ATOM      9  C   LIG    1       -7.737   7.508   3.776  0.00  0.00    +0.050 A 
ATOM     10  C   LIG    1       -7.468   6.252   4.290  0.00  0.00    +0.030 A 
ATOM     11  C   LIG    1       -6.565   5.423   3.657  0.00  0.00    +0.040 A 
ATOM     12  C   LIG    1       -5.913   5.858   2.502  0.00  0.00    -0.010 A 
ENDBRANCH   1  12
BRANCH   4  13
ATOM     13  S   LIG    1       -1.877   2.566   1.556  0.00  0.00    +0.050 S 
BRANCH  13  14
ATOM     14  C   LIG    1       -1.666   2.069  -0.172  0.00  0.00    +0.270 C 
BRANCH  14  15
ATOM     15  C   LIG    1       -0.486   1.138  -0.286  0.00  0.00    +0.190 A 
ATOM     16  N   LIG    1       -0.513  -0.167  -0.186  0.00  0.00    -0.440 NA
ATOM     17  C   LIG    1        0.767  -0.572  -0.361  0.00  0.00    +0.250 A 
ATOM     18  N   LIG    1        1.488   0.504  -0.555  0.00  0.00    -0.350 NA
ATOM     19  O   LIG    1        0.783   1.490  -0.515  0.00  0.00    +0.100 OA
BRANCH  17  20
ATOM     20  C   LIG    1        1.257  -1.965  -0.337  0.00  0.00    +0.040 A 
ATOM     21  C   LIG    1        2.546  -2.360  -0.514  0.00  0.00    +0.020 A 
ATOM     22  C   LIG    1        2.558  -3.765  -0.412  0.00  0.00    -0.060 A 
ATOM     23  C   LIG    1        1.288  -4.154  -0.180  0.00  0.00    +0.220 A 
ATOM     24  O   LIG    1        0.507  -3.064  -0.130  0.00  0.00    -0.150 OA
ENDBRANCH  17  20
ENDBRANCH  14  15
ENDBRANCH  13  14
ENDBRANCH   4  13
BRANCH   5  25
ATOM     25  C   LIG    1       -3.543   4.287   3.834  0.00  0.00    +0.360 C 
BRANCH  25  26
ATOM     26  C   LIG    1       -2.587   5.418   4.114  0.00  0.00    -0.130 A 
ATOM     27  C   LIG    1       -1.225   5.219   3.991  0.00  0.00    +0.040 A 
ATOM     28  C   LIG    1       -0.349   6.258   4.243  0.00  0.00    +0.010 A 
ATOM     29  C   LIG    1       -0.835   7.494   4.627  0.00  0.00    +0.030 A 
ATOM     30  C   LIG    1       -2.197   7.692   4.754  0.00  0.00    +0.010 A 
ATOM     31  C   LIG    1       -3.073   6.654   4.497  0.00  0.00    +0.030 A 
ENDBRANCH  25  26
ENDBRANCH   5  25
TORSDOF 7
