REMARK  Name = ZINCpe00000MJII7.0
REMARK                            x       y       z     vdW  Elec       q    Type
REMARK                         _______ _______ _______ _____ _____    ______ ____
ROOT
ATOM      1  O   LIG    1       -2.880   0.586   3.674  0.00  0.00    -0.510 OA
ATOM      2  C   LIG    1       -2.283  -0.469   3.668  0.00  0.00    +0.510 C 
ATOM      3  N   LIG    1       -2.091  -1.142   4.820  0.00  0.00    -0.730 N 
ATOM      4  H   LIG    1       -1.613  -1.986   4.815  0.00  0.00    +0.400 HD
ENDROOT
BRANCH   3   5
ATOM      5  C   LIG    1       -2.604  -0.598   6.080  0.00  0.00    +0.330 C 
BRANCH   5   6
ATOM      6  C   LIG    1       -2.260  -1.535   7.209  0.00  0.00    -0.140 A 
ATOM      7  C   LIG    1       -3.137  -2.544   7.560  0.00  0.00    +0.060 A 
ATOM      8  C   LIG    1       -2.822  -3.407   8.591  0.00  0.00    -0.030 A 
ATOM      9  C   LIG    1       -1.627  -3.254   9.282  0.00  0.00    +0.170 A 
ATOM     10  C   LIG    1       -0.750  -2.237   8.930  0.00  0.00    +0.000 A 
ATOM     11  C   LIG    1       -1.069  -1.380   7.894  0.00  0.00    +0.060 A 
BRANCH   9  12
ATOM     12  N   LIG    1       -1.308  -4.124  10.331  0.00  0.00    -0.560 N 
ATOM     13  C   LIG    1       -2.215  -5.147  10.864  0.00  0.00    +0.260 C 
ATOM     14  C   LIG    1       -1.314  -6.117  11.664  0.00  0.00    +0.060 C 
ATOM     15  C   LIG    1       -0.130  -5.200  12.048  0.00  0.00    +0.070 C 
ATOM     16  C   LIG    1       -0.133  -4.125  10.983  0.00  0.00    +0.520 C 
ATOM     17  O   LIG    1        0.791  -3.373  10.753  0.00  0.00    -0.510 OA
ENDBRANCH   9  12
ENDBRANCH   5   6
ENDBRANCH   3   5
BRANCH   2  18
ATOM     18  C   LIG    1       -1.755  -1.029   2.372  0.00  0.00    +0.190 C 
BRANCH  18  19
ATOM     19  N   LIG    1       -2.091  -0.116   1.271  0.00  0.00    -0.470 NA
ATOM     20  C   LIG    1       -3.533  -0.207   0.920  0.00  0.00    +0.180 C 
ATOM     21  C   LIG    1       -3.621   0.343  -0.519  0.00  0.00    +0.180 C 
ATOM     22  C   LIG    1       -2.209   0.146  -1.110  0.00  0.00    +0.040 C 
ATOM     23  F   LIG    1       -3.956   1.701  -0.501  0.00  0.00    -0.200 F 
ATOM     24  C   LIG    1       -1.387  -0.505   0.022  0.00  0.00    +0.130 C 
BRANCH  24  25
ATOM     25  C   LIG    1        0.043   0.037   0.024  0.00  0.00    +0.190 C 
BRANCH  25  26
ATOM     26  O   LIG    1        0.010   1.466   0.036  0.00  0.00    -0.550 OA
ATOM     27  H   LIG    1        0.884   1.879   0.037  0.00  0.00    +0.380 HD
ENDBRANCH  25  26
ENDBRANCH  24  25
ENDBRANCH  18  19
ENDBRANCH   2  18
TORSDOF 7
