REMARK  Name = ZINCrH00000tj0Ld.0
REMARK                            x       y       z     vdW  Elec       q    Type
REMARK                         _______ _______ _______ _____ _____    ______ ____
ROOT
ATOM      1  C   LIG    1        1.103   2.030   0.033  0.00  0.00    +0.350 A 
ATOM      2  N   LIG    1        2.295   1.481   0.019  0.00  0.00    -0.510 NA
ATOM      3  C   LIG    1        2.429   0.146   0.002  0.00  0.00    +0.170 A 
ATOM      4  C   LIG    1        3.685  -0.474  -0.013  0.00  0.00    +0.040 A 
ATOM      5  C   LIG    1        3.764  -1.835  -0.030  0.00  0.00    +0.070 A 
ATOM      6  C   LIG    1        2.615  -2.620  -0.033  0.00  0.00    +0.020 A 
ATOM      7  C   LIG    1        1.376  -2.049  -0.018  0.00  0.00    +0.070 A 
ATOM      8  C   LIG    1        1.261  -0.655  -0.000  0.00  0.00    -0.140 A 
ATOM      9  C   LIG    1        0.002  -0.004   0.015  0.00  0.00    +0.180 A 
ATOM     10  N   LIG    1       -0.016   1.323   0.031  0.00  0.00    -0.520 NA
ENDROOT
BRANCH   1  11
ATOM     11  C   LIG    1        1.004   3.534   0.052  0.00  0.00    +0.290 C 
BRANCH  11  13
ATOM     12  C   LIG    1        2.258   3.731   2.114  0.00  0.00    +0.190 C 
ATOM     13  N   LIG    1        0.981   4.005   1.443  0.00  0.00    -0.540 NA
ATOM     14  C   LIG    1        0.648   5.435   1.508  0.00  0.00    +0.200 C 
ENDBRANCH  11  13
ENDBRANCH   1  11
BRANCH   9  15
ATOM     15  S   LIG    1       -1.497  -0.929   0.014  0.00  0.00    +0.070 S 
BRANCH  15  16
ATOM     16  C   LIG    1       -2.701   0.422   0.038  0.00  0.00    +0.120 C 
BRANCH  16  17
ATOM     17  C   LIG    1       -4.096  -0.148   0.040  0.00  0.00    +0.540 C 
ATOM     18  N   LIG    1       -5.161   0.677   0.057  0.00  0.00    -0.660 N 
ATOM     19  H   LIG    1       -5.031   1.635   0.135  0.00  0.00    +0.420 HD
ATOM     20  O   LIG    1       -4.260  -1.350   0.027  0.00  0.00    -0.500 OA
BRANCH  18  21
ATOM     21  C   LIG    1       -6.455   0.151  -0.039  0.00  0.00    +0.160 A 
ATOM     22  C   LIG    1       -6.755  -1.070   0.549  0.00  0.00    +0.060 A 
ATOM     23  C   LIG    1       -8.032  -1.588   0.454  0.00  0.00    +0.050 A 
ATOM     24  C   LIG    1       -9.014  -0.890  -0.226  0.00  0.00    +0.060 A 
ATOM     25  C   LIG    1       -8.719   0.330  -0.815  0.00  0.00    +0.090 A 
ATOM     26  F   LIG    1       -9.679   1.010  -1.479  0.00  0.00    -0.120 F 
ATOM     27  F   LIG    1      -10.263  -1.399  -0.318  0.00  0.00    -0.130 F 
ATOM     28  C   LIG    1       -7.443   0.854  -0.717  0.00  0.00    +0.000 A 
ENDBRANCH  18  21
ENDBRANCH  16  17
ENDBRANCH  15  16
ENDBRANCH   9  15
TORSDOF 6
