REMARK  Name = ZINCpk000005dWRq.0
REMARK                            x       y       z     vdW  Elec       q    Type
REMARK                         _______ _______ _______ _____ _____    ______ ____
ROOT
ATOM      1  C   LIG    1       -1.361  -0.549  -0.064  0.00  0.00    +0.190 C 
ENDROOT
BRANCH   1   6
ATOM      2  C   LIG    1        1.718   3.705  -2.145  0.00  0.00    +0.190 C 
ATOM      3  N   LIG    1        0.756   2.629  -1.872  0.00  0.00    -0.550 NA
ATOM      4  C   LIG    1        1.438   1.334  -1.740  0.00  0.00    +0.180 C 
ATOM      5  C   LIG    1        0.398   0.231  -1.536  0.00  0.00    +0.190 C 
ATOM      6  N   LIG    1       -0.399   0.528  -0.337  0.00  0.00    -0.510 NA
ATOM      7  C   LIG    1       -1.081   1.823  -0.469  0.00  0.00    +0.190 C 
ATOM      8  C   LIG    1       -0.040   2.926  -0.673  0.00  0.00    +0.190 C 
ENDBRANCH   1   6
BRANCH   1   9
ATOM      9  C   LIG    1       -0.625  -1.857   0.072  0.00  0.00    -0.090 A 
ATOM     10  C   LIG    1        0.527  -1.926   0.832  0.00  0.00    +0.050 A 
ATOM     11  C   LIG    1        1.199  -3.127   0.960  0.00  0.00    +0.000 A 
ATOM     12  C   LIG    1        0.725  -4.257   0.320  0.00  0.00    +0.010 A 
ATOM     13  C   LIG    1       -0.425  -4.187  -0.444  0.00  0.00    +0.000 A 
ATOM     14  C   LIG    1       -1.100  -2.986  -0.569  0.00  0.00    +0.010 A 
ENDBRANCH   1   9
BRANCH   1  15
ATOM     15  C   LIG    1       -2.097  -0.251   1.216  0.00  0.00    +0.530 C 
ATOM     16  N   LIG    1       -3.345  -0.725   1.402  0.00  0.00    -0.720 N 
ATOM     17  H   LIG    1       -3.769  -1.258   0.711  0.00  0.00    +0.400 HD
ATOM     18  O   LIG    1       -1.567   0.415   2.080  0.00  0.00    -0.500 OA
BRANCH  16  19
ATOM     19  C   LIG    1       -4.061  -0.436   2.647  0.00  0.00    +0.330 C 
ATOM     20  C   LIG    1       -5.589  -0.503   2.420  0.00  0.00    +0.060 C 
ATOM     21  C   LIG    1       -5.907  -1.963   2.806  0.00  0.00    +0.290 C 
ATOM     22  N   LIG    1       -4.854  -2.364   3.749  0.00  0.00    -0.480 N 
ATOM     23  C   LIG    1       -4.553  -3.294   4.684  0.00  0.00    +0.410 A 
ATOM     24  N   LIG    1       -3.366  -3.038   5.163  0.00  0.00    -0.490 NA
ATOM     25  C   LIG    1       -2.872  -1.947   4.560  0.00  0.00    +0.190 A 
ATOM     26  C   LIG    1       -3.789  -1.511   3.675  0.00  0.00    -0.060 A 
ENDBRANCH  16  19
ENDBRANCH   1  15
TORSDOF 4
