REMARK  Name = ZINCrD00000l9Fmo.0
REMARK                            x       y       z     vdW  Elec       q    Type
REMARK                         _______ _______ _______ _____ _____    ______ ____
ROOT
ATOM      1  C   LIG    1        3.458   5.918   0.501  0.00  0.00    +0.520 C 
ATOM      2  N   LIG    1        3.544   7.259   0.608  0.00  0.00    -0.610 N 
ATOM      3  C   LIG    1        2.453   8.126   0.138  0.00  0.00    +0.280 C 
ATOM      4  C   LIG    1        2.086   9.096   1.272  0.00  0.00    +0.170 C 
ATOM      5  N   LIG    1        3.295   9.804   1.715  0.00  0.00    -0.530 NA
ATOM      6  C   LIG    1        4.281   8.873   2.280  0.00  0.00    +0.170 C 
ATOM      7  C   LIG    1        4.735   7.894   1.193  0.00  0.00    +0.300 C 
ATOM      8  O   LIG    1        4.369   5.218   0.889  0.00  0.00    -0.510 OA
ENDROOT
BRANCH   1  10
ATOM      9  C   LIG    1        2.120   5.688  -1.574  0.00  0.00    +0.060 C 
ATOM     10  C   LIG    1        2.228   5.288  -0.101  0.00  0.00    +0.170 C 
BRANCH  10  11
ATOM     11  O   LIG    1        2.322   3.866   0.001  0.00  0.00    -0.280 OA
BRANCH  11  12
ATOM     12  C   LIG    1        1.155   3.169   0.007  0.00  0.00    +0.140 A 
ATOM     13  C   LIG    1       -0.048   3.828  -0.196  0.00  0.00    -0.060 A 
ATOM     14  C   LIG    1       -1.233   3.118  -0.190  0.00  0.00    +0.070 A 
ATOM     15  C   LIG    1       -1.221   1.751   0.025  0.00  0.00    -0.070 A 
ATOM     16  C   LIG    1       -0.021   1.091   0.222  0.00  0.00    +0.070 A 
ATOM     17 CL   LIG    1       -2.712   0.862   0.040  0.00  0.00    -0.070 Cl
ATOM     18  C   LIG    1        1.166   1.798   0.217  0.00  0.00    +0.010 A 
ENDBRANCH  11  12
ENDBRANCH  10  11
ENDBRANCH   1  10
BRANCH   5  19
ATOM     19  C   LIG    1        2.962  10.865   2.675  0.00  0.00    +0.230 C 
BRANCH  19  20
ATOM     20  C   LIG    1        2.147  11.928   1.985  0.00  0.00    -0.050 A 
ATOM     21  C   LIG    1        2.781  12.999   1.381  0.00  0.00    +0.040 A 
ATOM     22  C   LIG    1        2.042  13.974   0.744  0.00  0.00    +0.060 A 
ATOM     23  C   LIG    1        0.648  13.883   0.718  0.00  0.00    -0.030 A 
ATOM     24  C   LIG    1        0.014  12.802   1.334  0.00  0.00    +0.060 A 
ATOM     25  C   LIG    1        0.766  11.832   1.964  0.00  0.00    +0.010 A 
BRANCH  23  26
ATOM     26  C   LIG    1       -0.126  14.893   0.063  0.00  0.00    +0.250 C 
ATOM     27  N   LIG    1       -0.741  15.695  -0.458  0.00  0.00    -0.410 NA
ENDBRANCH  23  26
ENDBRANCH  19  20
ENDBRANCH   5  19
TORSDOF 6
