REMARK  Name = ZINCpe00000MJJzY.0
REMARK                            x       y       z     vdW  Elec       q    Type
REMARK                         _______ _______ _______ _____ _____    ______ ____
ROOT
ATOM      1  C   LIG    1        2.665  -1.105   0.924  0.00  0.00    +0.260 C 
ATOM      2  C   LIG    1        3.094  -1.334   2.385  0.00  0.00    +0.290 C 
ATOM      3  N   LIG    1        4.003  -2.368   1.849  0.00  0.00    -0.640 N 
ATOM      4  C   LIG    1        4.576  -3.477   2.358  0.00  0.00    +0.580 C 
ATOM      5  O   LIG    1        5.302  -4.162   1.661  0.00  0.00    -0.540 OA
ATOM      6  C   LIG    1        4.029  -1.702   0.532  0.00  0.00    +0.280 C 
ENDROOT
BRANCH   1  10
ATOM      7  C   LIG    1        1.428   2.356  -0.042  0.00  0.00    +0.000 C 
ATOM      8  C   LIG    1        2.873   2.621   0.442  0.00  0.00    +0.090 C 
ATOM      9  C   LIG    1        3.328   1.288   0.996  0.00  0.00    +0.520 C 
ATOM     10  N   LIG    1        2.515   0.308   0.568  0.00  0.00    -0.600 N 
ATOM     11  O   LIG    1        4.287   1.129   1.721  0.00  0.00    -0.520 OA
ATOM     12  C   LIG    1        1.457   0.834  -0.303  0.00  0.00    +0.310 C 
BRANCH   7  16
ATOM     13  C   LIG    1       -0.718   4.319   2.447  0.00  0.00    +0.290 C 
ATOM     14  N   LIG    1        0.254   3.984   1.403  0.00  0.00    -0.730 N 
ATOM     15  H   LIG    1        0.773   4.686   0.981  0.00  0.00    +0.400 HD
ATOM     16  C   LIG    1        0.428   2.701   1.031  0.00  0.00    +0.520 C 
ATOM     17  O   LIG    1       -0.221   1.823   1.560  0.00  0.00    -0.530 OA
ENDBRANCH   7  16
ENDBRANCH   1  10
BRANCH   4  18
ATOM     18  C   LIG    1        4.326  -3.857   3.750  0.00  0.00    -0.090 C 
ATOM     19  C   LIG    1        4.800  -5.027   4.224  0.00  0.00    +0.020 C 
ATOM     20  C   LIG    1        5.447  -6.013   3.287  0.00  0.00    +0.110 C 
BRANCH  19  21
ATOM     21  C   LIG    1        4.685  -5.340   5.658  0.00  0.00    -0.070 A 
ATOM     22  C   LIG    1        5.378  -4.576   6.602  0.00  0.00    +0.030 A 
ATOM     23  C   LIG    1        5.262  -4.873   7.944  0.00  0.00    +0.010 A 
ATOM     24  C   LIG    1        4.469  -5.929   8.356  0.00  0.00    +0.010 A 
ATOM     25  C   LIG    1        3.784  -6.694   7.428  0.00  0.00    +0.010 A 
ATOM     26  C   LIG    1        3.886  -6.406   6.083  0.00  0.00    +0.030 A 
ENDBRANCH  19  21
ENDBRANCH   4  18
TORSDOF 4
