REMARK  Name = ZINCrH000004qZkq.0
REMARK                            x       y       z     vdW  Elec       q    Type
REMARK                         _______ _______ _______ _____ _____    ______ ____
ROOT
ATOM      1  C   LIG    1        3.248   0.767  -0.555  0.00  0.00    +0.380 C 
ENDROOT
BRANCH   1   8
ATOM      2  C   LIG    1        1.396  -0.890  -0.056  0.00  0.00    +0.340 A 
ATOM      3  N   LIG    1        0.174  -0.835   0.393  0.00  0.00    -0.260 NA
ATOM      4  N   LIG    1       -0.135   0.509   0.645  0.00  0.00    -0.470 N 
ATOM      5  H   LIG    1       -0.979   0.850   0.982  0.00  0.00    +0.470 HD
ATOM      6  C   LIG    1        0.951   1.242   0.327  0.00  0.00    +0.480 A 
ATOM      7  S   LIG    1        1.095   2.943   0.452  0.00  0.00    -0.560 S 
ATOM      8  N   LIG    1        1.904   0.393  -0.107  0.00  0.00    -0.480 N 
BRANCH   2  13
ATOM      9  C   LIG    1        4.204  -5.680  -1.575  0.00  0.00    +0.100 C 
ATOM     10  C   LIG    1        3.469  -4.426  -1.177  0.00  0.00    -0.050 A 
ATOM     11  C   LIG    1        2.372  -4.507  -0.339  0.00  0.00    +0.020 A 
ATOM     12  C   LIG    1        1.694  -3.363   0.029  0.00  0.00    +0.080 A 
ATOM     13  C   LIG    1        2.118  -2.122  -0.447  0.00  0.00    -0.050 A 
ATOM     14  C   LIG    1        3.222  -2.047  -1.296  0.00  0.00    +0.030 A 
ATOM     15  C   LIG    1        3.895  -3.198  -1.652  0.00  0.00    +0.020 A 
ENDBRANCH   2  13
ENDBRANCH   1   8
BRANCH   1  16
ATOM     16  C   LIG    1        3.209   1.122  -2.019  0.00  0.00    +0.500 C 
ATOM     17  N   LIG    1        4.338   1.500  -2.651  0.00  0.00    -0.670 N 
ATOM     18  H   LIG    1        5.188   1.471  -2.184  0.00  0.00    +0.420 HD
ATOM     19  O   LIG    1        2.162   1.068  -2.628  0.00  0.00    -0.490 OA
BRANCH  17  20
ATOM     20  C   LIG    1        4.284   1.933  -3.980  0.00  0.00    +0.160 A 
ATOM     21  C   LIG    1        5.341   1.679  -4.824  0.00  0.00    +0.010 A 
ATOM     22  C   LIG    1        5.279   2.112  -6.158  0.00  0.00    -0.080 A 
ATOM     23  C   LIG    1        6.336   1.869  -7.056  0.00  0.00    +0.080 A 
ATOM     24  C   LIG    1        6.210   2.324  -8.338  0.00  0.00    -0.030 A 
ATOM     25  C   LIG    1        5.059   3.007  -8.723  0.00  0.00    +0.290 A 
ATOM     26  N   LIG    1        4.078   3.233  -7.884  0.00  0.00    -0.470 NA
ATOM     27  C   LIG    1        4.136   2.814  -6.615  0.00  0.00    +0.120 A 
ATOM     28  C   LIG    1        3.078   3.061  -5.723  0.00  0.00    +0.070 A 
ATOM     29  C   LIG    1        3.158   2.627  -4.438  0.00  0.00    +0.040 A 
ENDBRANCH  17  20
ENDBRANCH   1  16
TORSDOF 4
