REMARK  Name = ZINCrD00000F5Lo6.0
REMARK                            x       y       z     vdW  Elec       q    Type
REMARK                         _______ _______ _______ _____ _____    ______ ____
ROOT
ATOM      1  C   LIG    1        1.584   5.784  -0.561  0.00  0.00    -0.660 A 
ATOM      2  C   LIG    1        1.669   6.715   0.458  0.00  0.00    +0.150 A 
ATOM      3  C   LIG    1        2.399   7.874   0.277  0.00  0.00    -0.030 A 
ATOM      4  C   LIG    1        3.038   8.108  -0.933  0.00  0.00    +0.200 A 
ATOM      5  C   LIG    1        2.946   7.174  -1.956  0.00  0.00    +0.000 A 
ATOM      6  C   LIG    1        2.220   6.015  -1.768  0.00  0.00    +0.140 A 
ENDROOT
BRANCH   4   7
ATOM      7  N   LIG    1        3.774   9.284  -1.121  0.00  0.00    -0.680 N 
ATOM      8  H   LIG    1        4.252   9.681  -0.376  0.00  0.00    +0.420 HD
ATOM      9  C   LIG    1        3.818   9.864  -2.336  0.00  0.00    +0.510 C 
ATOM     10  O   LIG    1        3.138   9.428  -3.241  0.00  0.00    -0.500 OA
BRANCH   9  11
ATOM     11  C   LIG    1        4.712  11.055  -2.571  0.00  0.00    +0.120 C 
BRANCH  11  12
ATOM     12  C   LIG    1        4.577  11.509  -4.001  0.00  0.00    -0.070 A 
ATOM     13  C   LIG    1        5.411  10.990  -4.973  0.00  0.00    +0.040 A 
ATOM     14  C   LIG    1        5.285  11.403  -6.286  0.00  0.00    +0.030 A 
ATOM     15  C   LIG    1        4.331  12.345  -6.626  0.00  0.00    -0.030 A 
ATOM     16  C   LIG    1        3.499  12.869  -5.652  0.00  0.00    +0.030 A 
ATOM     17 CL   LIG    1        4.177  12.871  -8.273  0.00  0.00    -0.070 Cl
ATOM     18  C   LIG    1        3.623  12.451  -4.340  0.00  0.00    +0.040 A 
ENDBRANCH  11  12
ENDBRANCH   9  11
ENDBRANCH   4   7
BRANCH   1  19
ATOM     19  S   LIG    1        0.657   4.305  -0.325  0.00  0.00    +2.640 S 
ATOM     20  O   LIG    1       -0.285   4.581   0.702  0.00  0.00    -0.980 OA
ATOM     21  O   LIG    1        0.284   3.853  -1.620  0.00  0.00    -0.980 OA
BRANCH  19  28
ATOM     22  C   LIG    1       -1.156   2.281   0.207  0.00  0.00    +0.310 C 
ATOM     23  N   LIG    1        0.056   1.459   0.162  0.00  0.00    -0.640 N 
ATOM     24  C   LIG    1        0.077   0.019  -0.118  0.00  0.00    +0.260 C 
ATOM     25  C   LIG    1        1.550  -0.428  -0.022  0.00  0.00    +0.060 C 
ATOM     26  C   LIG    1        2.219   0.757   0.711  0.00  0.00    +0.140 C 
ATOM     27  C   LIG    1        1.324   1.932   0.368  0.00  0.00    +0.530 C 
ATOM     28  N   LIG    1        1.695   3.168   0.285  0.00  0.00    -0.980 NA
ENDBRANCH  19  28
ENDBRANCH   1  19
TORSDOF 5
