REMARK  Name = ZINCzw0000000bQv.0
REMARK                            x       y       z     vdW  Elec       q    Type
REMARK                         _______ _______ _______ _____ _____    ______ ____
ROOT
ATOM      1  N   LIG    1       -1.563   1.319   8.957  0.00  0.00    -0.610 N 
ATOM      2  C   LIG    1       -2.749   1.916   8.724  0.00  0.00    +0.600 C 
ATOM      3  O   LIG    1       -2.824   3.129   8.698  0.00  0.00    -0.490 OA
ENDROOT
BRANCH   2   4
ATOM      4  C   LIG    1       -3.958   1.096   8.500  0.00  0.00    -0.100 A 
ATOM      5  C   LIG    1       -3.838  -0.250   8.150  0.00  0.00    +0.080 A 
ATOM      6  C   LIG    1       -4.971  -1.011   7.947  0.00  0.00    +0.010 A 
ATOM      7  C   LIG    1       -6.224  -0.440   8.079  0.00  0.00    +0.070 A 
ATOM      8  C   LIG    1       -6.350   0.895   8.420  0.00  0.00    -0.170 A 
ATOM      9  C   LIG    1       -5.226   1.666   8.631  0.00  0.00    +0.090 A 
BRANCH   8  10
ATOM     10  C   LIG    1       -7.720   1.508   8.562  0.00  0.00    +0.320 C 
BRANCH  10  11
ATOM     11  N   LIG    1       -8.149   2.052   7.267  0.00  0.00    -0.390 N 
ATOM     12  C   LIG    1       -7.264   3.160   6.883  0.00  0.00    +0.320 C 
ATOM     13  C   LIG    1       -9.530   2.542   7.375  0.00  0.00    +0.320 C 
ATOM     14  H   LIG    1       -8.103   1.328   6.566  0.00  0.00    +0.420 HD
ENDBRANCH  10  11
ENDBRANCH   8  10
ENDBRANCH   2   4
BRANCH   1  15
ATOM     15  C   LIG    1       -0.629   1.898   9.926  0.00  0.00    +0.300 C 
BRANCH  15  16
ATOM     16  C   LIG    1        0.298   2.884   9.213  0.00  0.00    +0.080 C 
BRANCH  16  17
ATOM     17  C   LIG    1        1.273   3.489  10.225  0.00  0.00    +0.040 C 
ATOM     18  N   LIG    1        0.848   3.612  11.621  0.00  0.00    -0.120 NA
ATOM     19  N   LIG    1        1.652   2.694  11.395  0.00  0.00    -0.120 NA
BRANCH  17  20
ATOM     20  C   LIG    1        2.277   4.503   9.673  0.00  0.00    +0.120 C 
BRANCH  20  21
ATOM     21  C   LIG    1        3.171   5.006  10.808  0.00  0.00    +0.160 C 
BRANCH  21  23
ATOM     22  C   LIG    1        4.907   6.760   9.854  0.00  0.00    +0.030 C 
ATOM     23  C   LIG    1        4.137   5.982  10.277  0.00  0.00    -0.200 C 
ENDBRANCH  21  23
ENDBRANCH  20  21
ENDBRANCH  17  20
ENDBRANCH  16  17
ENDBRANCH  15  16
ENDBRANCH   1  15
BRANCH   1  24
ATOM     24  C   LIG    1       -1.209   0.090   8.242  0.00  0.00    +0.360 C 
BRANCH  24  25
ATOM     25  C   LIG    1       -1.908   0.067   6.907  0.00  0.00    -0.020 A 
ATOM     26  N   LIG    1       -2.620   1.031   6.369  0.00  0.00    -0.260 NA
ATOM     27  N   LIG    1       -3.051   0.636   5.223  0.00  0.00    -0.230 N 
ATOM     28  H   LIG    1       -3.601   1.169   4.628  0.00  0.00    +0.470 HD
ATOM     29  N   LIG    1       -2.659  -0.564   4.978  0.00  0.00    -0.250 NA
ATOM     30  C   LIG    1       -1.936  -0.987   5.990  0.00  0.00    +0.190 A 
ENDBRANCH  24  25
BRANCH  24  31
ATOM     31  C   LIG    1       -1.636  -1.105   9.054  0.00  0.00    +0.500 C 
ATOM     32  N   LIG    1       -1.958  -2.259   8.436  0.00  0.00    -0.710 N 
ATOM     33  H   LIG    1       -1.868  -2.336   7.473  0.00  0.00    +0.400 HD
ATOM     34  O   LIG    1       -1.691  -1.029  10.263  0.00  0.00    -0.490 OA
BRANCH  32  35
ATOM     35  C   LIG    1       -2.445  -3.398   9.219  0.00  0.00    +0.100 C 
ATOM     36  C   LIG    1       -3.293  -4.444   8.492  0.00  0.00    +0.040 C 
ATOM     37  C   LIG    1       -1.505  -3.892  10.320  0.00  0.00    +0.100 C 
ATOM     38  C   LIG    1       -3.950  -3.481   9.485  0.00  0.00    +0.020 C 
ENDBRANCH  32  35
ENDBRANCH  24  31
ENDBRANCH   1  24
TORSDOF 13
