REMARK  Name = ZINCrD000000D7Gz.0
REMARK                            x       y       z     vdW  Elec       q    Type
REMARK                         _______ _______ _______ _____ _____    ______ ____
ROOT
ATOM      1  C   LIG    1        0.017   3.832  -0.346  0.00  0.00    -0.730 A 
ATOM      2  C   LIG    1       -1.221   3.218  -0.292  0.00  0.00    +0.180 A 
ATOM      3  C   LIG    1       -1.275   1.859  -0.009  0.00  0.00    -0.060 A 
ATOM      4  C   LIG    1       -0.102   1.169   0.219  0.00  0.00    +0.350 A 
ATOM      5  N   LIG    1        1.065   1.781   0.161  0.00  0.00    -0.520 NA
ATOM      6  C   LIG    1        1.159   3.074  -0.112  0.00  0.00    +0.400 A 
ENDROOT
BRANCH   6   7
ATOM      7  N   LIG    1        2.410   3.678  -0.163  0.00  0.00    -0.480 N 
ATOM      8  C   LIG    1        2.593   4.610   0.965  0.00  0.00    +0.200 C 
ATOM      9  C   LIG    1        3.860   4.165   1.725  0.00  0.00    +0.040 C 
ATOM     10  C   LIG    1        4.641   3.353   0.658  0.00  0.00    +0.040 C 
ATOM     11  C   LIG    1        3.489   2.668  -0.118  0.00  0.00    +0.240 C 
BRANCH  10  12
ATOM     12  C   LIG    1        5.537   2.331   1.307  0.00  0.00    -0.040 A 
ATOM     13  C   LIG    1        6.899   2.359   1.074  0.00  0.00    +0.010 A 
ATOM     14  C   LIG    1        7.723   1.422   1.669  0.00  0.00    +0.050 A 
ATOM     15  C   LIG    1        7.186   0.456   2.498  0.00  0.00    -0.020 A 
ATOM     16  C   LIG    1        5.822   0.426   2.732  0.00  0.00    +0.100 A 
ATOM     17  F   LIG    1        5.295  -0.518   3.542  0.00  0.00    -0.140 F 
ATOM     18  C   LIG    1        4.998   1.368   2.140  0.00  0.00    -0.020 A 
ENDBRANCH  10  12
ENDBRANCH   6   7
BRANCH   1  20
ATOM     19  O   LIG    1        0.342   6.210   0.536  0.00  0.00    -0.950 OA
ATOM     20  S   LIG    1        0.145   5.552  -0.708  0.00  0.00    +2.700 S 
ATOM     21  O   LIG    1        1.049   5.666  -1.799  0.00  0.00    -0.930 OA
BRANCH  20  22
ATOM     22  N   LIG    1       -1.331   6.046  -1.271  0.00  0.00    -1.000 NA
ATOM     23  C   LIG    1       -1.690   5.873  -2.686  0.00  0.00    +0.290 C 
ATOM     24  C   LIG    1       -3.025   5.118  -2.763  0.00  0.00    +0.010 C 
ATOM     25  C   LIG    1       -4.075   5.865  -1.936  0.00  0.00    +0.020 C 
ATOM     26  C   LIG    1       -3.633   5.913  -0.471  0.00  0.00    -0.000 C 
ATOM     27  C   LIG    1       -2.306   6.671  -0.367  0.00  0.00    +0.290 C 
ENDBRANCH  20  22
ENDBRANCH   1  20
TORSDOF 4
