REMARK  Name = ZINCpe00000FUpgK.0
REMARK                            x       y       z     vdW  Elec       q    Type
REMARK                         _______ _______ _______ _____ _____    ______ ____
ROOT
ATOM      1  O   LIG    1       -1.714   2.256   1.150  0.00  0.00    -0.520 OA
ATOM      2  C   LIG    1       -0.718   1.572   1.248  0.00  0.00    +0.500 C 
ATOM      3  N   LIG    1       -0.242   1.246   2.466  0.00  0.00    -0.620 N 
ATOM      4  C   LIG    1        0.962   0.412   2.607  0.00  0.00    +0.290 C 
ATOM      5  C   LIG    1        1.934   1.127   3.559  0.00  0.00    +0.190 C 
ATOM      6  N   LIG    1        1.241   1.435   4.818  0.00  0.00    -0.490 N 
ATOM      7  C   LIG    1        0.128   2.368   4.598  0.00  0.00    +0.190 C 
ATOM      8  C   LIG    1       -0.915   1.710   3.689  0.00  0.00    +0.300 C 
ENDROOT
BRANCH   6   9
ATOM      9  C   LIG    1        2.133   1.934   5.772  0.00  0.00    +0.100 A 
ATOM     10  C   LIG    1        1.899   3.168   6.364  0.00  0.00    +0.000 A 
ATOM     11  C   LIG    1        2.779   3.657   7.310  0.00  0.00    +0.020 A 
ATOM     12  C   LIG    1        3.899   2.923   7.659  0.00  0.00    +0.070 A 
ATOM     13  C   LIG    1        4.138   1.695   7.066  0.00  0.00    +0.010 A 
ATOM     14  F   LIG    1        4.761   3.405   8.581  0.00  0.00    -0.140 F 
ATOM     15  C   LIG    1        3.258   1.199   6.124  0.00  0.00    +0.030 A 
ENDBRANCH   6   9
BRANCH   2  16
ATOM     16  C   LIG    1       -0.013   1.086   0.008  0.00  0.00    +0.320 C 
BRANCH  16  17
ATOM     17  N   LIG    1       -0.721   1.571  -1.179  0.00  0.00    -0.590 N 
ATOM     18  C   LIG    1       -0.352   2.866  -1.772  0.00  0.00    +0.280 C 
ATOM     19  C   LIG    1       -1.463   3.875  -1.478  0.00  0.00    +0.020 C 
ATOM     20  C   LIG    1       -2.552   3.805  -2.533  0.00  0.00    +0.010 C 
ATOM     21  C   LIG    1       -3.333   2.503  -2.522  0.00  0.00    +0.060 C 
ATOM     22  C   LIG    1       -2.440   1.331  -2.938  0.00  0.00    +0.180 C 
ATOM     23  C   LIG    1       -1.693   0.834  -1.718  0.00  0.00    +0.490 C 
ATOM     24  O   LIG    1       -1.983  -0.236  -1.227  0.00  0.00    -0.530 OA
BRANCH  22  25
ATOM     25  O   LIG    1       -3.246   0.280  -3.473  0.00  0.00    -0.540 OA
ATOM     26  H   LIG    1       -2.743  -0.495  -3.757  0.00  0.00    +0.380 HD
ENDBRANCH  22  25
ENDBRANCH  16  17
ENDBRANCH   2  16
TORSDOF 4
