REMARK  Name = ZINCkj00000dDVVO.0
REMARK                            x       y       z     vdW  Elec       q    Type
REMARK                         _______ _______ _______ _____ _____    ______ ____
ROOT
ATOM      1  N   LIG    1        1.664  -3.958   1.146  0.00  0.00    -0.510 N 
ATOM      2  H   LIG    1        2.670  -3.975   1.220  0.00  0.00    +0.430 HD
ATOM      3  H   LIG    1        1.383  -4.400   0.284  0.00  0.00    +0.430 HD
ENDROOT
BRANCH   1   4
ATOM      4  C   LIG    1        1.196  -2.566   1.158  0.00  0.00    +0.270 C 
BRANCH   4   5
ATOM      5  C   LIG    1        1.806  -1.812  -0.025  0.00  0.00    +0.340 C 
BRANCH   5   9
ATOM      6  C   LIG    1        1.749   3.200   0.002  0.00  0.00    +0.130 C 
ATOM      7  C   LIG    1        1.307   1.759  -0.001  0.00  0.00    -0.220 A 
ATOM      8  C   LIG    1        2.119   0.677  -0.015  0.00  0.00    +0.230 A 
ATOM      9  N   LIG    1        1.339  -0.424  -0.013  0.00  0.00    -0.390 N 
ATOM     10  N   LIG    1        0.002  -0.004   0.002  0.00  0.00    -0.300 NA
ATOM     11  C   LIG    1       -0.016   1.304   0.009  0.00  0.00    +0.260 A 
ENDBRANCH   5   9
ENDBRANCH   4   5
ENDBRANCH   1   4
BRANCH   1  12
ATOM     12  C   LIG    1        1.078  -4.682   2.282  0.00  0.00    +0.330 C 
BRANCH  12  13
ATOM     13  C   LIG    1        1.559  -6.110   2.270  0.00  0.00    -0.120 A 
ATOM     14  C   LIG    1        0.841  -7.075   1.589  0.00  0.00    +0.030 A 
ATOM     15  C   LIG    1        1.284  -8.384   1.574  0.00  0.00    +0.140 A 
ATOM     16  C   LIG    1        2.441  -8.730   2.248  0.00  0.00    -0.630 A 
ATOM     17  C   LIG    1        3.156  -7.766   2.933  0.00  0.00    +0.140 A 
ATOM     18  C   LIG    1        2.715  -6.456   2.944  0.00  0.00    +0.030 A 
BRANCH  16  19
ATOM     19  S   LIG    1        3.003 -10.400   2.233  0.00  0.00    +2.490 S 
ATOM     20  O   LIG    1        4.406 -10.299   2.435  0.00  0.00    -0.930 OA
ATOM     21  O   LIG    1        2.473 -10.938   1.030  0.00  0.00    -0.930 OA
ATOM     22  C   LIG    1        2.206 -11.158   3.675  0.00  0.00    -0.250 C 
ENDBRANCH  16  19
ENDBRANCH  12  13
ENDBRANCH   1  12
TORSDOF 6
