REMARK  Name = ZINCnE000001GBfv.0
REMARK                            x       y       z     vdW  Elec       q    Type
REMARK                         _______ _______ _______ _____ _____    ______ ____
ROOT
ATOM      1  N   LIG    1       -1.609  -1.201  -1.369  0.00  0.00    -0.530 NA
ATOM      2  C   LIG    1       -1.981  -0.012  -2.148  0.00  0.00    +0.190 C 
ENDROOT
BRANCH   1   3
ATOM      3  C   LIG    1       -1.254  -0.837   0.009  0.00  0.00    +0.270 C 
BRANCH   3   6
ATOM      4  C   LIG    1        2.209   0.281  -0.018  0.00  0.00    +0.050 A 
ATOM      5  N   LIG    1        1.208  -0.534  -0.012  0.00  0.00    -0.450 NA
ATOM      6  C   LIG    1        0.002  -0.004   0.002  0.00  0.00    +0.090 A 
ATOM      7  C   LIG    1       -0.016   1.332   0.009  0.00  0.00    -0.080 A 
ATOM      8  S   LIG    1        1.653   1.897  -0.004  0.00  0.00    +0.150 S 
BRANCH   4   9
ATOM      9  C   LIG    1        3.658  -0.133  -0.034  0.00  0.00    +0.250 C 
ATOM     10  C   LIG    1        4.238   0.093  -1.431  0.00  0.00    +0.050 C 
BRANCH   9  11
ATOM     11  O   LIG    1        4.387   0.647   0.916  0.00  0.00    -0.380 OA
BRANCH  11  13
ATOM     12  C   LIG    1        6.211   0.896   2.482  0.00  0.00    +0.040 C 
ATOM     13  C   LIG    1        5.510  -0.029   1.485  0.00  0.00    +0.160 C 
ENDBRANCH  11  13
ENDBRANCH   9  11
ENDBRANCH   4   9
ENDBRANCH   3   6
ENDBRANCH   1   3
BRANCH   1  14
ATOM     14  C   LIG    1       -2.683  -2.202  -1.389  0.00  0.00    +0.300 C 
BRANCH  14  15
ATOM     15  C   LIG    1       -2.851  -2.730  -2.790  0.00  0.00    -0.050 A 
ATOM     16  C   LIG    1       -2.209  -3.790  -3.304  0.00  0.00    +0.000 A 
ATOM     17  C   LIG    1       -2.690  -3.923  -4.687  0.00  0.00    -0.230 A 
ATOM     18  C   LIG    1       -3.590  -2.909  -4.862  0.00  0.00    +0.010 A 
ATOM     19  C   LIG    1       -4.361  -2.622  -6.124  0.00  0.00    +0.180 C 
ATOM     20  O   LIG    1       -3.672  -2.219  -3.721  0.00  0.00    -0.190 OA
BRANCH  17  21
ATOM     21  C   LIG    1       -2.289  -4.935  -5.675  0.00  0.00    +0.550 C 
ATOM     22  O   LIG    1       -2.778  -4.923  -6.796  0.00  0.00    -0.690 OA
ATOM     23  O   LIG    1       -1.466  -5.790  -5.375  0.00  0.00    -0.690 OA
ENDBRANCH  17  21
ENDBRANCH  14  15
ENDBRANCH   1  14
TORSDOF 8
