REMARK  Name = ZINCkj000005hxqE.0
REMARK                            x       y       z     vdW  Elec       q    Type
REMARK                         _______ _______ _______ _____ _____    ______ ____
ROOT
ATOM      1  C   LIG    1       -2.560   6.791  -3.424  0.00  0.00    -0.030 C 
ATOM      2  C   LIG    1       -1.106   7.091  -2.973  0.00  0.00    +0.040 C 
ATOM      3  C   LIG    1       -0.677   5.776  -2.289  0.00  0.00    +0.250 C 
ATOM      4  N   LIG    1       -1.541   4.709  -2.814  0.00  0.00    -0.630 N 
ATOM      5  C   LIG    1       -1.497   3.412  -2.451  0.00  0.00    +0.550 C 
ATOM      6  O   LIG    1       -2.189   2.598  -3.024  0.00  0.00    -0.490 OA
ATOM      7  C   LIG    1       -2.459   5.292  -3.810  0.00  0.00    +0.290 C 
ENDROOT
BRANCH   5   8
ATOM      8  C   LIG    1       -0.588   2.974  -1.332  0.00  0.00    +0.220 C 
ATOM      9  O   LIG    1       -0.194   1.619  -1.546  0.00  0.00    -0.350 OA
ATOM     10  C   LIG    1        0.524   1.059  -0.441  0.00  0.00    +0.230 C 
ATOM     11  C   LIG    1       -0.450   0.857   0.722  0.00  0.00    +0.060 C 
ATOM     12  C   LIG    1       -1.247   2.118   0.944  0.00  0.00    -0.060 A 
ATOM     13  C   LIG    1       -1.923   2.276   2.143  0.00  0.00    +0.020 A 
ATOM     14  C   LIG    1       -2.668   3.415   2.377  0.00  0.00    +0.030 A 
ATOM     15  C   LIG    1       -2.738   4.402   1.412  0.00  0.00    +0.010 A 
ATOM     16  C   LIG    1       -2.062   4.247   0.218  0.00  0.00    +0.000 A 
ATOM     17  C   LIG    1       -1.314   3.104  -0.018  0.00  0.00    -0.120 A 
ENDBRANCH   5   8
BRANCH   1  18
ATOM     18  C   LIG    1       -2.945   7.643  -4.635  0.00  0.00    +0.280 C 
BRANCH  18  20
ATOM     19  C   LIG    1       -3.366   9.875  -5.405  0.00  0.00    +0.330 C 
ATOM     20  N   LIG    1       -2.995   9.057  -4.242  0.00  0.00    -0.510 N 
ATOM     21  H   LIG    1       -2.090   9.345  -3.904  0.00  0.00    +0.430 HD
ATOM     22  H   LIG    1       -3.682   9.180  -3.513  0.00  0.00    +0.430 HD
ENDBRANCH  18  20
ENDBRANCH   1  18
TORSDOF 3
