REMARK  Name = ZINCrH000004qZgf.0
REMARK                            x       y       z     vdW  Elec       q    Type
REMARK                         _______ _______ _______ _____ _____    ______ ____
ROOT
ATOM      1  C   LIG    1        4.712   7.368  -1.444  0.00  0.00    +0.080 C 
ENDROOT
BRANCH   1   2
ATOM      2  C   LIG    1        5.354   8.732  -1.442  0.00  0.00    +0.530 C 
ATOM      3  N   LIG    1        5.630   9.348  -2.608  0.00  0.00    -0.610 N 
ATOM      4  C   LIG    1        5.359   8.806  -3.952  0.00  0.00    +0.240 C 
ATOM      5  C   LIG    1        5.256  10.051  -4.869  0.00  0.00    +0.040 C 
ATOM      6  C   LIG    1        6.345  10.975  -4.262  0.00  0.00    +0.050 C 
ATOM      7  C   LIG    1        6.247  10.675  -2.751  0.00  0.00    +0.270 C 
ATOM      8  O   LIG    1        5.622   9.274  -0.391  0.00  0.00    -0.520 OA
BRANCH   7   9
ATOM      9  C   LIG    1        7.625  10.668  -2.142  0.00  0.00    -0.040 A 
ATOM     10  C   LIG    1        8.464   9.575  -2.297  0.00  0.00    -0.030 A 
ATOM     11  C   LIG    1        9.723   9.606  -1.728  0.00  0.00    +0.250 A 
ATOM     12  N   LIG    1       10.125  10.654  -1.037  0.00  0.00    -0.480 NA
ATOM     13  C   LIG    1        9.353  11.710  -0.865  0.00  0.00    +0.260 A 
ATOM     14  C   LIG    1        8.083  11.752  -1.409  0.00  0.00    -0.030 A 
ENDBRANCH   7   9
ENDBRANCH   1   2
BRANCH   1  15
ATOM     15  C   LIG    1        4.508   6.899  -0.002  0.00  0.00    +0.220 C 
BRANCH  15  19
ATOM     16  C   LIG    1        2.420   3.937   0.001  0.00  0.00    +0.210 A 
ATOM     17  N   LIG    1        3.631   3.432  -0.007  0.00  0.00    -0.280 NA
ATOM     18  N   LIG    1        4.490   4.390  -0.016  0.00  0.00    -0.280 NA
ATOM     19  C   LIG    1        3.866   5.535  -0.004  0.00  0.00    +0.160 A 
ATOM     20  O   LIG    1        2.547   5.279   0.007  0.00  0.00    -0.220 OA
BRANCH  16  25
ATOM     21  C   LIG    1       -2.513   0.974   0.019  0.00  0.00    +0.100 C 
ATOM     22  C   LIG    1       -1.221   1.750   0.017  0.00  0.00    -0.060 A 
ATOM     23  C   LIG    1       -0.013   1.076   0.008  0.00  0.00    +0.020 A 
ATOM     24  C   LIG    1        1.174   1.780   0.000  0.00  0.00    +0.080 A 
ATOM     25  C   LIG    1        1.153   3.176   0.008  0.00  0.00    -0.040 A 
ATOM     26  C   LIG    1       -0.069   3.849   0.023  0.00  0.00    +0.050 A 
ATOM     27  C   LIG    1       -1.248   3.133   0.031  0.00  0.00    +0.010 A 
ENDBRANCH  16  25
ENDBRANCH  15  19
ENDBRANCH   1  15
TORSDOF 5
