REMARK  Name = ZINCvU0000000AQC.0
REMARK                            x       y       z     vdW  Elec       q    Type
REMARK                         _______ _______ _______ _____ _____    ______ ____
ROOT
ATOM      1  N   LIG    1        0.335  -2.937  -0.017  0.00  0.00    -0.660 N 
ATOM      2  H   LIG    1       -0.563  -2.582   0.080  0.00  0.00    +0.410 HD
ATOM      3  C   LIG    1        0.526  -4.266  -0.134  0.00  0.00    +0.560 C 
ATOM      4  O   LIG    1        1.654  -4.718  -0.152  0.00  0.00    -0.510 OA
ENDROOT
BRANCH   1  12
ATOM      5  N   LIG    1        4.562   0.717   0.056  0.00  0.00    -0.540 N 
ATOM      6  C   LIG    1        3.957   1.716   0.750  0.00  0.00    +0.570 A 
ATOM      7  C   LIG    1        2.593   1.284   1.070  0.00  0.00    -0.160 A 
ATOM      8  C   LIG    1        1.469   1.766   1.720  0.00  0.00    +0.130 A 
ATOM      9  C   LIG    1        0.323   0.977   1.794  0.00  0.00    +0.010 A 
ATOM     10  C   LIG    1        0.241  -0.278   1.248  0.00  0.00    +0.070 A 
ATOM     11  C   LIG    1        1.356  -0.802   0.579  0.00  0.00    -0.040 A 
ATOM     12  C   LIG    1        1.427  -2.071  -0.035  0.00  0.00    +0.150 A 
ATOM     13  C   LIG    1        2.612  -2.434  -0.656  0.00  0.00    +0.050 A 
ATOM     14  C   LIG    1        3.729  -1.604  -0.700  0.00  0.00    +0.060 A 
ATOM     15  C   LIG    1        2.497  -0.001   0.512  0.00  0.00    -0.090 A 
ATOM     16  O   LIG    1        4.458   2.783   1.052  0.00  0.00    -0.490 OA
ATOM     17  C   LIG    1        3.690  -0.354  -0.107  0.00  0.00    +0.130 A 
BRANCH   5  19
ATOM     18  C   LIG    1        5.943   1.350  -1.861  0.00  0.00    +0.030 C 
ATOM     19  C   LIG    1        5.937   0.761  -0.448  0.00  0.00    +0.290 C 
ENDBRANCH   5  19
ENDBRANCH   1  12
BRANCH   3  20
ATOM     20  C   LIG    1       -0.634  -5.171  -0.238  0.00  0.00    -0.140 A 
ATOM     21  C   LIG    1       -1.932  -4.654  -0.211  0.00  0.00    +0.070 A 
ATOM     22  C   LIG    1       -3.012  -5.502  -0.315  0.00  0.00    +0.010 A 
ATOM     23  C   LIG    1       -2.813  -6.872  -0.435  0.00  0.00    +0.120 A 
ATOM     24  C   LIG    1       -1.523  -7.392  -0.457  0.00  0.00    +0.000 A 
ATOM     25  C   LIG    1       -0.438  -6.550  -0.360  0.00  0.00    +0.110 A 
BRANCH  23  26
ATOM     26  O   LIG    1       -3.879  -7.705  -0.532  0.00  0.00    -0.260 OA
BRANCH  26  27
ATOM     27  C   LIG    1       -4.214  -8.442   0.560  0.00  0.00    +0.120 A 
ATOM     28  C   LIG    1       -3.412  -8.412   1.691  0.00  0.00    -0.070 A 
ATOM     29  C   LIG    1       -3.757  -9.158   2.801  0.00  0.00    +0.050 A 
ATOM     30  C   LIG    1       -4.896  -9.943   2.782  0.00  0.00    -0.020 A 
ATOM     31  C   LIG    1       -5.694  -9.978   1.653  0.00  0.00    +0.050 A 
ATOM     32  C   LIG    1       -5.356  -9.230   0.543  0.00  0.00    -0.010 A 
ENDBRANCH  26  27
ENDBRANCH  23  26
ENDBRANCH   3  20
TORSDOF 5
