REMARK  Name = ZINCpe000015fwC4.0
REMARK                            x       y       z     vdW  Elec       q    Type
REMARK                         _______ _______ _______ _____ _____    ______ ____
ROOT
ATOM      1  C   LIG    1        0.197   5.587   0.029  0.00  0.00    +0.520 C 
ATOM      2  N   LIG    1       -0.853   6.432   0.043  0.00  0.00    -0.520 N 
ATOM      3  H   LIG    1       -1.758   6.081   0.050  0.00  0.00    +0.440 HD
ATOM      4  O   LIG    1        1.327   6.026   0.020  0.00  0.00    -0.500 OA
ENDROOT
BRANCH   2   5
ATOM      5  N   LIG    1       -0.639   7.816   0.048  0.00  0.00    -0.510 N 
ATOM      6  H   LIG    1        0.265   8.167   0.041  0.00  0.00    +0.430 HD
ATOM      7  C   LIG    1       -1.689   8.661   0.062  0.00  0.00    +0.570 C 
ATOM      8  O   LIG    1       -2.822   8.221   0.070  0.00  0.00    -0.520 OA
BRANCH   7   9
ATOM      9  C   LIG    1       -1.463  10.122   0.067  0.00  0.00    -0.130 A 
ATOM     10  C   LIG    1       -0.163  10.630   0.063  0.00  0.00    +0.110 A 
ATOM     11  C   LIG    1        0.041  11.994   0.064  0.00  0.00    +0.040 A 
ATOM     12  C   LIG    1       -1.039  12.858   0.078  0.00  0.00    +0.130 A 
ATOM     13  C   LIG    1       -2.330  12.361   0.087  0.00  0.00    -0.050 A 
ATOM     14  C   LIG    1       -2.549  10.999   0.082  0.00  0.00    +0.180 A 
BRANCH  13  15
ATOM     15  N   LIG    1       -3.480  13.293   0.103  0.00  0.00    +0.020 N 
ATOM     16  O   LIG    1       -3.289  14.496   0.107  0.00  0.00    -0.150 OA
ATOM     17  O   LIG    1       -4.618  12.857   0.111  0.00  0.00    -0.150 OA
ENDBRANCH  13  15
ENDBRANCH   7   9
ENDBRANCH   2   5
BRANCH   1  18
ATOM     18  C   LIG    1       -0.034   4.098   0.024  0.00  0.00    +0.250 C 
BRANCH  18  19
ATOM     19  O   LIG    1        1.225   3.421   0.008  0.00  0.00    -0.270 OA
BRANCH  19  25
ATOM     20  C   LIG    1        2.379   1.327  -0.013  0.00  0.00    +0.310 A 
ATOM     21  N   LIG    1        2.352   0.006  -0.020  0.00  0.00    -0.500 NA
ATOM     22  C   LIG    1        1.214  -0.664  -0.013  0.00  0.00    +0.270 A 
ATOM     23  C   LIG    1        0.002  -0.004   0.002  0.00  0.00    -0.030 A 
ATOM     24  C   LIG    1       -0.017   1.384   0.010  0.00  0.00    +0.020 A 
ATOM     25  C   LIG    1        1.194   2.061   0.002  0.00  0.00    +0.060 A 
BRANCH  20  27
ATOM     26  C   LIG    1        4.750   1.167  -0.037  0.00  0.00    +0.260 C 
ATOM     27  O   LIG    1        3.572   1.976  -0.021  0.00  0.00    -0.300 OA
ENDBRANCH  20  27
ENDBRANCH  19  25
ENDBRANCH  18  19
ENDBRANCH   1  18
TORSDOF 7
