REMARK  Name = ZINCrg00000ByEKJ.1
REMARK                            x       y       z     vdW  Elec       q    Type
REMARK                         _______ _______ _______ _____ _____    ______ ____
ROOT
ATOM      1  N   LIG    1       -1.127   1.437  -3.552  0.00  0.00    -0.500 N 
ATOM      2  C   LIG    1       -2.007   2.449  -3.428  0.00  0.00    +0.630 A 
ATOM      3  N   LIG    1       -2.250   3.004  -2.272  0.00  0.00    -0.540 NA
ATOM      4  C   LIG    1       -1.639   2.596  -1.151  0.00  0.00    +0.150 A 
ATOM      5  C   LIG    1       -0.738   1.583  -1.213  0.00  0.00    -0.250 A 
ATOM      6  C   LIG    1       -0.013   1.086   0.008  0.00  0.00    +0.150 C 
ATOM      7  C   LIG    1       -0.726   1.578   1.269  0.00  0.00    +0.280 C 
ATOM      8  N   LIG    1       -0.938   3.029   1.149  0.00  0.00    -0.380 N 
ATOM      9  H   LIG    1       -0.080   3.475   0.862  0.00  0.00    +0.430 HD
ATOM     10  C   LIG    1       -1.979   3.277   0.148  0.00  0.00    +0.350 C 
ATOM     11  C   LIG    1       -0.475   0.980  -2.463  0.00  0.00    +0.530 A 
ATOM     12  O   LIG    1        0.326   0.065  -2.555  0.00  0.00    -0.500 OA
ENDROOT
BRANCH   1  13
ATOM     13  C   LIG    1       -0.880   0.834  -4.864  0.00  0.00    +0.320 C 
BRANCH  13  14
ATOM     14  C   LIG    1       -1.838  -0.308  -5.082  0.00  0.00    +0.380 C 
ATOM     15  O   LIG    1       -2.645  -0.590  -4.228  0.00  0.00    -0.450 OA
BRANCH  14  18
ATOM     16  C   LIG    1       -2.317  -2.535  -6.328  0.00  0.00    -0.070 C 
ATOM     17  C   LIG    1       -3.123  -1.442  -7.033  0.00  0.00    +0.080 C 
ATOM     18  C   LIG    1       -1.790  -1.099  -6.364  0.00  0.00    -0.080 C 
BRANCH  16  20
ATOM     19  O   LIG    1       -1.422  -4.680  -6.770  0.00  0.00    -0.680 OA
ATOM     20  C   LIG    1       -1.620  -3.554  -7.193  0.00  0.00    +0.510 C 
ATOM     21  O   LIG    1       -1.254  -3.251  -8.316  0.00  0.00    -0.690 OA
ENDBRANCH  16  20
ENDBRANCH  14  18
ENDBRANCH  13  14
ENDBRANCH   1  13
BRANCH   8  22
ATOM     22  C   LIG    1       -1.365   3.571   2.446  0.00  0.00    +0.330 C 
BRANCH  22  23
ATOM     23  C   LIG    1       -1.475   5.071   2.351  0.00  0.00    -0.160 A 
ATOM     24  C   LIG    1       -0.382   5.865   2.645  0.00  0.00    +0.040 A 
ATOM     25  C   LIG    1       -0.483   7.241   2.553  0.00  0.00    +0.030 A 
ATOM     26  C   LIG    1       -1.679   7.823   2.176  0.00  0.00    +0.050 A 
ATOM     27  C   LIG    1       -2.773   7.029   1.887  0.00  0.00    +0.030 A 
ATOM     28  C   LIG    1       -2.671   5.654   1.975  0.00  0.00    +0.040 A 
ENDBRANCH  22  23
ENDBRANCH   8  22
TORSDOF 6
