REMARK  Name = ZINCrg00000ByEKJ.2
REMARK                            x       y       z     vdW  Elec       q    Type
REMARK                         _______ _______ _______ _____ _____    ______ ____
ROOT
ATOM      1  N   LIG    1       -1.771   7.110  -5.852  0.00  0.00    -0.500 N 
ATOM      2  C   LIG    1       -2.471   6.035  -5.442  0.00  0.00    +0.630 A 
ATOM      3  N   LIG    1       -2.318   5.537  -4.245  0.00  0.00    -0.540 NA
ATOM      4  C   LIG    1       -1.460   6.069  -3.364  0.00  0.00    +0.150 A 
ATOM      5  C   LIG    1       -0.722   7.150  -3.720  0.00  0.00    -0.250 A 
ATOM      6  C   LIG    1        0.267   7.785  -2.780  0.00  0.00    +0.160 C 
ATOM      7  C   LIG    1       -0.001   7.312  -1.350  0.00  0.00    +0.280 C 
ATOM      8  N   LIG    1       -0.090   5.843  -1.353  0.00  0.00    -0.380 N 
ATOM      9  H   LIG    1        0.691   5.457  -1.861  0.00  0.00    +0.430 HD
ATOM     10  C   LIG    1       -1.343   5.442  -2.000  0.00  0.00    +0.350 C 
ATOM     11  C   LIG    1       -0.887   7.692  -5.014  0.00  0.00    +0.530 A 
ATOM     12  O   LIG    1       -0.243   8.666  -5.367  0.00  0.00    -0.500 OA
ENDROOT
BRANCH   1  13
ATOM     13  C   LIG    1       -1.968   7.646  -7.201  0.00  0.00    +0.320 C 
BRANCH  13  14
ATOM     14  C   LIG    1       -1.010   6.975  -8.152  0.00  0.00    +0.380 C 
ATOM     15  O   LIG    1       -0.242   6.137  -7.745  0.00  0.00    -0.450 OA
BRANCH  14  18
ATOM     16  C   LIG    1        0.282   7.126 -10.399  0.00  0.00    -0.070 C 
ATOM     17  C   LIG    1       -0.925   6.216 -10.634  0.00  0.00    +0.080 C 
ATOM     18  C   LIG    1       -1.010   7.351  -9.611  0.00  0.00    -0.080 C 
BRANCH  16  20
ATOM     19  O   LIG    1        1.776   8.487 -11.629  0.00  0.00    -0.680 OA
ATOM     20  C   LIG    1        0.622   8.123 -11.477  0.00  0.00    +0.510 C 
ATOM     21  O   LIG    1       -0.256   8.565 -12.198  0.00  0.00    -0.690 OA
ENDBRANCH  16  20
ENDBRANCH  14  18
ENDBRANCH  13  14
ENDBRANCH   1  13
BRANCH   8  22
ATOM     22  C   LIG    1       -0.070   5.347   0.030  0.00  0.00    +0.330 C 
BRANCH  22  23
ATOM     23  C   LIG    1       -0.050   3.840   0.022  0.00  0.00    -0.170 A 
ATOM     24  C   LIG    1        1.156   3.165   0.008  0.00  0.00    +0.040 A 
ATOM     25  C   LIG    1        1.175   1.783   0.000  0.00  0.00    +0.030 A 
ATOM     26  C   LIG    1       -0.013   1.076   0.008  0.00  0.00    +0.060 A 
ATOM     27  C   LIG    1       -1.219   1.751   0.017  0.00  0.00    +0.030 A 
ATOM     28  C   LIG    1       -1.238   3.133   0.030  0.00  0.00    +0.030 A 
ENDBRANCH  22  23
ENDBRANCH   8  22
TORSDOF 6
