REMARK  Name = ZINCpk00000y6vM8.2
REMARK                            x       y       z     vdW  Elec       q    Type
REMARK                         _______ _______ _______ _____ _____    ______ ____
ROOT
ATOM      1  C   LIG    1        0.325  -3.922  -1.247  0.00  0.00    +0.620 C 
ATOM      2  N   LIG    1       -0.324  -2.943  -0.586  0.00  0.00    -0.610 N 
ATOM      3  C   LIG    1       -0.919  -1.708  -1.147  0.00  0.00    +0.300 C 
ATOM      4  C   LIG    1       -0.594  -0.612  -0.110  0.00  0.00    +0.120 C 
ATOM      5  C   LIG    1       -0.386  -1.370   1.218  0.00  0.00    +0.030 C 
ATOM      6  C   LIG    1       -0.604  -2.857   0.866  0.00  0.00    +0.270 C 
ATOM      7  O   LIG    1        0.435  -3.870  -2.457  0.00  0.00    -0.550 OA
ENDROOT
BRANCH   4   8
ATOM      8  C   LIG    1        0.665   0.120  -0.498  0.00  0.00    +0.240 A 
ATOM      9  N   LIG    1        1.827  -0.434  -0.724  0.00  0.00    -0.290 NA
ATOM     10  N   LIG    1        2.714   0.603  -1.054  0.00  0.00    -0.460 N 
ATOM     11  H   LIG    1        3.654   0.515  -1.276  0.00  0.00    +0.450 HD
ATOM     12  C   LIG    1        2.002   1.742  -1.002  0.00  0.00    +0.290 A 
ATOM     13  N   LIG    1        0.774   1.437  -0.666  0.00  0.00    -0.530 NA
BRANCH  12  14
ATOM     14  C   LIG    1        2.525   3.127  -1.280  0.00  0.00    +0.320 C 
BRANCH  14  15
ATOM     15  O   LIG    1        3.913   3.054  -1.613  0.00  0.00    -0.400 OA
ATOM     16  C   LIG    1        4.510   4.321  -1.897  0.00  0.00    +0.230 C 
ENDBRANCH  14  15
ENDBRANCH  12  14
ENDBRANCH   4   8
BRANCH   1  19
ATOM     17  N   LIG    1        2.122  -6.801   0.030  0.00  0.00    -0.360 N 
ATOM     18  C   LIG    1        1.887  -5.913  -0.949  0.00  0.00    +0.320 A 
ATOM     19  C   LIG    1        0.901  -5.057  -0.503  0.00  0.00    -0.290 A 
ATOM     20  C   LIG    1        0.551  -5.468   0.803  0.00  0.00    +0.270 A 
ATOM     21  N   LIG    1        1.278  -6.508   1.107  0.00  0.00    -0.290 NA
BRANCH  17  23
ATOM     22  C   LIG    1        4.043  -7.788   1.178  0.00  0.00    +0.040 C 
ATOM     23  C   LIG    1        3.097  -7.894  -0.020  0.00  0.00    +0.310 C 
ENDBRANCH  17  23
ENDBRANCH   1  19
BRANCH   5  24
ATOM     24  C   LIG    1       -1.410  -0.912   2.258  0.00  0.00    -0.040 C 
ATOM     25  C   LIG    1       -0.891  -0.112   3.455  0.00  0.00    +0.020 C 
ATOM     26  C   LIG    1       -1.349  -1.560   3.643  0.00  0.00    +0.010 C 
ENDBRANCH   5  24
TORSDOF 6
