REMARK  Name = ZINCpk00000y6vM8.0
REMARK                            x       y       z     vdW  Elec       q    Type
REMARK                         _______ _______ _______ _____ _____    ______ ____
ROOT
ATOM      1  C   LIG    1       -0.241   2.062   2.344  0.00  0.00    +0.620 C 
ATOM      2  N   LIG    1       -0.696   1.856   1.092  0.00  0.00    -0.620 N 
ATOM      3  C   LIG    1       -2.069   2.077   0.572  0.00  0.00    +0.270 C 
ATOM      4  C   LIG    1       -1.861   2.673  -0.837  0.00  0.00    +0.110 C 
ATOM      5  C   LIG    1       -0.457   2.199  -1.267  0.00  0.00    +0.030 C 
ATOM      6  C   LIG    1        0.060   1.358  -0.080  0.00  0.00    +0.280 C 
ATOM      7  O   LIG    1        0.910   1.788   2.625  0.00  0.00    -0.540 OA
ENDROOT
BRANCH   4   8
ATOM      8  C   LIG    1       -2.905   2.149  -1.789  0.00  0.00    +0.300 A 
ATOM      9  N   LIG    1       -3.398   2.790  -2.817  0.00  0.00    -0.510 NA
ATOM     10  C   LIG    1       -4.297   2.026  -3.438  0.00  0.00    +0.230 A 
ATOM     11  N   LIG    1       -4.395   0.887  -2.805  0.00  0.00    -0.290 NA
ATOM     12  N   LIG    1       -3.497   0.944  -1.726  0.00  0.00    -0.480 N 
ATOM     13  H   LIG    1       -3.336   0.250  -1.067  0.00  0.00    +0.440 HD
BRANCH  10  14
ATOM     14  C   LIG    1       -5.077   2.415  -4.667  0.00  0.00    +0.320 C 
BRANCH  14  15
ATOM     15  O   LIG    1       -6.293   3.055  -4.276  0.00  0.00    -0.380 OA
ATOM     16  C   LIG    1       -7.112   3.466  -5.373  0.00  0.00    +0.220 C 
ENDBRANCH  14  15
ENDBRANCH  10  14
ENDBRANCH   4   8
BRANCH   1  19
ATOM     17  N   LIG    1       -1.873   3.591   5.198  0.00  0.00    -0.360 N 
ATOM     18  C   LIG    1       -0.754   3.227   4.551  0.00  0.00    +0.320 A 
ATOM     19  C   LIG    1       -1.137   2.620   3.373  0.00  0.00    -0.300 A 
ATOM     20  C   LIG    1       -2.550   2.638   3.333  0.00  0.00    +0.260 A 
ATOM     21  N   LIG    1       -2.976   3.212   4.424  0.00  0.00    -0.290 NA
BRANCH  17  23
ATOM     22  C   LIG    1       -2.753   5.553   6.363  0.00  0.00    +0.040 C 
ATOM     23  C   LIG    1       -1.930   4.270   6.495  0.00  0.00    +0.310 C 
ENDBRANCH  17  23
ENDBRANCH   1  19
BRANCH   5  24
ATOM     24  C   LIG    1        0.459   3.400  -1.507  0.00  0.00    -0.030 C 
ATOM     25  C   LIG    1        0.948   3.641  -2.937  0.00  0.00    +0.020 C 
ATOM     26  C   LIG    1        1.917   3.114  -1.876  0.00  0.00    +0.020 C 
ENDBRANCH   5  24
TORSDOF 6
