REMARK  Name = ZINCpk00000y6vM8.1
REMARK                            x       y       z     vdW  Elec       q    Type
REMARK                         _______ _______ _______ _____ _____    ______ ____
ROOT
ATOM      1  C   LIG    1       -3.763  -0.360   0.237  0.00  0.00    +0.620 C 
ATOM      2  N   LIG    1       -2.938   0.699   0.364  0.00  0.00    -0.630 N 
ATOM      3  C   LIG    1       -2.153   1.373  -0.701  0.00  0.00    +0.290 C 
ATOM      4  C   LIG    1       -0.799   1.699  -0.034  0.00  0.00    +0.120 C 
ATOM      5  C   LIG    1       -1.100   1.753   1.478  0.00  0.00    +0.030 C 
ATOM      6  C   LIG    1       -2.610   1.453   1.595  0.00  0.00    +0.270 C 
ATOM      7  O   LIG    1       -3.967  -0.845  -0.859  0.00  0.00    -0.540 OA
ENDROOT
BRANCH   4   8
ATOM      8  C   LIG    1        0.205   0.615  -0.330  0.00  0.00    +0.190 A 
ATOM      9  N   LIG    1        1.493   0.771  -0.473  0.00  0.00    -0.280 NA
ATOM     10  N   LIG    1        2.042  -0.364  -0.724  0.00  0.00    -0.280 NA
ATOM     11  C   LIG    1        1.129  -1.297  -0.753  0.00  0.00    +0.180 A 
ATOM     12  N   LIG    1       -0.063  -0.702  -0.504  0.00  0.00    -0.560 N 
ATOM     13  H   LIG    1       -0.931  -1.132  -0.459  0.00  0.00    +0.430 HD
BRANCH  11  14
ATOM     14  C   LIG    1        1.358  -2.763  -1.015  0.00  0.00    +0.330 C 
BRANCH  14  15
ATOM     15  O   LIG    1        0.110  -3.457  -0.962  0.00  0.00    -0.400 OA
ATOM     16  C   LIG    1        0.216  -4.862  -1.198  0.00  0.00    +0.230 C 
ENDBRANCH  14  15
ENDBRANCH  11  14
ENDBRANCH   4   8
BRANCH   1  19
ATOM     17  N   LIG    1       -5.457  -2.311   2.781  0.00  0.00    -0.360 N 
ATOM     18  C   LIG    1       -4.964  -2.193   1.538  0.00  0.00    +0.320 A 
ATOM     19  C   LIG    1       -4.419  -0.929   1.429  0.00  0.00    -0.300 A 
ATOM     20  C   LIG    1       -4.601  -0.287   2.674  0.00  0.00    +0.270 A 
ATOM     21  N   LIG    1       -5.223  -1.114   3.467  0.00  0.00    -0.290 NA
BRANCH  17  23
ATOM     22  C   LIG    1       -5.421  -3.932   4.613  0.00  0.00    +0.040 C 
ATOM     23  C   LIG    1       -6.127  -3.494   3.328  0.00  0.00    +0.310 C 
ENDBRANCH  17  23
ENDBRANCH   1  19
BRANCH   5  24
ATOM     24  C   LIG    1       -0.786   3.143   2.034  0.00  0.00    -0.040 C 
ATOM     25  C   LIG    1        0.404   3.272   2.987  0.00  0.00    +0.020 C 
ATOM     26  C   LIG    1       -1.025   3.378   3.527  0.00  0.00    +0.010 C 
ENDBRANCH   5  24
TORSDOF 6
