REMARK  Name = ZINCpe000000XKxA.0
REMARK                            x       y       z     vdW  Elec       q    Type
REMARK                         _______ _______ _______ _____ _____    ______ ____
ROOT
ATOM      1  C   LIG    1        7.972  -5.232   4.558  0.00  0.00    +0.170 C 
ATOM      2  C   LIG    1        7.376  -3.941   4.059  0.00  0.00    +0.110 A 
ATOM      3  N   LIG    1        7.895  -2.748   4.221  0.00  0.00    -0.310 NA
ATOM      4  N   LIG    1        7.054  -1.804   3.620  0.00  0.00    -0.350 N 
ATOM      5  C   LIG    1        5.991  -2.473   3.079  0.00  0.00    +0.310 A 
ATOM      6  N   LIG    1        5.002  -1.834   2.428  0.00  0.00    -0.550 NA
ATOM      7  C   LIG    1        5.000  -0.528   2.273  0.00  0.00    +0.510 A 
ATOM      8  C   LIG    1        6.114   0.256   2.823  0.00  0.00    -0.150 A 
ATOM      9  C   LIG    1        6.173   1.643   2.687  0.00  0.00    +0.070 A 
ATOM     10  C   LIG    1        7.240   2.332   3.220  0.00  0.00    +0.000 A 
ATOM     11  C   LIG    1        8.251   1.657   3.889  0.00  0.00    +0.080 A 
ATOM     12  C   LIG    1        8.200   0.287   4.041  0.00  0.00    +0.020 A 
ATOM     13  C   LIG    1        7.137  -0.426   3.506  0.00  0.00    +0.210 A 
ATOM     14  C   LIG    1        6.186  -3.821   3.351  0.00  0.00    -0.110 A 
ENDROOT
BRANCH   7  15
ATOM     15  N   LIG    1        3.969   0.096   1.599  0.00  0.00    -0.610 N 
ATOM     16  C   LIG    1        3.711   1.481   1.157  0.00  0.00    +0.330 C 
ATOM     17  C   LIG    1        2.794   0.858   0.096  0.00  0.00    -0.120 C 
ATOM     18  C   LIG    1        1.477   1.610  -0.089  0.00  0.00    +0.090 C 
ATOM     19  C   LIG    1        1.713   2.739  -1.101  0.00  0.00    +0.160 C 
ATOM     20  C   LIG    1        2.053   2.126  -2.459  0.00  0.00    +0.240 C 
ATOM     21  N   LIG    1        3.145   1.168  -2.345  0.00  0.00    -0.720 N 
ATOM     22  H   LIG    1        3.654   0.959  -3.143  0.00  0.00    +0.410 HD
ATOM     23  C   LIG    1        3.485   0.561  -1.202  0.00  0.00    +0.540 C 
ATOM     24  O   LIG    1        4.381  -0.256  -1.216  0.00  0.00    -0.520 OA
ATOM     25  C   LIG    1        2.682  -0.354   1.031  0.00  0.00    +0.350 C 
BRANCH  19  26
ATOM     26  O   LIG    1        0.532   3.535  -1.215  0.00  0.00    -0.550 OA
ATOM     27  H   LIG    1        0.609   4.267  -1.842  0.00  0.00    +0.390 HD
ENDBRANCH  19  26
ENDBRANCH   7  15
TORSDOF 2
