REMARK  Name = ZINCrg00001Jdv0R.0
REMARK                            x       y       z     vdW  Elec       q    Type
REMARK                         _______ _______ _______ _____ _____    ______ ____
ROOT
ATOM      1  C   LIG    1       -0.468   1.537  -1.338  0.00  0.00    +0.190 C 
ENDROOT
BRANCH   1   2
ATOM      2  N   LIG    1       -0.339   0.124  -0.957  0.00  0.00    -0.510 NA
ATOM      3  C   LIG    1       -1.653  -0.490  -0.770  0.00  0.00    +0.170 C 
ATOM      4  C   LIG    1       -1.707  -1.926  -1.108  0.00  0.00    +0.030 C 
ATOM      5  C   LIG    1       -0.756  -2.718  -0.176  0.00  0.00    +0.280 C 
ATOM      6  N   LIG    1        0.617  -2.399  -0.503  0.00  0.00    -0.590 N 
ATOM      7  C   LIG    1        1.350  -1.276   0.119  0.00  0.00    +0.270 C 
ATOM      8  C   LIG    1        1.256  -3.159  -1.414  0.00  0.00    +0.530 C 
ATOM      9  O   LIG    1        0.713  -4.142  -1.872  0.00  0.00    -0.530 OA
ATOM     10  C   LIG    1        0.466  -0.020   0.237  0.00  0.00    +0.180 C 
BRANCH   8  11
ATOM     11  C   LIG    1        2.645  -2.788  -1.864  0.00  0.00    -0.040 C 
ATOM     12  C   LIG    1        2.960  -3.429  -3.235  0.00  0.00    +0.040 C 
ATOM     13  C   LIG    1        4.169  -4.347  -2.951  0.00  0.00    +0.200 C 
ATOM     14  O   LIG    1        4.088  -4.639  -1.539  0.00  0.00    -0.370 OA
ATOM     15  C   LIG    1        3.702  -3.395  -0.915  0.00  0.00    +0.220 C 
ENDBRANCH   8  11
ENDBRANCH   1   2
BRANCH   1  18
ATOM     16  C   LIG    1        2.379   3.998  -1.003  0.00  0.00    +0.140 A 
ATOM     17  C   LIG    1        1.111   3.454  -0.929  0.00  0.00    -0.030 A 
ATOM     18  C   LIG    1        0.900   2.167  -1.401  0.00  0.00    -0.040 A 
ATOM     19  C   LIG    1        1.978   1.472  -1.927  0.00  0.00    -0.010 A 
ATOM     20  C   LIG    1        3.216   2.084  -1.973  0.00  0.00    +0.270 A 
ATOM     21  N   LIG    1        3.381   3.309  -1.515  0.00  0.00    -0.470 NA
BRANCH  16  23
ATOM     22  C   LIG    1        3.749   5.374   0.540  0.00  0.00    +0.040 C 
ATOM     23  C   LIG    1        2.621   5.396  -0.493  0.00  0.00    +0.080 C 
ENDBRANCH  16  23
ENDBRANCH   1  18
BRANCH   1  24
ATOM     24  C   LIG    1       -1.129   1.635  -2.688  0.00  0.00    +0.520 C 
ATOM     25  N   LIG    1       -1.352   2.843  -3.243  0.00  0.00    -0.730 N 
ATOM     26  H   LIG    1       -1.087   3.649  -2.773  0.00  0.00    +0.400 HD
ATOM     27  C   LIG    1       -1.995   2.939  -4.556  0.00  0.00    +0.290 C 
ATOM     28  O   LIG    1       -1.460   0.628  -3.276  0.00  0.00    -0.510 OA
ENDBRANCH   1  24
TORSDOF 5
