REMARK  Name = ZINCpe00000MJKDN.0
REMARK                            x       y       z     vdW  Elec       q    Type
REMARK                         _______ _______ _______ _____ _____    ______ ____
ROOT
ATOM      1  C   LIG    1       -0.097   6.972  -0.113  0.00  0.00    +0.290 C 
ENDROOT
BRANCH   1   5
ATOM      2  C   LIG    1        1.250   2.098   0.001  0.00  0.00    -0.300 A 
ATOM      3  C   LIG    1        1.387   3.466   0.002  0.00  0.00    +0.160 A 
ATOM      4  C   LIG    1        0.292   4.503   0.009  0.00  0.00    +0.160 C 
ATOM      5  C   LIG    1        0.907   5.851  -0.389  0.00  0.00    -0.020 C 
ATOM      6  C   LIG    1        2.177   6.086   0.434  0.00  0.00    +0.040 C 
ATOM      7  C   LIG    1        3.264   5.101   0.001  0.00  0.00    +0.320 C 
ATOM      8  N   LIG    1        2.704   3.745  -0.003  0.00  0.00    -0.360 N 
ATOM      9  N   LIG    1        3.409   2.540  -0.017  0.00  0.00    -0.290 NA
ATOM     10  C   LIG    1        2.555   1.551  -0.015  0.00  0.00    +0.270 A 
BRANCH   2  14
ATOM     11  N   LIG    1        0.002  -0.004   0.002  0.00  0.00    -0.850 N 
ATOM     12  H   LIG    1       -0.831  -0.500   0.007  0.00  0.00    +0.410 HD
ATOM     13  H   LIG    1        0.849  -0.478  -0.009  0.00  0.00    +0.400 HD
ATOM     14  C   LIG    1       -0.016   1.344   0.009  0.00  0.00    +0.600 C 
ATOM     15  O   LIG    1       -1.077   1.937   0.018  0.00  0.00    -0.550 OA
ENDBRANCH   2  14
ENDBRANCH   1   5
BRANCH   1  16
ATOM     16  N   LIG    1        0.443   8.243  -0.603  0.00  0.00    -0.730 N 
ATOM     17  H   LIG    1        1.316   8.268  -1.025  0.00  0.00    +0.400 HD
ATOM     18  C   LIG    1       -0.273   9.377  -0.466  0.00  0.00    +0.570 C 
ATOM     19  O   LIG    1       -1.367   9.345   0.064  0.00  0.00    -0.530 OA
BRANCH  18  20
ATOM     20  C   LIG    1        0.272  10.658  -0.960  0.00  0.00    -0.150 A 
ATOM     21  C   LIG    1        1.535  10.693  -1.565  0.00  0.00    +0.060 A 
ATOM     22  C   LIG    1        2.047  11.869  -2.030  0.00  0.00    +0.020 A 
ATOM     23  C   LIG    1        1.321  13.047  -1.897  0.00  0.00    +0.070 A 
ATOM     24  N   LIG    1        1.556  14.359  -2.247  0.00  0.00    -0.600 N 
ATOM     25  H   LIG    1        2.349  14.702  -2.689  0.00  0.00    +0.430 HD
ATOM     26  C   LIG    1        0.472  15.085  -1.860  0.00  0.00    +0.490 A 
ATOM     27  N   LIG    1       -0.408  14.309  -1.298  0.00  0.00    -0.490 NA
ATOM     28  C   LIG    1        0.053  13.031  -1.287  0.00  0.00    +0.040 A 
ATOM     29  C   LIG    1       -0.469  11.827  -0.818  0.00  0.00    +0.160 A 
ENDBRANCH  18  20
ENDBRANCH   1  16
TORSDOF 4
