REMARK  Name = ZINCqH0000033x4V.0
REMARK                            x       y       z     vdW  Elec       q    Type
REMARK                         _______ _______ _______ _____ _____    ______ ____
ROOT
ATOM      1  N   LIG    1        2.304   5.707   6.465  0.00  0.00    -0.620 N 
ATOM      2  H   LIG    1        2.674   5.052   7.078  0.00  0.00    +0.420 HD
ATOM      3  C   LIG    1        1.652   5.300   5.358  0.00  0.00    +0.530 C 
ATOM      4  O   LIG    1        1.189   6.119   4.592  0.00  0.00    -0.480 OA
ENDROOT
BRANCH   1   6
ATOM      5  C   LIG    1        3.083   7.579   7.827  0.00  0.00    -0.180 A 
ATOM      6  C   LIG    1        2.445   7.060   6.729  0.00  0.00    +0.050 A 
ATOM      7  S   LIG    1        1.842   8.309   5.737  0.00  0.00    +0.320 S 
ATOM      8  C   LIG    1        2.459   9.559   6.803  0.00  0.00    -0.110 A 
ATOM      9  C   LIG    1        3.082   9.026   7.844  0.00  0.00    -0.010 A 
BRANCH   9  10
ATOM     10  C   LIG    1        3.720   9.843   8.937  0.00  0.00    +0.000 C 
ATOM     11  C   LIG    1        3.461  11.351   8.935  0.00  0.00    +0.030 C 
ATOM     12  C   LIG    1        4.836  10.810   8.537  0.00  0.00    +0.040 C 
ENDBRANCH   9  10
BRANCH   5  13
ATOM     13  C   LIG    1        3.703   6.756   8.868  0.00  0.00    +0.540 C 
ATOM     14  O   LIG    1        4.869   6.425   8.768  0.00  0.00    -0.490 OA
BRANCH  13  15
ATOM     15  O   LIG    1        2.980   6.366   9.938  0.00  0.00    -0.350 OA
BRANCH  15  17
ATOM     16  C   LIG    1        2.687   5.210  12.061  0.00  0.00    +0.070 C 
ATOM     17  C   LIG    1        3.659   5.552  10.931  0.00  0.00    +0.200 C 
ENDBRANCH  15  17
ENDBRANCH  13  15
ENDBRANCH   5  13
ENDBRANCH   1   6
BRANCH   3  18
ATOM     18  C   LIG    1        1.499   3.829   5.071  0.00  0.00    +0.130 C 
BRANCH  18  19
ATOM     19  S   LIG    1        0.585   3.607   3.524  0.00  0.00    +0.090 S 
BRANCH  19  20
ATOM     20  C   LIG    1        0.554   1.848   3.437  0.00  0.00    +0.140 A 
ATOM     21  N   LIG    1        1.075   1.013   4.306  0.00  0.00    -0.290 NA
ATOM     22  N   LIG    1        0.871  -0.197   3.926  0.00  0.00    -0.290 NA
ATOM     23  C   LIG    1        0.209  -0.208   2.804  0.00  0.00    +0.390 A 
ATOM     24  N   LIG    1       -0.020   1.094   2.454  0.00  0.00    -0.460 N 
BRANCH  24  25
ATOM     25  C   LIG    1       -0.729   1.579   1.267  0.00  0.00    +0.240 C 
ATOM     26  C   LIG    1       -2.164   1.050   1.278  0.00  0.00    +0.070 C 
ATOM     27  C   LIG    1       -0.013   1.086   0.008  0.00  0.00    +0.070 C 
ENDBRANCH  24  25
ENDBRANCH  19  20
ENDBRANCH  18  19
ENDBRANCH   3  18
TORSDOF 9
