REMARK  Name = ZINCtV000002JRz8.0
REMARK                            x       y       z     vdW  Elec       q    Type
REMARK                         _______ _______ _______ _____ _____    ______ ____
ROOT
ATOM      1  N   LIG    1        1.198  -0.322   3.181  0.00  0.00    -0.660 N 
ATOM      2  H   LIG    1        2.030  -0.387   2.687  0.00  0.00    +0.410 HD
ATOM      3  C   LIG    1        0.034  -0.650   2.585  0.00  0.00    +0.600 C 
ATOM      4  O   LIG    1       -0.997  -0.659   3.229  0.00  0.00    -0.480 OA
ENDROOT
BRANCH   1   9
ATOM      5  C   LIG    1        0.149   1.274   6.331  0.00  0.00    -0.000 A 
ATOM      6  C   LIG    1        1.234   0.967   7.150  0.00  0.00    +0.010 A 
ATOM      7  C   LIG    1        2.293   0.237   6.649  0.00  0.00    +0.030 A 
ATOM      8  C   LIG    1        2.282  -0.191   5.335  0.00  0.00    -0.010 A 
ATOM      9  C   LIG    1        1.205   0.112   4.510  0.00  0.00    +0.140 A 
ATOM     10  C   LIG    1        0.140   0.849   5.005  0.00  0.00    +0.060 A 
BRANCH   5  14
ATOM     11  C   LIG    1       -4.326   3.370   6.119  0.00  0.00    +0.180 C 
ATOM     12  C   LIG    1       -3.010   2.995   6.749  0.00  0.00    +0.050 A 
ATOM     13  N   LIG    1       -2.091   2.301   6.172  0.00  0.00    -0.460 NA
ATOM     14  C   LIG    1       -0.990   2.059   6.868  0.00  0.00    +0.110 A 
ATOM     15  C   LIG    1       -0.998   2.584   8.110  0.00  0.00    -0.070 A 
ATOM     16  S   LIG    1       -2.527   3.431   8.329  0.00  0.00    +0.130 S 
ENDBRANCH   5  14
ENDBRANCH   1   9
BRANCH   3  17
ATOM     17  C   LIG    1        0.012  -0.997   1.154  0.00  0.00    -0.240 A 
ATOM     18  C   LIG    1       -0.165  -0.168   0.075  0.00  0.00    +0.030 A 
ATOM     19  O   LIG    1       -0.113  -0.942  -1.012  0.00  0.00    +0.120 OA
ATOM     20  N   LIG    1        0.077  -2.107  -0.762  0.00  0.00    -0.320 NA
ATOM     21  C   LIG    1       -0.383   1.323   0.110  0.00  0.00    +0.220 C 
ATOM     22  C   LIG    1        0.175  -2.325   0.525  0.00  0.00    +0.090 A 
BRANCH  22  23
ATOM     23  C   LIG    1        0.400  -3.623   1.205  0.00  0.00    -0.060 A 
ATOM     24  C   LIG    1       -0.419  -4.010   2.266  0.00  0.00    +0.140 A 
ATOM     25  C   LIG    1       -0.206  -5.224   2.892  0.00  0.00    +0.000 A 
ATOM     26  C   LIG    1        0.823  -6.049   2.476  0.00  0.00    +0.090 A 
ATOM     27  C   LIG    1        1.642  -5.668   1.428  0.00  0.00    +0.030 A 
ATOM     28  F   LIG    1       -1.421  -3.203   2.678  0.00  0.00    -0.110 F 
ATOM     29  C   LIG    1        1.437  -4.460   0.791  0.00  0.00    +0.020 A 
ATOM     30 CL   LIG    1        2.466  -3.984  -0.524  0.00  0.00    -0.040 Cl
ENDBRANCH  22  23
ENDBRANCH   3  17
TORSDOF 4
