REMARK  Name = ZINCrg000000s0eb.0
REMARK                            x       y       z     vdW  Elec       q    Type
REMARK                         _______ _______ _______ _____ _____    ______ ____
ROOT
ATOM      1  C   LIG    1        1.217   1.715   2.752  0.00  0.00    +0.470 A 
ATOM      2  N   LIG    1        2.162   1.318   1.939  0.00  0.00    -0.280 NA
ATOM      3  N   LIG    1        3.295   1.320   2.546  0.00  0.00    -0.260 NA
ATOM      4  C   LIG    1        3.138   1.719   3.786  0.00  0.00    +0.110 A 
ATOM      5  N   LIG    1        1.808   1.989   3.957  0.00  0.00    -0.300 N 
ENDROOT
BRANCH   1  12
ATOM      6  C   LIG    1       -0.013   1.086   0.008  0.00  0.00    +0.170 C 
ATOM      7  C   LIG    1       -0.718   1.572   1.248  0.00  0.00    +0.120 A 
ATOM      8  C   LIG    1       -2.042   1.825   1.367  0.00  0.00    -0.100 A 
ATOM      9  C   LIG    1       -2.284   2.253   2.676  0.00  0.00    +0.090 A 
ATOM     10  N   LIG    1       -1.146   2.266   3.323  0.00  0.00    -0.260 NA
ATOM     11  C   LIG    1       -3.625   2.640   3.244  0.00  0.00    +0.170 C 
ATOM     12  N   LIG    1       -0.139   1.841   2.447  0.00  0.00    -0.310 N 
ENDBRANCH   1  12
BRANCH   5  13
ATOM     13  N   LIG    1        1.197   2.436   5.094  0.00  0.00    -0.570 N 
ATOM     14  H   LIG    1        1.804   3.054   5.612  0.00  0.00    +0.380 HD
ATOM     15  H   LIG    1        0.891   1.665   5.668  0.00  0.00    +0.370 HD
ENDBRANCH   5  13
BRANCH   4  16
ATOM     16  S   LIG    1        4.405   1.883   5.000  0.00  0.00    +0.090 S 
BRANCH  16  17
ATOM     17  C   LIG    1        5.840   1.359   4.030  0.00  0.00    +0.110 C 
BRANCH  17  18
ATOM     18  C   LIG    1        7.077   1.420   4.889  0.00  0.00    +0.540 C 
ATOM     19  N   LIG    1        8.273   1.073   4.374  0.00  0.00    -0.720 N 
ATOM     20  H   LIG    1        8.338   0.784   3.450  0.00  0.00    +0.410 HD
ATOM     21  O   LIG    1        6.995   1.782   6.043  0.00  0.00    -0.520 OA
BRANCH  19  22
ATOM     22  C   LIG    1        9.475   1.133   5.209  0.00  0.00    +0.310 C 
BRANCH  22  23
ATOM     23  C   LIG    1       10.688   0.690   4.389  0.00  0.00    +0.200 C 
BRANCH  23  24
ATOM     24  O   LIG    1       10.915   1.625   3.332  0.00  0.00    -0.310 OA
BRANCH  24  25
ATOM     25  C   LIG    1       11.964   1.377   2.504  0.00  0.00    +0.130 A 
ATOM     26  C   LIG    1       12.761   0.260   2.708  0.00  0.00    -0.080 A 
ATOM     27  C   LIG    1       13.823   0.008   1.861  0.00  0.00    +0.050 A 
ATOM     28  C   LIG    1       14.098   0.873   0.818  0.00  0.00    -0.040 A 
ATOM     29  C   LIG    1       13.309   1.990   0.616  0.00  0.00    +0.050 A 
ATOM     30  C   LIG    1       12.242   2.244   1.457  0.00  0.00    -0.020 A 
ENDBRANCH  24  25
ENDBRANCH  23  24
ENDBRANCH  22  23
ENDBRANCH  19  22
ENDBRANCH  17  18
ENDBRANCH  16  17
ENDBRANCH   4  16
TORSDOF 9
