REMARK  Name = ZINCrg000000nLni.0
REMARK                            x       y       z     vdW  Elec       q    Type
REMARK                         _______ _______ _______ _____ _____    ______ ____
ROOT
ATOM      1  C   LIG    1        4.352  -3.174  -0.057  0.00  0.00    +0.540 C 
ATOM      2  N   LIG    1        5.699  -3.230  -0.070  0.00  0.00    -0.500 N 
ATOM      3  H   LIG    1        6.218  -2.412  -0.070  0.00  0.00    +0.430 HD
ATOM      4  O   LIG    1        3.702  -4.198  -0.057  0.00  0.00    -0.490 OA
ENDROOT
BRANCH   2   5
ATOM      5  N   LIG    1        6.347  -4.472  -0.083  0.00  0.00    -0.380 N 
ATOM      6  C   LIG    1        6.432  -5.265  -1.158  0.00  0.00    +0.710 C 
ATOM      7  N   LIG    1        7.109  -6.402  -0.906  0.00  0.00    -0.710 N 
ATOM      8  H   LIG    1        7.293  -7.120  -1.532  0.00  0.00    +0.450 HD
ATOM      9  C   LIG    1        7.513  -6.340   0.504  0.00  0.00    +0.140 C 
ATOM     10  C   LIG    1        9.033  -6.363   0.625  0.00  0.00    +0.060 C 
ATOM     11  C   LIG    1        9.431  -6.264   2.100  0.00  0.00    +0.040 C 
ATOM     12  C   LIG    1        8.824  -7.438   2.871  0.00  0.00    -0.020 C 
ATOM     13  C   LIG    1        7.299  -7.387   2.761  0.00  0.00    +0.040 C 
ATOM     14  C   LIG    1        9.232  -7.347   4.343  0.00  0.00    +0.030 C 
ATOM     15  C   LIG    1        6.891  -7.490   1.289  0.00  0.00    +0.060 C 
ATOM     16  O   LIG    1        5.952  -4.990  -2.241  0.00  0.00    -0.520 OA
ATOM     17  C   LIG    1        6.969  -5.014   0.984  0.00  0.00    +0.530 C 
ATOM     18  O   LIG    1        7.069  -4.539   2.095  0.00  0.00    -0.440 OA
ENDBRANCH   2   5
BRANCH   1  19
ATOM     19  C   LIG    1        3.654  -1.838  -0.043  0.00  0.00    +0.130 C 
BRANCH  19  20
ATOM     20  S   LIG    1        1.862  -2.094  -0.028  0.00  0.00    +0.120 S 
BRANCH  20  27
ATOM     21  N   LIG    1        0.002  -0.004   0.002  0.00  0.00    -0.530 N 
ATOM     22  C   LIG    1       -0.016   1.344   0.009  0.00  0.00    +0.650 A 
ATOM     23  N   LIG    1        1.264   1.768  -0.001  0.00  0.00    -0.540 N 
ATOM     24  H   LIG    1        1.563   2.691   0.001  0.00  0.00    +0.460 HD
ATOM     25  N   LIG    1        2.083   0.631  -0.014  0.00  0.00    -0.280 NA
ATOM     26  O   LIG    1       -1.009   2.050   0.018  0.00  0.00    -0.550 OA
ATOM     27  C   LIG    1        1.314  -0.419  -0.013  0.00  0.00    +0.240 A 
BRANCH  21  28
ATOM     28  C   LIG    1       -1.174  -0.878   0.008  0.00  0.00    +0.320 C 
BRANCH  28  30
ATOM     29  C   LIG    1       -2.825  -2.086  -1.427  0.00  0.00    +0.030 C 
ATOM     30  C   LIG    1       -1.597  -1.174  -1.433  0.00  0.00    +0.000 C 
ENDBRANCH  28  30
ENDBRANCH  21  28
ENDBRANCH  20  27
ENDBRANCH  19  20
ENDBRANCH   1  19
TORSDOF 6
