REMARK  Name = ZINCvU00000008B0.0
REMARK                            x       y       z     vdW  Elec       q    Type
REMARK                         _______ _______ _______ _____ _____    ______ ____
ROOT
ATOM      1  C   LIG    1        1.433  -2.063   0.302  0.00  0.00    +0.130 C 
ATOM      2  C   LIG    1        1.516  -0.568   0.133  0.00  0.00    +0.060 A 
ATOM      3  C   LIG    1        0.361   0.180  -0.093  0.00  0.00    -0.050 A 
ATOM      4  C   LIG    1        0.482   1.633  -0.252  0.00  0.00    +0.340 A 
ATOM      5  N   LIG    1       -0.423   2.568  -0.476  0.00  0.00    -0.490 NA
ATOM      6  C   LIG    1        0.179   3.779  -0.545  0.00  0.00    +0.100 A 
ATOM      7  C   LIG    1       -0.299   5.077  -0.755  0.00  0.00    +0.060 A 
ATOM      8  C   LIG    1        0.581   6.134  -0.778  0.00  0.00    +0.040 A 
ATOM      9  C   LIG    1        1.940   5.924  -0.592  0.00  0.00    +0.030 A 
ATOM     10  C   LIG    1        2.429   4.651  -0.382  0.00  0.00    +0.030 A 
ATOM     11  C   LIG    1        1.558   3.573  -0.356  0.00  0.00    +0.020 A 
ATOM     12  N   LIG    1        1.726   2.210  -0.173  0.00  0.00    -0.410 N 
ATOM     13  C   LIG    1        2.834   1.442   0.049  0.00  0.00    +0.420 A 
ATOM     14  C   LIG    1        2.743   0.076   0.202  0.00  0.00    -0.160 A 
ENDROOT
BRANCH  13  15
ATOM     15  N   LIG    1        4.066   2.046   0.122  0.00  0.00    -0.760 N 
ATOM     16  H   LIG    1        4.726   1.885  -0.570  0.00  0.00    +0.410 HD
BRANCH  15  17
ATOM     17  C   LIG    1        4.382   2.932   1.246  0.00  0.00    +0.320 C 
BRANCH  17  18
ATOM     18  C   LIG    1        5.803   3.417   1.118  0.00  0.00    -0.160 A 
ATOM     19  C   LIG    1        6.842   2.707   1.699  0.00  0.00    +0.090 A 
ATOM     20  C   LIG    1        8.134   3.188   1.551  0.00  0.00    -0.030 A 
ATOM     21  C   LIG    1        8.340   4.358   0.845  0.00  0.00    +0.270 A 
ATOM     22  N   LIG    1        7.327   5.011   0.310  0.00  0.00    -0.480 NA
ATOM     23  C   LIG    1        6.086   4.580   0.426  0.00  0.00    +0.270 A 
ENDBRANCH  17  18
ENDBRANCH  15  17
ENDBRANCH  13  15
BRANCH   3  24
ATOM     24  C   LIG    1       -0.919  -0.459  -0.168  0.00  0.00    +0.270 C 
ATOM     25  N   LIG    1       -1.934  -0.965  -0.227  0.00  0.00    -0.400 NA
ENDBRANCH   3  24
BRANCH  14  26
ATOM     26  C   LIG    1        3.994  -0.729   0.445  0.00  0.00    +0.160 C 
BRANCH  26  27
ATOM     27  C   LIG    1        4.516  -1.255  -0.867  0.00  0.00    -0.080 A 
ATOM     28  C   LIG    1        4.211  -2.544  -1.265  0.00  0.00    +0.010 A 
ATOM     29  C   LIG    1        4.686  -3.025  -2.470  0.00  0.00    +0.010 A 
ATOM     30  C   LIG    1        5.474  -2.221  -3.274  0.00  0.00    +0.000 A 
ATOM     31  C   LIG    1        5.783  -0.935  -2.873  0.00  0.00    +0.010 A 
ATOM     32  C   LIG    1        5.303  -0.452  -1.670  0.00  0.00    -0.010 A 
ENDBRANCH  26  27
ENDBRANCH  14  26
TORSDOF 6
