REMARK  Name = ZINCpk000005Vd2F.1
REMARK                            x       y       z     vdW  Elec       q    Type
REMARK                         _______ _______ _______ _____ _____    ______ ____
ROOT
ATOM      1  C   LIG    1       -0.132   9.813   0.499  0.00  0.00    +0.250 C 
ATOM      2  C   LIG    1        1.196   9.464  -0.187  0.00  0.00    +0.280 C 
ATOM      3  N   LIG    1        0.825   8.046  -0.067  0.00  0.00    -0.640 N 
ATOM      4  C   LIG    1        1.486   6.874   0.023  0.00  0.00    +0.600 C 
ATOM      5  O   LIG    1        2.698   6.865   0.115  0.00  0.00    -0.530 OA
ATOM      6  C   LIG    1       -0.583   8.468  -0.094  0.00  0.00    +0.260 C 
ENDROOT
BRANCH   4   7
ATOM      7  C   LIG    1        0.737   5.602   0.009  0.00  0.00    -0.110 A 
ATOM      8  C   LIG    1        1.409   4.395   0.246  0.00  0.00    +0.050 A 
ATOM      9  C   LIG    1        0.729   3.214   0.235  0.00  0.00    +0.050 A 
ATOM     10  C   LIG    1       -0.648   3.204  -0.012  0.00  0.00    -0.080 A 
ATOM     11  C   LIG    1       -1.655   2.146  -0.088  0.00  0.00    -0.060 A 
ATOM     12  C   LIG    1       -2.830   2.740  -0.362  0.00  0.00    +0.230 A 
ATOM     13  N   LIG    1       -2.658   4.091  -0.460  0.00  0.00    -0.590 N 
ATOM     14  H   LIG    1       -3.363   4.730  -0.648  0.00  0.00    +0.420 HD
ATOM     15  C   LIG    1       -1.334   4.411  -0.251  0.00  0.00    +0.080 A 
ATOM     16  C   LIG    1       -0.634   5.608  -0.239  0.00  0.00    +0.030 A 
ENDBRANCH   4   7
BRANCH   1  19
ATOM     17  O   LIG    1       -1.876  11.375   1.835  0.00  0.00    -0.530 OA
ATOM     18  C   LIG    1       -1.670  11.694   0.683  0.00  0.00    +0.520 C 
ATOM     19  N   LIG    1       -0.814  10.977  -0.072  0.00  0.00    -0.720 N 
ATOM     20  H   LIG    1       -0.650  11.232  -0.994  0.00  0.00    +0.410 HD
BRANCH  18  21
ATOM     21  C   LIG    1       -2.372  12.891   0.096  0.00  0.00    +0.050 C 
BRANCH  21  22
ATOM     22  C   LIG    1       -3.280  13.520   1.155  0.00  0.00    +0.150 C 
BRANCH  22  23
ATOM     23  C   LIG    1       -3.982  14.717   0.567  0.00  0.00    -0.030 A 
ATOM     24  C   LIG    1       -3.503  15.974   0.497  0.00  0.00    +0.150 A 
ATOM     25  N   LIG    1       -4.431  16.739  -0.097  0.00  0.00    -0.490 NA
ATOM     26  C   LIG    1       -5.471  16.006  -0.390  0.00  0.00    +0.400 A 
ATOM     27  N   LIG    1       -5.231  14.738   0.008  0.00  0.00    -0.570 N 
ATOM     28  H   LIG    1       -5.832  13.982  -0.085  0.00  0.00    +0.420 HD
ENDBRANCH  22  23
ENDBRANCH  21  22
ENDBRANCH  18  21
ENDBRANCH   1  19
TORSDOF 5
