REMARK  Name = ZINCpk000005Vd2F.0
REMARK                            x       y       z     vdW  Elec       q    Type
REMARK                         _______ _______ _______ _____ _____    ______ ____
ROOT
ATOM      1  C   LIG    1       -0.132   9.813   0.499  0.00  0.00    +0.240 C 
ATOM      2  C   LIG    1        1.196   9.464  -0.187  0.00  0.00    +0.290 C 
ATOM      3  N   LIG    1        0.825   8.046  -0.067  0.00  0.00    -0.650 N 
ATOM      4  C   LIG    1        1.486   6.874   0.023  0.00  0.00    +0.590 C 
ATOM      5  O   LIG    1        2.698   6.865   0.115  0.00  0.00    -0.530 OA
ATOM      6  C   LIG    1       -0.583   8.468  -0.094  0.00  0.00    +0.270 C 
ENDROOT
BRANCH   4   7
ATOM      7  C   LIG    1        0.737   5.602   0.009  0.00  0.00    -0.110 A 
ATOM      8  C   LIG    1        1.409   4.395   0.246  0.00  0.00    +0.050 A 
ATOM      9  C   LIG    1        0.729   3.214   0.235  0.00  0.00    +0.050 A 
ATOM     10  C   LIG    1       -0.648   3.204  -0.012  0.00  0.00    -0.080 A 
ATOM     11  C   LIG    1       -1.655   2.146  -0.088  0.00  0.00    -0.060 A 
ATOM     12  C   LIG    1       -2.830   2.740  -0.362  0.00  0.00    +0.230 A 
ATOM     13  N   LIG    1       -2.658   4.091  -0.460  0.00  0.00    -0.590 N 
ATOM     14  H   LIG    1       -3.363   4.730  -0.648  0.00  0.00    +0.420 HD
ATOM     15  C   LIG    1       -1.334   4.411  -0.251  0.00  0.00    +0.080 A 
ATOM     16  C   LIG    1       -0.634   5.608  -0.239  0.00  0.00    +0.030 A 
ENDBRANCH   4   7
BRANCH   1  19
ATOM     17  O   LIG    1       -1.783  11.235   2.085  0.00  0.00    -0.540 OA
ATOM     18  C   LIG    1       -0.940  10.584   2.664  0.00  0.00    +0.520 C 
ATOM     19  N   LIG    1       -0.064   9.838   1.962  0.00  0.00    -0.710 N 
ATOM     20  H   LIG    1        0.611   9.317   2.425  0.00  0.00    +0.410 HD
BRANCH  18  21
ATOM     21  C   LIG    1       -0.870  10.609   4.170  0.00  0.00    +0.060 C 
BRANCH  21  22
ATOM     22  C   LIG    1       -1.967  11.526   4.715  0.00  0.00    +0.140 C 
BRANCH  22  23
ATOM     23  C   LIG    1       -1.897  11.551   6.221  0.00  0.00    -0.000 A 
ATOM     24  C   LIG    1       -1.780  12.651   6.989  0.00  0.00    +0.130 A 
ATOM     25  N   LIG    1       -1.757  12.225   8.290  0.00  0.00    -0.570 N 
ATOM     26  H   LIG    1       -1.683  12.785   9.078  0.00  0.00    +0.420 HD
ATOM     27  C   LIG    1       -1.852  10.877   8.270  0.00  0.00    +0.400 A 
ATOM     28  N   LIG    1       -1.936  10.482   7.029  0.00  0.00    -0.490 NA
ENDBRANCH  22  23
ENDBRANCH  21  22
ENDBRANCH  18  21
ENDBRANCH   1  19
TORSDOF 5
