REMARK  Name = ZINCqH0000002201.0
REMARK                            x       y       z     vdW  Elec       q    Type
REMARK                         _______ _______ _______ _____ _____    ______ ____
ROOT
ATOM      1  N   LIG    1        0.096   5.197   0.029  0.00  0.00    -0.700 N 
ATOM      2  H   LIG    1       -0.727   5.711   0.040  0.00  0.00    +0.420 HD
ENDROOT
BRANCH   1   8
ATOM      3  C   LIG    1       -2.978   0.537  -1.235  0.00  0.00    +0.090 C 
ATOM      4  C   LIG    1       -2.657   1.348   0.022  0.00  0.00    +0.140 C 
ATOM      5  O   LIG    1       -3.430   2.580   0.032  0.00  0.00    -0.310 OA
ATOM      6  C   LIG    1       -2.585   3.626   0.045  0.00  0.00    +0.530 C 
ATOM      7  C   LIG    1       -1.194   3.157   0.030  0.00  0.00    -0.330 A 
ATOM      8  C   LIG    1        0.047   3.815   0.022  0.00  0.00    +0.480 A 
ATOM      9  N   LIG    1        1.171   3.113   0.008  0.00  0.00    -0.540 NA
ATOM     10  C   LIG    1        1.173   1.795   0.001  0.00  0.00    +0.370 A 
ATOM     11  C   LIG    1       -0.013   1.076   0.008  0.00  0.00    -0.070 A 
ATOM     12  O   LIG    1       -2.924   4.793   0.055  0.00  0.00    -0.470 OA
ATOM     13  C   LIG    1       -2.966   0.523   1.273  0.00  0.00    +0.090 C 
ATOM     14  C   LIG    1       -1.208   1.757   0.017  0.00  0.00    +0.000 A 
ENDBRANCH   1   8
BRANCH   1  15
ATOM     15  C   LIG    1        1.389   5.884   0.021  0.00  0.00    +0.280 C 
BRANCH  15  16
ATOM     16  C   LIG    1        1.163   7.397   0.031  0.00  0.00    +0.130 C 
BRANCH  16  17
ATOM     17  C   LIG    1        2.494   8.104   0.022  0.00  0.00    -0.010 A 
ATOM     18  C   LIG    1        2.894   9.028  -0.871  0.00  0.00    +0.160 A 
ATOM     19  O   LIG    1        4.139   9.408  -0.521  0.00  0.00    -0.190 OA
ATOM     20  C   LIG    1        4.489   8.709   0.572  0.00  0.00    +0.240 A 
ATOM     21  N   LIG    1        3.492   7.921   0.899  0.00  0.00    -0.460 NA
BRANCH  20  22
ATOM     22  C   LIG    1        5.779   8.811   1.287  0.00  0.00    -0.020 A 
ATOM     23  C   LIG    1        6.016   8.031   2.419  0.00  0.00    +0.070 A 
ATOM     24  C   LIG    1        7.225   8.128   3.078  0.00  0.00    +0.010 A 
ATOM     25  C   LIG    1        8.195   9.004   2.626  0.00  0.00    +0.030 A 
ATOM     26  C   LIG    1        7.963   9.784   1.507  0.00  0.00    +0.010 A 
ATOM     27  C   LIG    1        6.762   9.693   0.835  0.00  0.00    +0.040 A 
ENDBRANCH  20  22
ENDBRANCH  16  17
ENDBRANCH  15  16
ENDBRANCH   1  15
TORSDOF 5
