REMARK  Name = ZINCnE000001Tyhs.0
REMARK                            x       y       z     vdW  Elec       q    Type
REMARK                         _______ _______ _______ _____ _____    ______ ____
ROOT
ATOM      1  C   LIG    1        0.053   1.441   0.116  0.00  0.00    -0.020 C 
ATOM      2  C   LIG    1       -0.746   1.802   1.370  0.00  0.00    +0.020 C 
ATOM      3  C   LIG    1       -2.116   1.119   1.312  0.00  0.00    +0.270 C 
ATOM      4  N   LIG    1       -2.774   1.488   0.050  0.00  0.00    -0.600 N 
ATOM      5  C   LIG    1       -2.055   1.267  -1.212  0.00  0.00    +0.260 C 
ATOM      6  C   LIG    1       -4.013   2.018   0.052  0.00  0.00    +0.520 C 
ATOM      7  O   LIG    1       -4.627   2.122   1.092  0.00  0.00    -0.540 OA
ATOM      8  C   LIG    1       -0.686   1.948  -1.125  0.00  0.00    +0.020 C 
ENDROOT
BRANCH   6   9
ATOM      9  C   LIG    1       -4.635   2.482  -1.240  0.00  0.00    -0.010 C 
ATOM     10  C   LIG    1       -4.989   1.267  -2.101  0.00  0.00    +0.040 C 
ATOM     11  C   LIG    1       -5.980   0.379  -1.347  0.00  0.00    +0.020 C 
ATOM     12  C   LIG    1       -7.251   1.176  -1.044  0.00  0.00    +0.020 C 
ATOM     13  C   LIG    1       -6.897   2.390  -0.183  0.00  0.00    +0.000 C 
ATOM     14  C   LIG    1       -5.906   3.279  -0.937  0.00  0.00    +0.060 C 
BRANCH  13  15
ATOM     15  C   LIG    1       -8.168   3.188   0.120  0.00  0.00    +0.450 C 
ATOM     16  F   LIG    1       -7.845   4.298   0.908  0.00  0.00    -0.180 F 
ATOM     17  F   LIG    1       -9.074   2.375   0.810  0.00  0.00    -0.190 F 
ATOM     18  F   LIG    1       -8.745   3.618  -1.079  0.00  0.00    -0.190 F 
ENDBRANCH  13  15
ENDBRANCH   6   9
BRANCH   1  19
ATOM     19  C   LIG    1        1.436   2.093   0.187  0.00  0.00    +0.030 C 
BRANCH  19  20
ATOM     20  C   LIG    1        2.222   1.494   1.355  0.00  0.00    -0.070 C 
BRANCH  20  22
ATOM     21  O   LIG    1        3.896   2.994   0.617  0.00  0.00    -0.700 OA
ATOM     22  C   LIG    1        3.584   2.137   1.426  0.00  0.00    +0.490 C 
ATOM     23  O   LIG    1        4.373   1.799   2.292  0.00  0.00    -0.710 OA
ENDBRANCH  20  22
ENDBRANCH  19  20
ENDBRANCH   1  19
TORSDOF 5
