REMARK  Name = ZINCpk00000e9KV2.1
REMARK                            x       y       z     vdW  Elec       q    Type
REMARK                         _______ _______ _______ _____ _____    ______ ____
ROOT
ATOM      1  C   LIG    1        2.953   5.079   0.003  0.00  0.00    +0.250 C 
ENDROOT
BRANCH   1   2
ATOM      2  C   LIG    1        4.364   5.543  -0.254  0.00  0.00    +0.520 C 
ATOM      3  N   LIG    1        4.643   6.860  -0.292  0.00  0.00    -0.610 N 
ATOM      4  C   LIG    1        3.576   7.842  -0.083  0.00  0.00    +0.290 C 
ATOM      5  O   LIG    1        5.247   4.730  -0.427  0.00  0.00    -0.520 OA
BRANCH   3   6
ATOM      6  C   LIG    1        6.015   7.311  -0.542  0.00  0.00    +0.260 C 
ATOM      7  C   LIG    1        6.477   8.295   0.554  0.00  0.00    +0.080 C 
ATOM      8  C   LIG    1        7.356   9.299  -0.160  0.00  0.00    -0.100 A 
ATOM      9  C   LIG    1        8.280  10.200   0.342  0.00  0.00    +0.020 A 
ATOM     10  C   LIG    1        8.976  11.031  -0.513  0.00  0.00    +0.000 A 
ATOM     11  C   LIG    1        8.749  10.966  -1.875  0.00  0.00    +0.000 A 
ATOM     12  C   LIG    1        7.827  10.068  -2.378  0.00  0.00    +0.020 A 
ATOM     13  C   LIG    1        7.129   9.233  -1.522  0.00  0.00    -0.090 A 
ATOM     14  C   LIG    1        6.083   8.180  -1.816  0.00  0.00    +0.080 C 
ENDBRANCH   3   6
ENDBRANCH   1   2
BRANCH   1  16
ATOM     15  C   LIG    1        3.673   3.056   1.122  0.00  0.00    +0.260 C 
ATOM     16  N   LIG    1        2.912   3.610  -0.005  0.00  0.00    -0.450 N 
BRANCH  16  17
ATOM     17  C   LIG    1        1.606   3.151   0.004  0.00  0.00    +0.430 A 
ATOM     18  C   LIG    1        1.329   1.773  -0.001  0.00  0.00    -0.060 A 
ATOM     19  N   LIG    1        2.085   0.649  -0.014  0.00  0.00    -0.460 NA
ATOM     20  C   LIG    1        1.308  -0.395  -0.013  0.00  0.00    +0.500 A 
ATOM     21  N   LIG    1        0.002  -0.004   0.002  0.00  0.00    -0.580 N 
ATOM     22  H   LIG    1       -0.772  -0.589   0.007  0.00  0.00    +0.430 HD
ATOM     23  C   LIG    1       -0.017   1.368   0.010  0.00  0.00    +0.290 A 
ATOM     24  N   LIG    1       -0.970   2.293   0.028  0.00  0.00    -0.540 NA
ATOM     25  C   LIG    1       -0.663   3.573   0.029  0.00  0.00    +0.560 A 
ATOM     26  N   LIG    1        0.586   4.002   0.019  0.00  0.00    -0.570 NA
ENDBRANCH  16  17
ENDBRANCH   1  16
TORSDOF 4
