REMARK  Name = ZINCpk00000e9KV2.2
REMARK                            x       y       z     vdW  Elec       q    Type
REMARK                         _______ _______ _______ _____ _____    ______ ____
ROOT
ATOM      1  C   LIG    1       -0.151  -2.784  -0.012  0.00  0.00    +0.340 C 
ENDROOT
BRANCH   1   2
ATOM      2  C   LIG    1       -0.603  -3.021  -1.430  0.00  0.00    +0.500 C 
ATOM      3  N   LIG    1       -1.761  -3.667  -1.669  0.00  0.00    -0.610 N 
ATOM      4  C   LIG    1       -2.581  -4.139  -0.551  0.00  0.00    +0.290 C 
ATOM      5  O   LIG    1        0.076  -2.631  -2.356  0.00  0.00    -0.520 OA
BRANCH   3   6
ATOM      6  C   LIG    1       -2.200  -3.898  -3.048  0.00  0.00    +0.250 C 
ATOM      7  C   LIG    1       -3.639  -3.381  -3.259  0.00  0.00    +0.080 C 
ATOM      8  C   LIG    1       -4.273  -4.358  -4.226  0.00  0.00    -0.100 A 
ATOM      9  C   LIG    1       -5.410  -4.238  -5.007  0.00  0.00    +0.020 A 
ATOM     10  C   LIG    1       -5.803  -5.278  -5.828  0.00  0.00    +0.010 A 
ATOM     11  C   LIG    1       -5.060  -6.442  -5.869  0.00  0.00    +0.010 A 
ATOM     12  C   LIG    1       -3.925  -6.564  -5.091  0.00  0.00    +0.020 A 
ATOM     13  C   LIG    1       -3.529  -5.523  -4.268  0.00  0.00    -0.100 A 
ATOM     14  C   LIG    1       -2.345  -5.408  -3.332  0.00  0.00    +0.080 C 
ENDBRANCH   3   6
ENDBRANCH   1   2
BRANCH   1  16
ATOM     15  C   LIG    1        2.386  -2.817  -0.036  0.00  0.00    +0.340 C 
ATOM     16  N   LIG    1        1.127  -2.068  -0.020  0.00  0.00    -0.540 N 
BRANCH  16  17
ATOM     17  C   LIG    1        1.145  -0.696  -0.013  0.00  0.00    +0.540 A 
ATOM     18  C   LIG    1        2.366  -0.000  -0.021  0.00  0.00    -0.110 A 
ATOM     19  N   LIG    1        3.663  -0.350  -0.035  0.00  0.00    -0.500 NA
ATOM     20  C   LIG    1        4.385   0.750  -0.035  0.00  0.00    +0.400 A 
ATOM     21  N   LIG    1        3.595   1.817  -0.022  0.00  0.00    -0.540 NA
ATOM     22  C   LIG    1        2.334   1.412  -0.013  0.00  0.00    +0.220 A 
ATOM     23  N   LIG    1        1.109   2.038   0.002  0.00  0.00    -0.540 N 
ATOM     24  H   LIG    1        1.058   3.007   0.009  0.00  0.00    +0.430 HD
ATOM     25  C   LIG    1       -0.016   1.304   0.009  0.00  0.00    +0.650 A 
ATOM     26  N   LIG    1        0.002  -0.004   0.002  0.00  0.00    -0.580 NA
ENDBRANCH  16  17
ENDBRANCH   1  16
TORSDOF 4
