REMARK  Name = ZINCpk00000e9KV2.0
REMARK                            x       y       z     vdW  Elec       q    Type
REMARK                         _______ _______ _______ _____ _____    ______ ____
ROOT
ATOM      1  C   LIG    1       -1.362  -0.549   0.012  0.00  0.00    +0.260 C 
ENDROOT
BRANCH   1   2
ATOM      2  C   LIG    1       -1.307  -2.036   0.250  0.00  0.00    +0.520 C 
ATOM      3  N   LIG    1       -2.447  -2.753   0.300  0.00  0.00    -0.610 N 
ATOM      4  C   LIG    1       -3.740  -2.087   0.123  0.00  0.00    +0.290 C 
ATOM      5  O   LIG    1       -0.237  -2.588   0.397  0.00  0.00    -0.520 OA
BRANCH   3   6
ATOM      6  C   LIG    1       -2.394  -4.199   0.532  0.00  0.00    +0.260 C 
ATOM      7  C   LIG    1       -3.177  -4.959  -0.560  0.00  0.00    +0.080 C 
ATOM      8  C   LIG    1       -3.804  -6.138   0.152  0.00  0.00    -0.100 A 
ATOM      9  C   LIG    1       -4.340  -7.310  -0.355  0.00  0.00    +0.020 A 
ATOM     10  C   LIG    1       -4.866  -8.261   0.499  0.00  0.00    +0.010 A 
ATOM     11  C   LIG    1       -4.857  -8.041   1.863  0.00  0.00    +0.010 A 
ATOM     12  C   LIG    1       -4.323  -6.873   2.371  0.00  0.00    +0.020 A 
ATOM     13  C   LIG    1       -3.796  -5.919   1.517  0.00  0.00    -0.100 A 
ATOM     14  C   LIG    1       -3.162  -4.578   1.816  0.00  0.00    +0.080 C 
ENDBRANCH   3   6
ENDBRANCH   1   2
BRANCH   1  16
ATOM     15  C   LIG    1        0.764  -0.514  -1.146  0.00  0.00    +0.240 C 
ATOM     16  N   LIG    1        0.002  -0.004   0.002  0.00  0.00    -0.460 N 
BRANCH  16  17
ATOM     17  C   LIG    1       -0.017   1.381   0.010  0.00  0.00    +0.400 A 
ATOM     18  C   LIG    1        1.173   2.111   0.002  0.00  0.00    -0.080 A 
ATOM     19  N   LIG    1        2.516   1.796  -0.013  0.00  0.00    -0.570 N 
ATOM     20  H   LIG    1        2.898   0.905  -0.022  0.00  0.00    +0.430 HD
ATOM     21  C   LIG    1        3.199   2.963  -0.014  0.00  0.00    +0.540 A 
ATOM     22  N   LIG    1        2.370   3.969   0.000  0.00  0.00    -0.490 NA
ATOM     23  C   LIG    1        1.102   3.514   0.011  0.00  0.00    +0.310 A 
ATOM     24  N   LIG    1       -0.101   4.095   0.026  0.00  0.00    -0.500 NA
ATOM     25  C   LIG    1       -1.196   3.366   0.033  0.00  0.00    +0.540 A 
ATOM     26  N   LIG    1       -1.169   2.046   0.019  0.00  0.00    -0.560 NA
ENDBRANCH  16  17
ENDBRANCH   1  16
TORSDOF 4
