REMARK  Name = ZINCpe000000XCgG.0
REMARK                            x       y       z     vdW  Elec       q    Type
REMARK                         _______ _______ _______ _____ _____    ______ ____
ROOT
ATOM      1  C   LIG    1       -5.033   3.944   0.101  0.00  0.00    +0.150 C 
ATOM      2  C   LIG    1       -3.720   3.204   0.063  0.00  0.00    +0.130 A 
ATOM      3  C   LIG    1       -3.713   1.868  -0.157  0.00  0.00    -0.090 A 
ATOM      4  C   LIG    1       -2.456   1.209  -0.185  0.00  0.00    +0.380 A 
ATOM      5  C   LIG    1       -1.258   2.035   0.029  0.00  0.00    -0.040 A 
ATOM      6  N   LIG    1       -1.409   3.326   0.238  0.00  0.00    -0.170 NA
ATOM      7  O   LIG    1       -2.373   0.006  -0.379  0.00  0.00    -0.450 OA
ATOM      8  N   LIG    1       -2.563   3.884   0.251  0.00  0.00    -0.260 N 
ENDROOT
BRANCH   8   9
ATOM      9  C   LIG    1       -2.631   5.263   0.476  0.00  0.00    +0.110 A 
ATOM     10  C   LIG    1       -3.276   6.087  -0.439  0.00  0.00    +0.030 A 
ATOM     11  C   LIG    1       -3.347   7.447  -0.211  0.00  0.00    +0.040 A 
ATOM     12  C   LIG    1       -2.767   7.991   0.921  0.00  0.00    +0.030 A 
ATOM     13  C   LIG    1       -2.120   7.175   1.831  0.00  0.00    +0.040 A 
ATOM     14  C   LIG    1       -2.051   5.813   1.612  0.00  0.00    +0.040 A 
ENDBRANCH   8   9
BRANCH   5  15
ATOM     15  C   LIG    1        0.087   1.428   0.015  0.00  0.00    +0.590 C 
ATOM     16  N   LIG    1        1.177   2.198   0.207  0.00  0.00    -0.710 N 
ATOM     17  H   LIG    1        1.077   3.151   0.358  0.00  0.00    +0.410 HD
ATOM     18  O   LIG    1        0.213   0.233  -0.174  0.00  0.00    -0.490 OA
BRANCH  16  19
ATOM     19  C   LIG    1        2.512   1.596   0.188  0.00  0.00    +0.190 C 
ATOM     20  C   LIG    1        2.738   0.933  -1.172  0.00  0.00    +0.080 C 
ATOM     21  C   LIG    1        3.387   1.963  -2.128  0.00  0.00    -0.300 C 
ATOM     22  S   LIG    1        4.611   2.761  -1.013  0.00  0.00    +2.380 S 
ATOM     23  O   LIG    1        5.736   1.910  -0.846  0.00  0.00    -0.920 OA
ATOM     24  O   LIG    1        4.795   4.117  -1.399  0.00  0.00    -0.930 OA
ATOM     25  C   LIG    1        2.590   0.527   1.280  0.00  0.00    +0.070 C 
ATOM     26  C   LIG    1        3.554   2.685   0.482  0.00  0.00    -0.300 C 
ENDBRANCH  16  19
ENDBRANCH   5  15
TORSDOF 3
