REMARK  Name = ZINCvU00000007Cb.0
REMARK                            x       y       z     vdW  Elec       q    Type
REMARK                         _______ _______ _______ _____ _____    ______ ____
ROOT
ATOM      1  O   LIG    1        0.882  11.760   0.059  0.00  0.00    -0.330 OA
ENDROOT
BRANCH   1   2
ATOM      2  C   LIG    1        1.940  12.595   0.054  0.00  0.00    +0.520 C 
ATOM      3  O   LIG    1        3.068  12.146   0.040  0.00  0.00    -0.480 OA
BRANCH   2  12
ATOM      4  C   LIG    1        1.410  16.152  -1.072  0.00  0.00    +0.170 A 
ATOM      5  N   LIG    1        1.326  16.800   0.063  0.00  0.00    -0.450 NA
ATOM      6  C   LIG    1        1.427  16.177   1.240  0.00  0.00    +0.130 A 
ATOM      7  C   LIG    1        1.333  16.891   2.448  0.00  0.00    +0.060 A 
ATOM      8  C   LIG    1        1.421  16.227   3.633  0.00  0.00    +0.040 A 
ATOM      9  C   LIG    1        1.623  14.850   3.672  0.00  0.00    +0.030 A 
ATOM     10  C   LIG    1        1.725  14.126   2.522  0.00  0.00    +0.010 A 
ATOM     11  C   LIG    1        1.626  14.774   1.284  0.00  0.00    -0.070 A 
ATOM     12  C   LIG    1        1.726  14.057   0.065  0.00  0.00    -0.050 A 
ATOM     13  C   LIG    1        1.611  14.775  -1.119  0.00  0.00    -0.080 A 
ATOM     14  C   LIG    1        1.702  14.067  -2.447  0.00  0.00    +0.120 C 
BRANCH   4  16
ATOM     15  C   LIG    1       -0.182  16.970  -2.788  0.00  0.00    +0.040 C 
ATOM     16  C   LIG    1        1.287  16.919  -2.363  0.00  0.00    +0.100 C 
ENDBRANCH   4  16
ENDBRANCH   2  12
ENDBRANCH   1   2
BRANCH   1  17
ATOM     17  C   LIG    1        1.167  10.336   0.047  0.00  0.00    +0.240 C 
BRANCH  17  18
ATOM     18  C   LIG    1       -0.128   9.565   0.055  0.00  0.00    +0.400 C 
ATOM     19  O   LIG    1       -1.186  10.157   0.069  0.00  0.00    -0.420 OA
BRANCH  18  20
ATOM     20  C   LIG    1       -0.108   8.095   0.046  0.00  0.00    -0.170 A 
ATOM     21  C   LIG    1       -1.310   7.377   0.053  0.00  0.00    +0.090 A 
ATOM     22  C   LIG    1       -1.289   6.007   0.045  0.00  0.00    +0.020 A 
ATOM     23  C   LIG    1       -0.070   5.327   0.030  0.00  0.00    -0.000 A 
ATOM     24  C   LIG    1        1.129   6.040   0.029  0.00  0.00    +0.020 A 
ATOM     25  C   LIG    1        1.113   7.410   0.031  0.00  0.00    +0.070 A 
BRANCH  23  26
ATOM     26  C   LIG    1       -0.050   3.844   0.023  0.00  0.00    -0.060 A 
ATOM     27  C   LIG    1        1.165   3.161   0.008  0.00  0.00    +0.030 A 
ATOM     28  C   LIG    1        1.178   1.781   0.000  0.00  0.00    +0.010 A 
ATOM     29  C   LIG    1       -0.013   1.076   0.008  0.00  0.00    +0.020 A 
ATOM     30  C   LIG    1       -1.221   1.748   0.017  0.00  0.00    +0.010 A 
ATOM     31  C   LIG    1       -1.246   3.128   0.030  0.00  0.00    +0.030 A 
ENDBRANCH  23  26
ENDBRANCH  18  20
ENDBRANCH  17  18
ENDBRANCH   1  17
TORSDOF 7
