REMARK  Name = ZINCrH000004mZZW.0
REMARK                            x       y       z     vdW  Elec       q    Type
REMARK                         _______ _______ _______ _____ _____    ______ ____
ROOT
ATOM      1  C   LIG    1        1.263  -2.000  -0.257  0.00  0.00    +0.310 C 
ATOM      2  C   LIG    1        1.304  -2.647   1.149  0.00  0.00    +0.020 C 
ATOM      3  C   LIG    1        2.624  -2.447   1.766  0.00  0.00    +0.000 C 
ATOM      4  C   LIG    1        2.987  -0.986   2.012  0.00  0.00    +0.010 C 
ATOM      5  C   LIG    1        3.589  -0.402   0.757  0.00  0.00    +0.020 C 
ATOM      6  C   LIG    1        2.490   0.247  -0.110  0.00  0.00    +0.250 C 
ATOM      7  N   LIG    1        1.254  -0.560  -0.129  0.00  0.00    -0.610 N 
ATOM      8  C   LIG    1        0.068   0.072  -0.028  0.00  0.00    +0.710 C 
ATOM      9  N   LIG    1        0.019   1.419  -0.036  0.00  0.00    -0.660 N 
ATOM     10  H   LIG    1        0.841   1.934  -0.043  0.00  0.00    +0.410 HD
ATOM     11  O   LIG    1       -0.958  -0.573   0.071  0.00  0.00    -0.530 OA
ENDROOT
BRANCH   1  15
ATOM     12  C   LIG    1       -2.266  -3.269  -2.306  0.00  0.00    +0.120 A 
ATOM     13  C   LIG    1       -1.425  -2.330  -2.886  0.00  0.00    -0.030 A 
ATOM     14  C   LIG    1       -0.285  -1.921  -2.222  0.00  0.00    +0.050 A 
ATOM     15  C   LIG    1        0.019  -2.447  -0.980  0.00  0.00    -0.090 A 
ATOM     16  C   LIG    1       -0.815  -3.388  -0.402  0.00  0.00    +0.070 A 
ATOM     17  C   LIG    1       -1.959  -3.795  -1.060  0.00  0.00    -0.080 A 
BRANCH  12  19
ATOM     18  C   LIG    1       -4.207  -4.641  -2.300  0.00  0.00    +0.230 C 
ATOM     19  O   LIG    1       -3.388  -3.671  -2.958  0.00  0.00    -0.320 OA
ENDBRANCH  12  19
ENDBRANCH   1  15
BRANCH   9  20
ATOM     20  C   LIG    1       -1.210   2.070  -0.039  0.00  0.00    +0.430 A 
ATOM     21  C   LIG    1       -2.391   1.347   0.083  0.00  0.00    -0.130 A 
ATOM     22  C   LIG    1       -3.595   2.047   0.079  0.00  0.00    +0.440 A 
ATOM     23  N   LIG    1       -3.572   3.372  -0.050  0.00  0.00    -0.600 NA
ATOM     24  C   LIG    1       -2.431   4.019  -0.169  0.00  0.00    +0.560 A 
ATOM     25  N   LIG    1       -1.272   3.394  -0.164  0.00  0.00    -0.600 NA
BRANCH  22  26
ATOM     26  N   LIG    1       -4.800   1.373   0.203  0.00  0.00    -0.600 N 
ATOM     27  C   LIG    1       -6.064   2.104   0.082  0.00  0.00    +0.300 C 
ATOM     28  C   LIG    1       -4.810  -0.070   0.455  0.00  0.00    +0.290 C 
ENDBRANCH  22  26
ENDBRANCH   9  20
TORSDOF 4
