REMARK  Name = ZINCqH0000034mPR.1
REMARK                            x       y       z     vdW  Elec       q    Type
REMARK                         _______ _______ _______ _____ _____    ______ ____
ROOT
ATOM      1  N   LIG    1       -2.273   1.419   0.911  0.00  0.00    -0.680 NA
ATOM      2  H   LIG    1       -2.696   0.630   0.446  0.00  0.00    +0.350 HD
ENDROOT
BRANCH   1   3
ATOM      3  C   LIG    1       -1.333   2.112   0.020  0.00  0.00    +0.220 C 
ATOM      4  C   LIG    1       -1.907   2.150  -1.398  0.00  0.00    +0.010 C 
BRANCH   3   5
ATOM      5  C   LIG    1       -0.017   1.378   0.010  0.00  0.00    -0.090 A 
ATOM      6  C   LIG    1        0.002  -0.004   0.002  0.00  0.00    +0.060 A 
ATOM      7  C   LIG    1        1.207  -0.680  -0.013  0.00  0.00    -0.020 A 
ATOM      8  C   LIG    1        2.399   0.030  -0.021  0.00  0.00    +0.160 A 
ATOM      9  N   LIG    1        3.622  -0.648  -0.037  0.00  0.00    -0.660 N 
ATOM     10  H   LIG    1        3.653  -1.578  -0.310  0.00  0.00    +0.410 HD
ATOM     11  C   LIG    1        4.755  -0.018   0.322  0.00  0.00    +0.520 C 
ATOM     12  C   LIG    1        4.730   1.419   0.767  0.00  0.00    +0.070 C 
ATOM     13  C   LIG    1        3.671   2.190  -0.021  0.00  0.00    +0.090 C 
ATOM     14  O   LIG    1        5.810  -0.616   0.287  0.00  0.00    -0.530 OA
ATOM     15  C   LIG    1        2.377   1.419  -0.013  0.00  0.00    -0.120 A 
ATOM     16  C   LIG    1        1.170   2.089   0.002  0.00  0.00    +0.050 A 
ENDBRANCH   3   5
ENDBRANCH   1   3
BRANCH   1  17
ATOM     17  C   LIG    1       -3.296   2.343   1.417  0.00  0.00    +0.300 C 
BRANCH  17  26
ATOM     18  N   LIG    1       -4.079   1.454   3.669  0.00  0.00    -0.480 N 
ATOM     19  C   LIG    1       -5.147   0.713   4.134  0.00  0.00    +0.050 A 
ATOM     20  C   LIG    1       -5.530   0.251   5.385  0.00  0.00    +0.010 A 
ATOM     21  C   LIG    1       -6.689  -0.485   5.515  0.00  0.00    +0.030 A 
ATOM     22  C   LIG    1       -7.472  -0.766   4.404  0.00  0.00    +0.000 A 
ATOM     23  C   LIG    1       -7.110  -0.319   3.165  0.00  0.00    +0.070 A 
ATOM     24  C   LIG    1       -5.941   0.429   3.009  0.00  0.00    +0.050 A 
ATOM     25  N   LIG    1       -5.332   1.004   1.940  0.00  0.00    -0.490 NA
ATOM     26  C   LIG    1       -4.240   1.598   2.326  0.00  0.00    +0.290 A 
BRANCH  18  28
ATOM     27  C   LIG    1       -3.337   3.386   4.972  0.00  0.00    +0.030 C 
ATOM     28  C   LIG    1       -2.975   1.986   4.472  0.00  0.00    +0.300 C 
ENDBRANCH  18  28
ENDBRANCH  17  26
ENDBRANCH   1  17
TORSDOF 5
