REMARK  Name = ZINCpe000000Xm4K.0
REMARK                            x       y       z     vdW  Elec       q    Type
REMARK                         _______ _______ _______ _____ _____    ______ ____
ROOT
ATOM      1  C   LIG    1       -3.980   2.375   1.454  0.00  0.00    +0.090 C 
ATOM      2  C   LIG    1       -3.664   1.915   0.030  0.00  0.00    +0.000 C 
ENDROOT
BRANCH   2   3
ATOM      3  C   LIG    1       -2.349   1.179   0.020  0.00  0.00    +0.540 C 
ATOM      4  N   LIG    1       -1.191   1.869   0.018  0.00  0.00    -0.690 N 
ATOM      5  H   LIG    1       -1.204   2.839   0.023  0.00  0.00    +0.410 HD
ATOM      6  C   LIG    1       -0.014   1.211   0.009  0.00  0.00    +0.700 C 
ATOM      7  N   LIG    1        1.143   1.901   0.001  0.00  0.00    -0.730 N 
ATOM      8  H   LIG    1        1.130   2.871   0.007  0.00  0.00    +0.400 HD
ATOM      9  O   LIG    1        0.002  -0.004   0.002  0.00  0.00    -0.520 OA
ATOM     10  O   LIG    1       -2.332  -0.033   0.013  0.00  0.00    -0.450 OA
BRANCH   7  11
ATOM     11  C   LIG    1        2.422   1.186  -0.015  0.00  0.00    +0.180 C 
ATOM     12  C   LIG    1        2.527   0.301   1.229  0.00  0.00    +0.030 C 
ATOM     13  C   LIG    1        3.571   2.196  -0.020  0.00  0.00    +0.040 C 
ATOM     14  C   LIG    1        2.503   0.314  -1.270  0.00  0.00    +0.030 C 
ENDBRANCH   7  11
ENDBRANCH   2   3
BRANCH   2  15
ATOM     15  S   LIG    1       -4.976   0.813  -0.554  0.00  0.00    +0.130 S 
BRANCH  15  16
ATOM     16  C   LIG    1       -6.330   1.940  -0.585  0.00  0.00    +0.260 A 
ATOM     17  N   LIG    1       -6.280   3.197  -0.250  0.00  0.00    -0.290 NA
ATOM     18  N   LIG    1       -7.561   3.742  -0.417  0.00  0.00    -0.540 N 
ATOM     19  H   LIG    1       -7.820   4.661  -0.245  0.00  0.00    +0.460 HD
ATOM     20  C   LIG    1       -8.367   2.753  -0.854  0.00  0.00    +0.650 A 
ATOM     21  O   LIG    1       -9.554   2.850  -1.106  0.00  0.00    -0.550 OA
ATOM     22  N   LIG    1       -7.619   1.636  -0.961  0.00  0.00    -0.530 N 
BRANCH  22  23
ATOM     23  C   LIG    1       -8.096   0.324  -1.404  0.00  0.00    +0.350 C 
BRANCH  23  24
ATOM     24  C   LIG    1       -8.580  -0.478  -0.194  0.00  0.00    +0.140 C 
ATOM     25  C   LIG    1       -9.023  -1.897  -0.632  0.00  0.00    +0.030 C 
ATOM     26  C   LIG    1       -8.836  -2.685   0.693  0.00  0.00    +0.020 C 
ATOM     27  C   LIG    1       -7.607  -1.991   1.318  0.00  0.00    +0.190 C 
ATOM     28  O   LIG    1       -7.499  -0.690   0.728  0.00  0.00    -0.370 OA
ENDBRANCH  23  24
ENDBRANCH  22  23
ENDBRANCH  15  16
ENDBRANCH   2  15
TORSDOF 6
