REMARK  Name = ZINCpe000000XSdu.0
REMARK                            x       y       z     vdW  Elec       q    Type
REMARK                         _______ _______ _______ _____ _____    ______ ____
ROOT
ATOM      1  C   LIG    1        0.041  -2.152   1.066  0.00  0.00    +0.220 A 
ATOM      2  N   LIG    1        1.100  -2.903   0.951  0.00  0.00    -0.250 NA
ATOM      3  N   LIG    1        0.755  -4.130   0.787  0.00  0.00    -0.270 NA
ATOM      4  C   LIG    1       -0.554  -4.229   0.788  0.00  0.00    +0.130 A 
ATOM      5  N   LIG    1       -1.050  -2.971   0.971  0.00  0.00    -0.300 N 
ENDROOT
BRANCH   5   6
ATOM      6  N   LIG    1       -2.364  -2.605   1.043  0.00  0.00    -0.580 N 
ATOM      7  H   LIG    1       -2.917  -3.325   1.484  0.00  0.00    +0.380 HD
ATOM      8  H   LIG    1       -2.727  -2.380   0.128  0.00  0.00    +0.370 HD
ENDBRANCH   5   6
BRANCH   1   9
ATOM      9  C   LIG    1        0.023  -0.660   1.272  0.00  0.00    +0.340 C 
BRANCH   9  10
ATOM     10  O   LIG    1        0.002  -0.004   0.002  0.00  0.00    -0.320 OA
BRANCH  10  18
ATOM     11  C   LIG    1       -2.522   1.264   0.021  0.00  0.00    +0.100 C 
ATOM     12  C   LIG    1       -1.226   2.033   0.019  0.00  0.00    -0.090 A 
ATOM     13  C   LIG    1       -1.242   3.414   0.031  0.00  0.00    +0.010 A 
ATOM     14  C   LIG    1       -0.054   4.121   0.024  0.00  0.00    +0.020 A 
ATOM     15  C   LIG    1        1.153   3.447   0.009  0.00  0.00    +0.010 A 
ATOM     16  C   LIG    1        1.175   2.066   0.002  0.00  0.00    -0.090 A 
ATOM     17  C   LIG    1        2.491   1.332  -0.015  0.00  0.00    +0.100 C 
ATOM     18  C   LIG    1       -0.016   1.355   0.009  0.00  0.00    +0.090 A 
ENDBRANCH  10  18
ENDBRANCH   9  10
ENDBRANCH   1   9
BRANCH   4  19
ATOM     19  S   LIG    1       -1.492  -5.708   0.596  0.00  0.00    -0.000 S 
BRANCH  19  20
ATOM     20  C   LIG    1       -0.151  -6.910   0.415  0.00  0.00    +0.130 C 
BRANCH  20  21
ATOM     21  C   LIG    1       -0.742  -8.309   0.230  0.00  0.00    +0.090 C 
BRANCH  21  22
ATOM     22  C   LIG    1        0.374  -9.310   0.079  0.00  0.00    +0.520 C 
ATOM     23  N   LIG    1        0.090 -10.616  -0.097  0.00  0.00    -0.690 N 
ATOM     24  H   LIG    1       -0.834 -10.911  -0.127  0.00  0.00    +0.410 HD
ATOM     25  C   LIG    1        1.088 -11.511  -0.231  0.00  0.00    +0.700 C 
ATOM     26  O   LIG    1        2.245 -11.141  -0.194  0.00  0.00    -0.530 OA
ATOM     27  N   LIG    1        0.804 -12.817  -0.407  0.00  0.00    -0.860 N 
ATOM     28  H   LIG    1        1.522 -13.461  -0.504  0.00  0.00    +0.420 HD
ATOM     29  H   LIG    1       -0.120 -13.112  -0.437  0.00  0.00    +0.400 HD
ATOM     30  O   LIG    1        1.528  -8.941   0.117  0.00  0.00    -0.450 OA
ENDBRANCH  21  22
ENDBRANCH  20  21
ENDBRANCH  19  20
ENDBRANCH   4  19
TORSDOF 8
