REMARK  Name = ZINCrD000000CAUA.0
REMARK                            x       y       z     vdW  Elec       q    Type
REMARK                         _______ _______ _______ _____ _____    ______ ____
ROOT
ATOM      1  O   LIG    1        3.829  -0.744  -2.261  0.00  0.00    -0.520 OA
ATOM      2  C   LIG    1        3.847   0.379  -1.796  0.00  0.00    +0.560 C 
ATOM      3  N   LIG    1        5.014   0.931  -1.411  0.00  0.00    -0.610 N 
ATOM      4  C   LIG    1        5.039   2.240  -0.745  0.00  0.00    +0.270 C 
ATOM      5  C   LIG    1        5.780   2.089   0.594  0.00  0.00    +0.290 C 
ATOM      6  N   LIG    1        7.053   1.395   0.350  0.00  0.00    -0.600 N 
ATOM      7  C   LIG    1        7.029   0.089  -0.322  0.00  0.00    +0.270 C 
ATOM      8  C   LIG    1        8.220   1.948   0.735  0.00  0.00    +0.570 C 
ATOM      9  O   LIG    1        8.229   3.035   1.276  0.00  0.00    -0.520 OA
ATOM     10  C   LIG    1        6.286   0.237  -1.656  0.00  0.00    +0.290 C 
ENDROOT
BRANCH   8  11
ATOM     11  C   LIG    1        9.493   1.228   0.497  0.00  0.00    -0.070 A 
ATOM     12  C   LIG    1       10.684   1.929   0.278  0.00  0.00    +0.050 A 
ATOM     13  C   LIG    1       11.849   1.219   0.060  0.00  0.00    +0.310 A 
ATOM     14  N   LIG    1       11.848  -0.100   0.058  0.00  0.00    -0.460 NA
ATOM     15  C   LIG    1       10.748  -0.799   0.260  0.00  0.00    +0.170 A 
ATOM     16 CL   LIG    1       10.820  -2.533   0.243  0.00  0.00    -0.020 Cl
ATOM     17  C   LIG    1        9.539  -0.169   0.492  0.00  0.00    +0.020 A 
ENDBRANCH   8  11
BRANCH   2  18
ATOM     18  C   LIG    1        2.587   1.139  -1.653  0.00  0.00    -0.100 A 
ATOM     19  C   LIG    1        1.397   0.473  -1.354  0.00  0.00    +0.090 A 
ATOM     20  C   LIG    1        0.225   1.188  -1.221  0.00  0.00    +0.080 A 
ATOM     21  C   LIG    1        0.227   2.563  -1.383  0.00  0.00    -0.160 A 
ATOM     22  C   LIG    1        1.403   3.228  -1.679  0.00  0.00    +0.080 A 
ATOM     23  C   LIG    1        2.582   2.525  -1.815  0.00  0.00    +0.050 A 
BRANCH  21  24
ATOM     24  C   LIG    1       -1.058   3.337  -1.242  0.00  0.00    +0.510 C 
ATOM     25  F   LIG    1       -2.134   2.530  -1.628  0.00  0.00    -0.170 F 
ATOM     26  F   LIG    1       -1.011   4.472  -2.058  0.00  0.00    -0.170 F 
ATOM     27  F   LIG    1       -1.224   3.727   0.092  0.00  0.00    -0.170 F 
ENDBRANCH  21  24
ENDBRANCH   2  18
TORSDOF 3
