REMARK  Name = ZINCrH000004mdBJ.0
REMARK                            x       y       z     vdW  Elec       q    Type
REMARK                         _______ _______ _______ _____ _____    ______ ____
ROOT
ATOM      1  N   LIG    1       -4.526  -0.843  -0.393  0.00  0.00    -0.660 N 
ATOM      2  H   LIG    1       -5.427  -1.169  -0.244  0.00  0.00    +0.420 HD
ATOM      3  C   LIG    1       -3.874  -1.160  -1.530  0.00  0.00    +0.590 C 
ATOM      4  O   LIG    1       -2.716  -0.819  -1.682  0.00  0.00    -0.510 OA
ENDROOT
BRANCH   1   7
ATOM      5  C   LIG    1       -1.920   0.651   1.737  0.00  0.00    +0.130 A 
ATOM      6  C   LIG    1       -2.535  -0.144   0.782  0.00  0.00    +0.000 A 
ATOM      7  C   LIG    1       -3.902  -0.041   0.572  0.00  0.00    +0.170 A 
ATOM      8  C   LIG    1       -4.654   0.862   1.320  0.00  0.00    +0.080 A 
ATOM      9  C   LIG    1       -4.035   1.654   2.273  0.00  0.00    +0.010 A 
ATOM     10  C   LIG    1       -2.672   1.546   2.486  0.00  0.00    -0.050 A 
ATOM     11 CL   LIG    1       -1.901   2.534   3.686  0.00  0.00    -0.050 Cl
BRANCH   5  13
ATOM     12  C   LIG    1        0.131  -0.396   1.143  0.00  0.00    +0.250 C 
ATOM     13  O   LIG    1       -0.580   0.550   1.944  0.00  0.00    -0.300 OA
ENDBRANCH   5  13
BRANCH   8  14
ATOM     14  O   LIG    1       -5.995   0.965   1.115  0.00  0.00    -0.310 OA
ATOM     15  C   LIG    1       -6.703   1.911   1.919  0.00  0.00    +0.250 C 
ENDBRANCH   8  14
ENDBRANCH   1   7
BRANCH   3  16
ATOM     16  C   LIG    1       -4.562  -1.918  -2.584  0.00  0.00    -0.280 A 
ATOM     17  C   LIG    1       -4.023  -2.316  -3.803  0.00  0.00    +0.360 A 
ATOM     18  N   LIG    1       -4.987  -2.983  -4.466  0.00  0.00    -0.350 N 
ATOM     19  N   LIG    1       -6.137  -3.009  -3.669  0.00  0.00    -0.260 NA
ATOM     20  C   LIG    1       -4.854  -3.581  -5.797  0.00  0.00    +0.370 C 
ATOM     21  C   LIG    1       -5.896  -2.386  -2.550  0.00  0.00    +0.290 A 
BRANCH  17  22
ATOM     22  N   LIG    1       -2.731  -2.070  -4.252  0.00  0.00    -0.390 N 
ATOM     23  C   LIG    1       -1.647  -2.877  -4.044  0.00  0.00    +0.030 A 
ATOM     24  C   LIG    1       -0.577  -2.305  -4.632  0.00  0.00    -0.040 A 
ATOM     25  C   LIG    1       -1.011  -1.098  -5.218  0.00  0.00    -0.040 A 
ATOM     26  C   LIG    1       -1.648  -4.182  -3.290  0.00  0.00    +0.130 C 
ATOM     27  C   LIG    1       -2.330  -0.979  -4.972  0.00  0.00    +0.040 A 
ATOM     28  C   LIG    1       -3.212   0.161  -5.413  0.00  0.00    +0.110 C 
ENDBRANCH  17  22
ENDBRANCH   3  16
TORSDOF 5
