REMARK  Name = ZINCbw0000000Hkd.0
REMARK                            x       y       z     vdW  Elec       q    Type
REMARK                         _______ _______ _______ _____ _____    ______ ____
ROOT
ATOM      1  C   LIG    1        1.187   6.975   0.027  0.00  0.00    +0.100 C 
ATOM      2  C   LIG    1        0.497   5.636   0.027  0.00  0.00    -0.140 A 
ATOM      3  C   LIG    1       -0.891   5.575   0.040  0.00  0.00    +0.120 A 
ATOM      4  C   LIG    1       -1.542   4.358   0.040  0.00  0.00    -0.030 A 
ATOM      5  C   LIG    1       -0.802   3.180   0.027  0.00  0.00    +0.110 A 
ATOM      6  N   LIG    1       -1.144   1.846   0.017  0.00  0.00    -0.590 N 
ATOM      7  H   LIG    1       -2.052   1.504   0.019  0.00  0.00    +0.420 HD
ATOM      8  C   LIG    1       -0.013   1.076   0.008  0.00  0.00    +0.220 A 
ATOM      9  C   LIG    1        1.076   1.861   0.002  0.00  0.00    -0.050 A 
ATOM     10  C   LIG    1        0.603   3.248   0.014  0.00  0.00    -0.120 A 
ATOM     11  F   LIG    1       -1.611   6.718   0.052  0.00  0.00    -0.140 F 
ATOM     12  C   LIG    1        1.241   4.490   0.014  0.00  0.00    +0.090 A 
ENDROOT
TORSDOF 0
