REMARK  Name = ZINCpk00000y6wML.0
REMARK                            x       y       z     vdW  Elec       q    Type
REMARK                         _______ _______ _______ _____ _____    ______ ____
ROOT
ATOM      1  C   LIG    1       -0.013   1.086   0.008  0.00  0.00    +0.180 C 
ATOM      2  C   LIG    1       -0.593   1.617   1.343  0.00  0.00    +0.070 C 
ATOM      3  C   LIG    1        0.616   1.531   2.304  0.00  0.00    +0.160 C 
ATOM      4  C   LIG    1        1.856   1.521   1.391  0.00  0.00    +0.170 C 
ATOM      5  N   LIG    1        1.370   1.629  -0.002  0.00  0.00    -0.490 NA
ENDROOT
BRANCH   1  10
ATOM      6  C   LIG    1       -2.418   1.273  -2.901  0.00  0.00    +0.120 A 
ATOM      7  C   LIG    1       -2.240   2.584  -3.319  0.00  0.00    -0.080 A 
ATOM      8  C   LIG    1       -1.344   3.403  -2.660  0.00  0.00    +0.050 A 
ATOM      9  C   LIG    1       -0.625   2.918  -1.584  0.00  0.00    +0.000 A 
ATOM     10  C   LIG    1       -0.799   1.612  -1.165  0.00  0.00    -0.040 A 
ATOM     11  C   LIG    1       -1.690   0.787  -1.824  0.00  0.00    -0.020 A 
BRANCH   6  13
ATOM     12  C   LIG    1       -4.007   1.031  -4.652  0.00  0.00    +0.250 C 
ATOM     13  O   LIG    1       -3.298   0.465  -3.548  0.00  0.00    -0.320 OA
ENDBRANCH   6  13
ENDBRANCH   1  10
BRANCH   3  14
ATOM     14  O   LIG    1        0.554   0.326   3.069  0.00  0.00    -0.570 OA
ATOM     15  H   LIG    1        1.310   0.196   3.659  0.00  0.00    +0.380 HD
ENDBRANCH   3  14
BRANCH   5  16
ATOM     16  C   LIG    1        2.228   0.867  -0.919  0.00  0.00    +0.210 C 
BRANCH  16  17
ATOM     17  C   LIG    1        3.664   1.281  -0.724  0.00  0.00    +0.520 C 
ATOM     18  N   LIG    1        4.636   0.710  -1.463  0.00  0.00    -0.650 N 
ATOM     19  H   LIG    1        4.411   0.034  -2.121  0.00  0.00    +0.410 HD
ATOM     20  O   LIG    1        3.945   2.127   0.098  0.00  0.00    -0.490 OA
BRANCH  18  21
ATOM     21  C   LIG    1        5.965   1.093  -1.282  0.00  0.00    +0.300 A 
ATOM     22  C   LIG    1        6.420   2.029  -0.405  0.00  0.00    -0.100 A 
ATOM     23  C   LIG    1        7.809   2.103  -0.541  0.00  0.00    +0.090 A 
ATOM     24  N   LIG    1        8.177   1.256  -1.468  0.00  0.00    -0.290 NA
ATOM     25  C   LIG    1        8.725   3.009   0.241  0.00  0.00    +0.160 C 
ATOM     26  N   LIG    1        7.035   0.606  -1.952  0.00  0.00    -0.390 N 
ATOM     27  C   LIG    1        7.004  -0.419  -2.998  0.00  0.00    +0.360 C 
ENDBRANCH  18  21
ENDBRANCH  16  17
ENDBRANCH   5  16
TORSDOF 6
