REMARK  Name = ZINCpk00000xIkyi.0
REMARK                            x       y       z     vdW  Elec       q    Type
REMARK                         _______ _______ _______ _____ _____    ______ ____
ROOT
ATOM      1  O   LIG    1        0.002  -0.004   0.002  0.00  0.00    -0.450 OA
ATOM      2  C   LIG    1       -0.014   1.208   0.009  0.00  0.00    +0.500 C 
ATOM      3  N   LIG    1        1.143   1.898   0.001  0.00  0.00    -0.690 N 
ATOM      4  H   LIG    1        1.130   2.868   0.007  0.00  0.00    +0.410 HD
ATOM      5  C   LIG    1        2.320   1.240  -0.013  0.00  0.00    +0.690 C 
ATOM      6  N   LIG    1        3.478   1.930  -0.021  0.00  0.00    -0.730 N 
ATOM      7  H   LIG    1        3.465   2.900  -0.015  0.00  0.00    +0.400 HD
ATOM      8  O   LIG    1        2.336   0.025  -0.020  0.00  0.00    -0.530 OA
ENDROOT
BRANCH   6   9
ATOM      9  C   LIG    1        4.756   1.214  -0.037  0.00  0.00    +0.340 C 
BRANCH   9  10
ATOM     10  C   LIG    1        5.888   2.209  -0.042  0.00  0.00    -0.110 A 
ATOM     11  C   LIG    1        6.400   2.668  -1.242  0.00  0.00    +0.020 A 
ATOM     12  C   LIG    1        7.435   3.584  -1.247  0.00  0.00    +0.010 A 
ATOM     13  C   LIG    1        7.965   4.034  -0.052  0.00  0.00    +0.010 A 
ATOM     14  C   LIG    1        7.457   3.571   1.147  0.00  0.00    +0.010 A 
ATOM     15  C   LIG    1        6.419   2.659   1.152  0.00  0.00    +0.020 A 
ENDBRANCH   9  10
ENDBRANCH   6   9
BRANCH   2  16
ATOM     16  C   LIG    1       -1.330   1.944   0.019  0.00  0.00    +0.380 C 
BRANCH  16  17
ATOM     17  N   LIG    1       -2.430   0.977   0.019  0.00  0.00    -0.420 N 
ATOM     18  N   LIG    1       -2.950   0.540  -1.200  0.00  0.00    -0.230 NA
ATOM     19  C   LIG    1       -3.921  -0.320  -1.281  0.00  0.00    +0.320 A 
ATOM     20  C   LIG    1       -4.523  -0.861  -0.062  0.00  0.00    -0.070 A 
ATOM     21  C   LIG    1       -5.573  -1.780  -0.105  0.00  0.00    +0.050 A 
ATOM     22  C   LIG    1       -6.105  -2.259   1.071  0.00  0.00    +0.050 A 
ATOM     23  C   LIG    1       -5.610  -1.837   2.299  0.00  0.00    +0.030 A 
ATOM     24  C   LIG    1       -4.576  -0.930   2.366  0.00  0.00    +0.090 A 
ATOM     25  C   LIG    1       -4.021  -0.432   1.188  0.00  0.00    -0.120 A 
ATOM     26  C   LIG    1       -2.918   0.537   1.198  0.00  0.00    +0.540 A 
ATOM     27  O   LIG    1       -2.452   0.936   2.250  0.00  0.00    -0.520 OA
ENDBRANCH  16  17
ENDBRANCH   2  16
TORSDOF 4
