REMARK  Name = ZINCtV00001bB3FB.0
REMARK                            x       y       z     vdW  Elec       q    Type
REMARK                         _______ _______ _______ _____ _____    ______ ____
ROOT
ATOM      1  N   LIG    1        2.061   1.702  -0.468  0.00  0.00    -0.530 N 
ATOM      2  C   LIG    1        1.119   2.538  -0.066  0.00  0.00    +0.560 C 
ATOM      3  C   LIG    1       -0.235   1.974  -0.008  0.00  0.00    -0.230 C 
ATOM      4  S   LIG    1       -0.040   0.292  -0.536  0.00  0.00    +0.020 S 
ATOM      5  C   LIG    1       -1.380   2.601   0.362  0.00  0.00    +0.220 C 
ATOM      6  O   LIG    1        1.358   3.692   0.235  0.00  0.00    -0.460 OA
ATOM      7  C   LIG    1        1.710   0.419  -0.788  0.00  0.00    +0.370 C 
ATOM      8  N   LIG    1        2.514  -0.534  -1.202  0.00  0.00    -0.470 NA
ENDROOT
BRANCH   5   9
ATOM      9  C   LIG    1       -2.674   1.926   0.194  0.00  0.00    -0.090 A 
ATOM     10  C   LIG    1       -2.804   0.870  -0.716  0.00  0.00    +0.060 A 
ATOM     11  C   LIG    1       -4.020   0.238  -0.864  0.00  0.00    +0.030 A 
ATOM     12  C   LIG    1       -5.115   0.653  -0.123  0.00  0.00    -0.020 A 
ATOM     13  C   LIG    1       -4.996   1.701   0.774  0.00  0.00    +0.030 A 
ATOM     14 CL   LIG    1       -6.644  -0.145  -0.322  0.00  0.00    -0.060 Cl
ATOM     15  C   LIG    1       -3.785   2.339   0.938  0.00  0.00    +0.070 A 
ENDBRANCH   5   9
BRANCH   8  16
ATOM     16  C   LIG    1        2.013  -1.776  -1.486  0.00  0.00    +0.100 A 
ATOM     17  C   LIG    1        1.111  -2.386  -0.610  0.00  0.00    -0.020 A 
ATOM     18  C   LIG    1        0.607  -3.635  -0.905  0.00  0.00    +0.030 A 
ATOM     19  C   LIG    1        1.002  -4.290  -2.059  0.00  0.00    +0.010 A 
ATOM     20  C   LIG    1        1.899  -3.694  -2.928  0.00  0.00    +0.030 A 
ATOM     21  C   LIG    1        2.407  -2.442  -2.648  0.00  0.00    +0.030 A 
ENDBRANCH   8  16
BRANCH   1  23
ATOM     22  C   LIG    1        3.555   3.292  -1.573  0.00  0.00    +0.050 C 
ATOM     23  C   LIG    1        3.455   2.141  -0.570  0.00  0.00    +0.300 C 
BRANCH  23  24
ATOM     24  C   LIG    1        3.935   2.607   0.780  0.00  0.00    -0.090 A 
ATOM     25  C   LIG    1        4.765   3.709   0.876  0.00  0.00    +0.030 A 
ATOM     26  C   LIG    1        5.202   4.139   2.115  0.00  0.00    +0.010 A 
ATOM     27  C   LIG    1        4.815   3.463   3.257  0.00  0.00    +0.000 A 
ATOM     28  C   LIG    1        3.989   2.359   3.161  0.00  0.00    +0.000 A 
ATOM     29  C   LIG    1        3.549   1.931   1.922  0.00  0.00    +0.000 A 
ENDBRANCH  23  24
ENDBRANCH   1  23
TORSDOF 4
