REMARK  Name = ZINCrH00000No57q.0
REMARK                            x       y       z     vdW  Elec       q    Type
REMARK                         _______ _______ _______ _____ _____    ______ ____
ROOT
ATOM      1  N   LIG    1        0.778   1.922   0.325  0.00  0.00    -0.610 N 
ATOM      2  C   LIG    1       -0.373   1.256   0.477  0.00  0.00    +0.500 C 
ATOM      3  C   LIG    1       -1.212   2.426   0.058  0.00  0.00    +0.170 C 
ATOM      4  O   LIG    1       -0.638   0.123   0.821  0.00  0.00    -0.490 OA
ATOM      5  C   LIG    1        0.119   3.151  -0.096  0.00  0.00    +0.310 C 
ENDROOT
BRANCH   5   6
ATOM      6  C   LIG    1        0.425   3.539  -1.520  0.00  0.00    -0.050 A 
ATOM      7  C   LIG    1        0.892   2.589  -2.409  0.00  0.00    +0.000 A 
ATOM      8  C   LIG    1        1.169   2.941  -3.717  0.00  0.00    +0.040 A 
ATOM      9  C   LIG    1        0.990   4.245  -4.136  0.00  0.00    -0.070 A 
ATOM     10  C   LIG    1        0.525   5.201  -3.244  0.00  0.00    +0.130 A 
ATOM     11  C   LIG    1        0.243   4.844  -1.934  0.00  0.00    +0.000 A 
BRANCH  10  12
ATOM     12  O   LIG    1        0.348   6.484  -3.654  0.00  0.00    -0.320 OA
ATOM     13  C   LIG    1        0.659   6.779  -5.017  0.00  0.00    +0.250 C 
ENDBRANCH  10  12
ENDBRANCH   5   6
BRANCH   1  14
ATOM     14  C   LIG    1        2.183   1.552   0.514  0.00  0.00    +0.310 C 
BRANCH  14  15
ATOM     15  C   LIG    1        2.742   0.989  -0.794  0.00  0.00    +0.010 C 
BRANCH  15  16
ATOM     16  C   LIG    1        4.209   0.602  -0.597  0.00  0.00    +0.020 C 
BRANCH  16  17
ATOM     17  C   LIG    1        4.768   0.039  -1.905  0.00  0.00    +0.160 C 
BRANCH  17  19
ATOM     18  C   LIG    1        6.759  -0.862  -2.890  0.00  0.00    +0.200 C 
ATOM     19  O   LIG    1        6.139  -0.322  -1.722  0.00  0.00    -0.390 OA
ENDBRANCH  17  19
ENDBRANCH  16  17
ENDBRANCH  15  16
ENDBRANCH  14  15
ENDBRANCH   1  14
BRANCH   3  20
ATOM     20  O   LIG    1       -1.911   2.228  -1.172  0.00  0.00    -0.270 OA
BRANCH  20  21
ATOM     21  C   LIG    1       -3.144   1.662  -1.097  0.00  0.00    +0.120 A 
ATOM     22  C   LIG    1       -3.626   1.204   0.120  0.00  0.00    -0.060 A 
ATOM     23  C   LIG    1       -4.880   0.629   0.194  0.00  0.00    +0.040 A 
ATOM     24  C   LIG    1       -5.654   0.509  -0.945  0.00  0.00    -0.030 A 
ATOM     25  C   LIG    1       -5.177   0.965  -2.160  0.00  0.00    +0.040 A 
ATOM     26  C   LIG    1       -3.926   1.545  -2.238  0.00  0.00    -0.110 A 
ATOM     27  C   LIG    1       -3.409   2.047  -3.561  0.00  0.00    +0.090 C 
ENDBRANCH  20  21
ENDBRANCH   3  20
TORSDOF 9
