REMARK  Name = ZINCkj000005h9Zk.0
REMARK                            x       y       z     vdW  Elec       q    Type
REMARK                         _______ _______ _______ _____ _____    ______ ____
ROOT
ATOM      1  C   LIG    1       -3.896   3.686  -0.611  0.00  0.00    +0.520 C 
ATOM      2  N   LIG    1       -2.924   3.021   0.046  0.00  0.00    -0.740 N 
ATOM      3  H   LIG    1       -2.238   3.513   0.524  0.00  0.00    +0.390 HD
ATOM      4  O   LIG    1       -4.753   3.071  -1.208  0.00  0.00    -0.520 OA
ENDROOT
BRANCH   2   5
ATOM      5  C   LIG    1       -2.904   1.556   0.038  0.00  0.00    +0.260 C 
ATOM      6  C   LIG    1       -2.188   1.063  -1.221  0.00  0.00    +0.030 C 
ATOM      7  C   LIG    1       -0.753   1.593  -1.232  0.00  0.00    +0.040 C 
ATOM      8  C   LIG    1       -0.013   1.086   0.008  0.00  0.00    +0.040 C 
ATOM      9  C   LIG    1       -0.729   1.579   1.267  0.00  0.00    +0.150 C 
ATOM     10  C   LIG    1       -2.164   1.050   1.278  0.00  0.00    +0.050 C 
BRANCH   9  11
ATOM     11  N   LIG    1       -0.018   1.093   2.457  0.00  0.00    -0.380 N 
ATOM     12  C   LIG    1       -0.706   1.566   3.666  0.00  0.00    +0.330 C 
ATOM     13  C   LIG    1        1.360   1.601   2.446  0.00  0.00    +0.330 C 
ATOM     14  H   LIG    1       -0.005   0.084   2.451  0.00  0.00    +0.430 HD
ENDBRANCH   9  11
ENDBRANCH   2   5
BRANCH   1  15
ATOM     15  C   LIG    1       -3.916   5.193  -0.602  0.00  0.00    +0.060 C 
BRANCH  15  16
ATOM     16  C   LIG    1       -5.112   5.691  -1.415  0.00  0.00    +0.140 C 
BRANCH  16  20
ATOM     17  C   LIG    1       -6.040  10.446  -0.132  0.00  0.00    +0.360 C 
ATOM     18  N   LIG    1       -5.541   9.267  -0.843  0.00  0.00    -0.370 N 
ATOM     19  C   LIG    1       -5.767   7.980  -0.504  0.00  0.00    +0.230 A 
ATOM     20  C   LIG    1       -5.133   7.198  -1.407  0.00  0.00    -0.250 A 
ATOM     21  C   LIG    1       -4.505   8.034  -2.336  0.00  0.00    +0.230 A 
ATOM     22  N   LIG    1       -4.748   9.275  -1.998  0.00  0.00    -0.290 NA
ENDBRANCH  16  20
ENDBRANCH  15  16
ENDBRANCH   1  15
TORSDOF 5
