REMARK  Name = ZINCqH0000004ybg.0
REMARK                            x       y       z     vdW  Elec       q    Type
REMARK                         _______ _______ _______ _____ _____    ______ ____
ROOT
ATOM      1  C   LIG    1        3.629   2.330  -0.121  0.00  0.00    +0.050 A 
ATOM      2  C   LIG    1        4.518   1.317  -0.282  0.00  0.00    +0.040 A 
ATOM      3  C   LIG    1        3.835   0.108  -0.083  0.00  0.00    +0.270 A 
ATOM      4  N   LIG    1        2.585   0.382   0.193  0.00  0.00    -0.260 NA
ATOM      5  N   LIG    1        2.424   1.773   0.180  0.00  0.00    -0.330 N 
ENDROOT
BRANCH   2   6
ATOM      6  N   LIG    1        5.883   1.455  -0.599  0.00  0.00    -0.650 N 
ATOM      7  H   LIG    1        6.267   2.338  -0.718  0.00  0.00    +0.400 HD
ATOM      8  C   LIG    1        6.657   0.361  -0.737  0.00  0.00    +0.730 C 
ATOM      9  N   LIG    1        7.964   0.493  -1.040  0.00  0.00    -0.630 N 
ATOM     10  C   LIG    1        8.672   1.769  -1.254  0.00  0.00    +0.240 C 
ATOM     11  C   LIG    1       10.164   1.452  -0.954  0.00  0.00    +0.060 C 
ATOM     12  C   LIG    1       10.284   0.019  -1.500  0.00  0.00    -0.110 C 
ATOM     13  C   LIG    1       11.424  -0.746  -0.821  0.00  0.00    +0.020 C 
ATOM     14  C   LIG    1       12.343  -1.149  -1.999  0.00  0.00    +0.190 C 
ATOM     15  O   LIG    1       12.055  -0.188  -3.040  0.00  0.00    -0.370 OA
ATOM     16  C   LIG    1       10.622   0.014  -2.994  0.00  0.00    +0.220 C 
ATOM     17  C   LIG    1        8.921  -0.614  -1.219  0.00  0.00    +0.290 C 
ATOM     18  O   LIG    1        6.177  -0.746  -0.587  0.00  0.00    -0.570 OA
ENDBRANCH   2   6
BRANCH   5  19
ATOM     19  C   LIG    1        1.232   2.469   0.428  0.00  0.00    +0.170 A 
ATOM     20  C   LIG    1        0.796   3.440  -0.462  0.00  0.00    +0.030 A 
ATOM     21  C   LIG    1       -0.379   4.124  -0.215  0.00  0.00    +0.040 A 
ATOM     22  C   LIG    1       -1.120   3.842   0.917  0.00  0.00    +0.040 A 
ATOM     23  C   LIG    1       -0.692   2.871   1.804  0.00  0.00    +0.040 A 
ATOM     24  C   LIG    1        0.485   2.187   1.565  0.00  0.00    -0.030 A 
ATOM     25 CL   LIG    1        1.026   0.973   2.682  0.00  0.00    -0.040 Cl
ENDBRANCH   5  19
BRANCH   1  27
ATOM     26  C   LIG    1        4.223   4.384   1.134  0.00  0.00    +0.040 C 
ATOM     27  C   LIG    1        3.923   3.803  -0.248  0.00  0.00    +0.100 C 
ENDBRANCH   1  27
TORSDOF 3
