REMARK  Name = ZINCpe000027pHtU.1
REMARK                            x       y       z     vdW  Elec       q    Type
REMARK                         _______ _______ _______ _____ _____    ______ ____
ROOT
ATOM      1  C   LIG    1        4.047   0.557  -1.436  0.00  0.00    +0.150 C 
ATOM      2  C   LIG    1        4.174  -0.987  -1.461  0.00  0.00    +0.280 C 
ATOM      3  N   LIG    1        4.561  -1.356  -0.087  0.00  0.00    -0.620 N 
ATOM      4  C   LIG    1        4.116  -0.296   0.829  0.00  0.00    +0.280 C 
ATOM      5  C   LIG    1        5.214  -2.480   0.270  0.00  0.00    +0.540 C 
ATOM      6  O   LIG    1        5.533  -3.290  -0.574  0.00  0.00    -0.520 OA
ATOM      7  C   LIG    1        3.442   0.797  -0.027  0.00  0.00    +0.280 C 
ENDROOT
BRANCH   7   8
ATOM      8  N   LIG    1        1.989   0.615  -0.049  0.00  0.00    -0.270 N 
ATOM      9  C   LIG    1        1.338  -0.572  -0.051  0.00  0.00    +0.140 A 
ATOM     10  C   LIG    1        0.017  -0.277  -0.074  0.00  0.00    +0.140 A 
ATOM     11  N   LIG    1       -0.075   1.057  -0.086  0.00  0.00    -0.270 NA
ATOM     12  N   LIG    1        1.111   1.556  -0.071  0.00  0.00    -0.080 NA
ENDBRANCH   7   8
BRANCH   1  14
ATOM     13  C   LIG    1        3.037   2.493  -2.481  0.00  0.00    +0.210 C 
ATOM     14  N   LIG    1        3.136   1.028  -2.487  0.00  0.00    -0.530 NA
ATOM     15  C   LIG    1        3.554   0.534  -3.806  0.00  0.00    +0.200 C 
ENDBRANCH   1  14
BRANCH   5  16
ATOM     16  C   LIG    1        5.547  -2.730   1.718  0.00  0.00    +0.070 C 
BRANCH  16  17
ATOM     17  C   LIG    1        6.282  -4.065   1.849  0.00  0.00    +0.070 C 
BRANCH  17  18
ATOM     18  C   LIG    1        6.620  -4.319   3.320  0.00  0.00    +0.200 C 
BRANCH  18  19
ATOM     19  O   LIG    1        7.307  -5.566   3.442  0.00  0.00    -0.310 OA
BRANCH  19  20
ATOM     20  C   LIG    1        7.681  -5.944   4.692  0.00  0.00    +0.080 A 
ATOM     21  C   LIG    1        8.354  -7.145   4.895  0.00  0.00    +0.030 A 
ATOM     22  C   LIG    1        8.716  -7.488   6.188  0.00  0.00    +0.010 A 
ATOM     23  C   LIG    1        8.398  -6.633   7.226  0.00  0.00    +0.220 A 
ATOM     24  N   LIG    1        7.759  -5.501   7.000  0.00  0.00    -0.450 NA
ATOM     25  C   LIG    1        7.403  -5.136   5.785  0.00  0.00    +0.180 A 
ENDBRANCH  19  20
ENDBRANCH  18  19
ENDBRANCH  17  18
ENDBRANCH  16  17
ENDBRANCH   5  16
TORSDOF 7
