REMARK  Name = ZINCpe000000Ykfl.0
REMARK                            x       y       z     vdW  Elec       q    Type
REMARK                         _______ _______ _______ _____ _____    ______ ____
ROOT
ATOM      1  N   LIG    1       -2.053   1.205   1.401  0.00  0.00    -0.720 N 
ATOM      2  H   LIG    1       -2.474   0.588   0.782  0.00  0.00    +0.400 HD
ATOM      3  C   LIG    1       -0.781   1.601   1.198  0.00  0.00    +0.500 C 
ATOM      4  O   LIG    1       -0.255   2.372   1.972  0.00  0.00    -0.510 OA
ENDROOT
BRANCH   3   5
ATOM      5  C   LIG    1       -0.013   1.086   0.008  0.00  0.00    +0.210 C 
ATOM      6  C   LIG    1       -0.607   1.633  -1.312  0.00  0.00    +0.110 C 
ATOM      7  C   LIG    1        0.234   2.874  -1.543  0.00  0.00    -0.170 A 
ATOM      8  C   LIG    1        0.062   3.967  -2.362  0.00  0.00    +0.100 A 
ATOM      9  C   LIG    1        0.999   4.987  -2.360  0.00  0.00    -0.120 A 
ATOM     10  C   LIG    1        2.103   4.903  -1.531  0.00  0.00    +0.090 A 
ATOM     11  C   LIG    1        2.278   3.807  -0.712  0.00  0.00    +0.020 A 
ATOM     12 BR   LIG    1        0.768   6.490  -3.484  0.00  0.00    -0.040 Br
ATOM     13  C   LIG    1        1.344   2.774  -0.713  0.00  0.00    +0.130 A 
ATOM     14  O   LIG    1        1.325   1.613  -0.002  0.00  0.00    -0.270 OA
ENDBRANCH   3   5
BRANCH   1  15
ATOM     15  C   LIG    1       -2.800   1.705   2.558  0.00  0.00    +0.280 C 
BRANCH  15  16
ATOM     16  C   LIG    1       -4.207   1.106   2.555  0.00  0.00    +0.020 C 
BRANCH  16  17
ATOM     17  C   LIG    1       -4.987   1.628   3.763  0.00  0.00    +0.320 C 
BRANCH  17  23
ATOM     18  C   LIG    1       -8.023  -1.923   5.105  0.00  0.00    +0.350 C 
ATOM     19  N   LIG    1       -7.799  -0.656   4.405  0.00  0.00    -0.540 N 
ATOM     20  C   LIG    1       -8.841  -0.039   3.769  0.00  0.00    +0.350 A 
ATOM     21  C   LIG    1       -8.634   1.129   3.124  0.00  0.00    -0.130 A 
ATOM     22  C   LIG    1       -7.337   1.696   3.125  0.00  0.00    +0.540 A 
ATOM     23  N   LIG    1       -6.335   1.054   3.760  0.00  0.00    -0.550 N 
ATOM     24  O   LIG    1       -7.127   2.751   2.554  0.00  0.00    -0.510 OA
ATOM     25  C   LIG    1       -6.569  -0.109   4.395  0.00  0.00    +0.690 A 
ATOM     26  O   LIG    1       -5.657  -0.674   4.966  0.00  0.00    -0.530 OA
ENDBRANCH  17  23
ENDBRANCH  16  17
ENDBRANCH  15  16
ENDBRANCH   1  15
TORSDOF 5
