REMARK  Name = ZINCpk00000H2mOH.0
REMARK                            x       y       z     vdW  Elec       q    Type
REMARK                         _______ _______ _______ _____ _____    ______ ____
ROOT
ATOM      1  N   LIG    1        0.642  -0.606   1.171  0.00  0.00    -0.520 NA
ATOM      2  C   LIG    1        0.002  -0.004   0.002  0.00  0.00    +0.170 C 
ATOM      3  C   LIG    1       -0.018   1.471   0.010  0.00  0.00    +0.020 C 
ATOM      4  C   LIG    1        1.433   2.014  -0.001  0.00  0.00    +0.270 C 
ATOM      5  N   LIG    1        2.066   1.729   1.269  0.00  0.00    -0.590 N 
ATOM      6  C   LIG    1        2.803   0.476   1.535  0.00  0.00    +0.290 C 
ATOM      7  C   LIG    1        1.979   2.647   2.252  0.00  0.00    +0.520 C 
ATOM      8  O   LIG    1        2.499   2.435   3.327  0.00  0.00    -0.510 OA
ATOM      9  C   LIG    1        2.067  -0.747   0.957  0.00  0.00    +0.170 C 
ENDROOT
BRANCH   7  10
ATOM     10  C   LIG    1        1.235   3.936   2.016  0.00  0.00    +0.180 C 
ATOM     11  C   LIG    1       -0.280   3.671   1.848  0.00  0.00    +0.100 C 
ATOM     12  C   LIG    1       -0.887   4.881   2.531  0.00  0.00    -0.180 A 
ATOM     13  C   LIG    1       -2.156   5.416   2.508  0.00  0.00    +0.060 A 
ATOM     14  C   LIG    1       -2.438   6.558   3.237  0.00  0.00    -0.020 A 
ATOM     15  C   LIG    1       -1.443   7.158   3.986  0.00  0.00    +0.050 A 
ATOM     16  C   LIG    1       -0.172   6.622   4.012  0.00  0.00    +0.000 A 
ATOM     17  C   LIG    1        0.119   5.471   3.284  0.00  0.00    +0.100 A 
ATOM     18  O   LIG    1        1.288   4.775   3.182  0.00  0.00    -0.270 OA
ENDBRANCH   7  10
BRANCH   1  19
ATOM     19  C   LIG    1        0.029  -1.899   1.501  0.00  0.00    +0.310 C 
BRANCH  19  25
ATOM     20  C   LIG    1        2.373  -3.856   0.979  0.00  0.00    +0.320 C 
ATOM     21  N   LIG    1        1.880  -3.449   2.297  0.00  0.00    -0.460 N 
ATOM     22  C   LIG    1        2.369  -3.858   3.509  0.00  0.00    +0.130 A 
ATOM     23  C   LIG    1        1.626  -3.251   4.454  0.00  0.00    +0.150 A 
ATOM     24  N   LIG    1        0.712  -2.488   3.836  0.00  0.00    -0.470 NA
ATOM     25  C   LIG    1        0.861  -2.599   2.544  0.00  0.00    +0.200 A 
ENDBRANCH  19  25
ENDBRANCH   1  19
TORSDOF 3
