REMARK  Name = ZINCnE000001CoVe.0
REMARK                            x       y       z     vdW  Elec       q    Type
REMARK                         _______ _______ _______ _____ _____    ______ ____
ROOT
ATOM      1  N   LIG    1       -0.242   1.246   2.466  0.00  0.00    -0.670 NA
ATOM      2  C   LIG    1       -0.718   1.572   1.248  0.00  0.00    +0.460 C 
ATOM      3  O   LIG    1       -1.715   2.256   1.150  0.00  0.00    -0.570 OA
ENDROOT
BRANCH   1   7
ATOM      4  C   LIG    1       -1.794   2.317   5.828  0.00  0.00    -0.100 A 
ATOM      5  N   LIG    1       -2.424   2.749   4.775  0.00  0.00    -0.230 NA
ATOM      6  N   LIG    1       -1.960   2.435   3.645  0.00  0.00    -0.350 NA
ATOM      7  C   LIG    1       -0.893   1.695   3.612  0.00  0.00    +0.330 A 
ATOM      8  S   LIG    1       -0.412   1.367   5.278  0.00  0.00    +0.000 S 
BRANCH   4   9
ATOM      9  S   LIG    1       -2.240   2.626   7.504  0.00  0.00    -0.030 S 
BRANCH   9  10
ATOM     10  C   LIG    1       -3.730   3.650   7.348  0.00  0.00    +0.120 C 
BRANCH  10  12
ATOM     11  C   LIG    1       -4.242   5.253   9.117  0.00  0.00    +0.030 C 
ATOM     12  C   LIG    1       -4.242   4.004   8.720  0.00  0.00    -0.020 C 
ENDBRANCH  10  12
ENDBRANCH   9  10
ENDBRANCH   4   9
ENDBRANCH   1   7
BRANCH   2  13
ATOM     13  C   LIG    1       -0.013   1.086   0.008  0.00  0.00    +0.050 C 
BRANCH  13  14
ATOM     14  C   LIG    1       -0.753   1.593  -1.232  0.00  0.00    +0.160 C 
BRANCH  14  15
ATOM     15  C   LIG    1       -0.047   1.107  -2.471  0.00  0.00    +0.010 A 
ATOM     16  C   LIG    1       -0.303  -0.045  -3.109  0.00  0.00    -0.020 A 
ATOM     17  C   LIG    1        0.624  -0.088  -4.252  0.00  0.00    -0.280 A 
ATOM     18  C   LIG    1        1.353   1.067  -4.176  0.00  0.00    +0.070 A 
ATOM     19  C   LIG    1        2.442   1.488  -5.130  0.00  0.00    +0.190 C 
ATOM     20  O   LIG    1        0.932   1.761  -3.115  0.00  0.00    -0.170 OA
BRANCH  17  21
ATOM     21  C   LIG    1        0.742  -1.147  -5.259  0.00  0.00    +0.430 C 
ATOM     22  O   LIG    1        1.557  -1.047  -6.152  0.00  0.00    -0.480 OA
ATOM     23  C   LIG    1       -0.151  -2.359  -5.186  0.00  0.00    +0.070 C 
ENDBRANCH  17  21
ENDBRANCH  14  15
ENDBRANCH  13  14
ENDBRANCH   2  13
TORSDOF 8
