REMARK  Name = ZINCpe000000WBig.0
REMARK                            x       y       z     vdW  Elec       q    Type
REMARK                         _______ _______ _______ _____ _____    ______ ____
ROOT
ATOM      1  N   LIG    1       -4.936   5.119   8.115  0.00  0.00    -0.480 N 
ATOM      2  C   LIG    1       -5.262   3.716   8.406  0.00  0.00    +0.220 C 
ATOM      3  C   LIG    1       -4.270   2.804   7.681  0.00  0.00    +0.190 C 
ATOM      4  N   LIG    1       -4.331   3.067   6.237  0.00  0.00    -0.520 NA
ATOM      5  C   LIG    1       -4.005   4.470   5.946  0.00  0.00    +0.200 C 
ATOM      6  C   LIG    1       -4.997   5.382   6.670  0.00  0.00    +0.210 C 
ENDROOT
BRANCH   1  11
ATOM      7  C   LIG    1       -6.466   8.203   9.376  0.00  0.00    +0.190 A 
ATOM      8  C   LIG    1       -7.436   7.636  10.203  0.00  0.00    -0.150 A 
ATOM      9  C   LIG    1       -7.526   6.264  10.294  0.00  0.00    +0.320 A 
ATOM     10  N   LIG    1       -6.709   5.484   9.611  0.00  0.00    -0.540 NA
ATOM     11  C   LIG    1       -5.774   5.981   8.814  0.00  0.00    +0.350 A 
ATOM     12  C   LIG    1       -5.618   7.354   8.675  0.00  0.00    -0.080 A 
BRANCH   7  14
ATOM     13  C   LIG    1       -7.261  10.346  10.023  0.00  0.00    +0.250 C 
ATOM     14  O   LIG    1       -6.350   9.550   9.262  0.00  0.00    -0.310 OA
ENDBRANCH   7  14
ENDBRANCH   1  11
BRANCH   4  15
ATOM     15  C   LIG    1       -3.446   2.156   5.498  0.00  0.00    +0.180 C 
ATOM     16  C   LIG    1       -2.071   2.126   6.168  0.00  0.00    +0.030 C 
BRANCH  15  17
ATOM     17  C   LIG    1       -4.037   0.770   5.500  0.00  0.00    +0.520 C 
ATOM     18  N   LIG    1       -3.572  -0.162   4.645  0.00  0.00    -0.730 N 
ATOM     19  H   LIG    1       -2.856   0.059   4.028  0.00  0.00    +0.400 HD
ATOM     20  O   LIG    1       -4.932   0.493   6.271  0.00  0.00    -0.520 OA
BRANCH  18  21
ATOM     21  C   LIG    1       -4.146  -1.510   4.647  0.00  0.00    +0.290 C 
BRANCH  21  22
ATOM     22  C   LIG    1       -3.444  -2.365   3.590  0.00  0.00    +0.140 C 
ATOM     23  C   LIG    1       -4.035  -3.792   3.574  0.00  0.00    +0.010 C 
ATOM     24  C   LIG    1       -4.033  -4.183   2.079  0.00  0.00    +0.000 C 
ATOM     25  C   LIG    1       -3.442  -2.945   1.368  0.00  0.00    +0.190 C 
ATOM     26  O   LIG    1       -3.701  -1.843   2.265  0.00  0.00    -0.370 OA
ENDBRANCH  21  22
ENDBRANCH  18  21
ENDBRANCH  15  17
ENDBRANCH   4  15
TORSDOF 6
