REMARK  Name = ZINCrH000004uTVN.0
REMARK                            x       y       z     vdW  Elec       q    Type
REMARK                         _______ _______ _______ _____ _____    ______ ____
ROOT
ATOM      1  O   LIG    1       -2.018  -0.092  -0.917  0.00  0.00    -0.520 OA
ATOM      2  C   LIG    1       -1.051  -0.690  -0.485  0.00  0.00    +0.560 C 
ATOM      3  N   LIG    1        0.002  -0.004   0.002  0.00  0.00    -0.710 N 
ATOM      4  H   LIG    1        0.773  -0.481   0.347  0.00  0.00    +0.410 HD
ENDROOT
BRANCH   2   5
ATOM      5  C   LIG    1       -1.031  -2.168  -0.493  0.00  0.00    -0.100 A 
ATOM      6  C   LIG    1        0.079  -2.857  -0.003  0.00  0.00    +0.050 A 
ATOM      7  C   LIG    1        0.090  -4.236  -0.009  0.00  0.00    +0.070 A 
ATOM      8  C   LIG    1       -0.993  -4.937  -0.510  0.00  0.00    -0.160 A 
ATOM      9  C   LIG    1       -2.095  -4.260  -1.002  0.00  0.00    +0.070 A 
ATOM     10  C   LIG    1       -2.120  -2.881  -0.997  0.00  0.00    +0.090 A 
BRANCH   8  11
ATOM     11  C   LIG    1       -0.972  -6.444  -0.518  0.00  0.00    +0.510 C 
ATOM     12  F   LIG    1       -2.279  -6.929  -0.393  0.00  0.00    -0.170 F 
ATOM     13  F   LIG    1       -0.199  -6.906   0.552  0.00  0.00    -0.170 F 
ATOM     14  F   LIG    1       -0.421  -6.896  -1.722  0.00  0.00    -0.170 F 
ENDBRANCH   8  11
ENDBRANCH   2   5
BRANCH   3  15
ATOM     15  C   LIG    1       -0.018   1.461   0.010  0.00  0.00    +0.270 C 
BRANCH  15  16
ATOM     16  C   LIG    1       -0.723   1.947   1.250  0.00  0.00    -0.100 A 
ATOM     17  C   LIG    1       -0.520   1.305   2.457  0.00  0.00    +0.020 A 
ATOM     18  C   LIG    1       -1.163   1.754   3.595  0.00  0.00    +0.000 A 
ATOM     19  C   LIG    1       -2.018   2.838   3.525  0.00  0.00    +0.010 A 
ATOM     20  C   LIG    1       -2.225   3.477   2.316  0.00  0.00    +0.000 A 
ATOM     21  C   LIG    1       -1.578   3.031   1.179  0.00  0.00    +0.020 A 
ENDBRANCH  15  16
BRANCH  15  22
ATOM     22  C   LIG    1        1.418   1.990  -0.001  0.00  0.00    +0.310 C 
BRANCH  22  23
ATOM     23  N   LIG    1        2.139   1.422  -1.142  0.00  0.00    -0.620 N 
ATOM     24  C   LIG    1        2.197   2.036  -2.474  0.00  0.00    +0.260 C 
ATOM     25  C   LIG    1        2.666   0.913  -3.425  0.00  0.00    +0.040 C 
ATOM     26  C   LIG    1        3.440  -0.015  -2.460  0.00  0.00    +0.050 C 
ATOM     27  C   LIG    1        2.838   0.275  -1.103  0.00  0.00    +0.520 C 
ATOM     28  O   LIG    1        2.966  -0.427  -0.122  0.00  0.00    -0.540 OA
ENDBRANCH  22  23
ENDBRANCH  15  22
ENDBRANCH   3  15
TORSDOF 6
