REMARK  Name = ZINCrH000004nhaT.0
REMARK                            x       y       z     vdW  Elec       q    Type
REMARK                         _______ _______ _______ _____ _____    ______ ____
ROOT
ATOM      1  C   LIG    1        2.537   5.571   0.006  0.00  0.00    +0.130 A 
ATOM      2  N   LIG    1        1.697   6.385  -0.597  0.00  0.00    -0.270 NA
ATOM      3  N   LIG    1        2.107   7.700  -0.343  0.00  0.00    -0.350 N 
ATOM      4  C   LIG    1        3.220   7.653   0.421  0.00  0.00    +0.240 A 
ATOM      5  C   LIG    1        3.511   6.355   0.654  0.00  0.00    -0.230 A 
ENDROOT
BRANCH   1  10
ATOM      6  C   LIG    1        1.185   2.058   0.002  0.00  0.00    +0.120 A 
ATOM      7  C   LIG    1        2.359   1.318  -0.013  0.00  0.00    -0.070 A 
ATOM      8  C   LIG    1        3.584   1.958  -0.022  0.00  0.00    +0.040 A 
ATOM      9  C   LIG    1        3.647   3.337  -0.015  0.00  0.00    +0.020 A 
ATOM     10  C   LIG    1        2.472   4.088  -0.000  0.00  0.00    +0.020 A 
ATOM     11  C   LIG    1        1.239   3.443   0.003  0.00  0.00    +0.000 A 
BRANCH   6  13
ATOM     12  C   LIG    1        0.002  -0.004   0.002  0.00  0.00    +0.250 C 
ATOM     13  O   LIG    1       -0.017   1.425   0.010  0.00  0.00    -0.320 OA
ENDBRANCH   6  13
ENDBRANCH   1  10
BRANCH   3  14
ATOM     14  C   LIG    1        1.446   8.915  -0.826  0.00  0.00    +0.180 C 
ATOM     15  C   LIG    1        1.345   9.929   0.315  0.00  0.00    +0.050 C 
ATOM     16  C   LIG    1        0.042   8.568  -1.326  0.00  0.00    +0.060 C 
ATOM     17  C   LIG    1        2.261   9.517  -1.973  0.00  0.00    +0.050 C 
ENDBRANCH   3  14
BRANCH   5  18
ATOM     18  C   LIG    1        4.673   5.838   1.462  0.00  0.00    +0.270 C 
BRANCH  18  19
ATOM     19  N   LIG    1        5.750   5.415   0.556  0.00  0.00    -0.530 NA
ATOM     20  C   LIG    1        5.993   6.428  -0.482  0.00  0.00    +0.160 C 
ATOM     21  C   LIG    1        7.078   5.922  -1.436  0.00  0.00    +0.220 C 
ATOM     22  O   LIG    1        8.259   5.619  -0.689  0.00  0.00    -0.370 OA
ATOM     23  C   LIG    1        8.059   4.636   0.331  0.00  0.00    +0.140 C 
ATOM     24  C   LIG    1        6.984   5.129   1.303  0.00  0.00    +0.180 C 
BRANCH  23  25
ATOM     25  C   LIG    1        9.369   4.412   1.089  0.00  0.00    +0.410 C 
ATOM     26  F   LIG    1        9.783   5.615   1.671  0.00  0.00    -0.200 F 
ATOM     27  F   LIG    1       10.351   3.962   0.200  0.00  0.00    -0.200 F 
ENDBRANCH  23  25
ENDBRANCH  18  19
ENDBRANCH   5  18
TORSDOF 6
