REMARK  Name = ZINCkj00000cLUAV.0
REMARK                            x       y       z     vdW  Elec       q    Type
REMARK                         _______ _______ _______ _____ _____    ______ ____
ROOT
ATOM      1  C   LIG    1       -3.280   2.809   0.864  0.00  0.00    +0.290 C 
ATOM      2  C   LIG    1       -4.730   2.393   0.601  0.00  0.00    +0.050 C 
ATOM      3  C   LIG    1       -5.661   3.215   1.495  0.00  0.00    +0.260 C 
ATOM      4  N   LIG    1       -5.498   4.643   1.196  0.00  0.00    -0.380 N 
ATOM      5  C   LIG    1       -4.128   5.065   1.513  0.00  0.00    +0.260 C 
ATOM      6  H   LIG    1       -5.679   4.803   0.216  0.00  0.00    +0.430 HD
ATOM      7  C   LIG    1       -3.139   4.314   0.620  0.00  0.00    +0.050 C 
ENDROOT
BRANCH   1  12
ATOM      8  C   LIG    1       -1.337   1.233  -3.432  0.00  0.00    +0.340 C 
ATOM      9  N   LIG    1       -1.512   1.368  -1.983  0.00  0.00    -0.630 N 
ATOM     10  C   LIG    1       -0.699   0.693  -0.961  0.00  0.00    +0.270 C 
ATOM     11  C   LIG    1       -1.298   1.181   0.373  0.00  0.00    +0.270 C 
ATOM     12  N   LIG    1       -2.389   2.080  -0.043  0.00  0.00    -0.640 N 
ATOM     13  C   LIG    1       -2.436   2.127  -1.381  0.00  0.00    +0.700 C 
ATOM     14  O   LIG    1       -3.246   2.797  -1.993  0.00  0.00    -0.590 OA
ENDBRANCH   1  12
BRANCH   4  15
ATOM     15  C   LIG    1       -6.448   5.420   2.002  0.00  0.00    +0.280 C 
BRANCH  15  16
ATOM     16  C   LIG    1       -6.393   6.890   1.579  0.00  0.00    +0.140 C 
ATOM     17  C   LIG    1       -7.369   7.704   2.432  0.00  0.00    +0.010 C 
ATOM     18  C   LIG    1       -7.352   9.162   1.962  0.00  0.00    +0.020 C 
ATOM     19  C   LIG    1       -7.703   9.210   0.471  0.00  0.00    +0.000 C 
ATOM     20  C   LIG    1       -6.714   8.338  -0.306  0.00  0.00    +0.240 C 
ATOM     21  O   LIG    1       -6.757   7.003   0.201  0.00  0.00    -0.390 OA
ENDBRANCH  15  16
ENDBRANCH   4  15
TORSDOF 3
