REMARK  Name = ZINCpk00000xVWQy.0
REMARK                            x       y       z     vdW  Elec       q    Type
REMARK                         _______ _______ _______ _____ _____    ______ ____
ROOT
ATOM      1  C   LIG    1       -1.412  -4.226  -0.628  0.00  0.00    +0.240 C 
ATOM      2  N   LIG    1       -2.367  -3.634  -1.581  0.00  0.00    -0.720 N 
ATOM      3  H   LIG    1       -2.291  -2.772  -2.019  0.00  0.00    +0.440 HD
ATOM      4  C   LIG    1       -3.367  -4.523  -1.725  0.00  0.00    +0.700 C 
ATOM      5  N   LIG    1       -3.184  -5.622  -0.985  0.00  0.00    -0.570 N 
ATOM      6  O   LIG    1       -4.328  -4.347  -2.447  0.00  0.00    -0.530 OA
ATOM      7  C   LIG    1       -2.038  -5.561  -0.278  0.00  0.00    +0.530 C 
ATOM      8  O   LIG    1       -1.600  -6.399   0.480  0.00  0.00    -0.460 OA
ENDROOT
BRANCH   1   9
ATOM      9  C   LIG    1       -1.282  -3.348   0.619  0.00  0.00    +0.170 C 
BRANCH   9  12
ATOM     10  N   LIG    1        0.002  -0.004   0.002  0.00  0.00    -0.280 N 
ATOM     11  C   LIG    1       -0.976  -0.813   0.470  0.00  0.00    +0.150 A 
ATOM     12  C   LIG    1       -0.548  -2.080   0.267  0.00  0.00    -0.030 A 
ATOM     13  N   LIG    1        0.656  -1.986  -0.309  0.00  0.00    -0.260 NA
ATOM     14  N   LIG    1        0.951  -0.743  -0.457  0.00  0.00    -0.080 NA
BRANCH  10  16
ATOM     15  C   LIG    1       -0.758   1.968  -1.230  0.00  0.00    +0.060 C 
ATOM     16  C   LIG    1       -0.018   1.461   0.010  0.00  0.00    +0.250 C 
ATOM     17  C   LIG    1       -0.734   1.954   1.269  0.00  0.00    +0.060 C 
ENDBRANCH  10  16
ENDBRANCH   9  12
ENDBRANCH   1   9
BRANCH   5  18
ATOM     18  C   LIG    1       -4.114  -6.754  -0.948  0.00  0.00    +0.350 C 
BRANCH  18  19
ATOM     19  C   LIG    1       -5.146  -6.529   0.159  0.00  0.00    +0.190 C 
BRANCH  19  20
ATOM     20  O   LIG    1       -5.948  -5.391  -0.161  0.00  0.00    -0.300 OA
BRANCH  20  21
ATOM     21  C   LIG    1       -6.920  -5.052   0.727  0.00  0.00    +0.130 A 
ATOM     22  C   LIG    1       -7.102  -5.804   1.878  0.00  0.00    -0.080 A 
ATOM     23  C   LIG    1       -8.088  -5.455   2.781  0.00  0.00    +0.040 A 
ATOM     24  C   LIG    1       -8.899  -4.363   2.532  0.00  0.00    -0.040 A 
ATOM     25  C   LIG    1       -8.724  -3.616   1.382  0.00  0.00    +0.050 A 
ATOM     26  C   LIG    1       -7.736  -3.958   0.479  0.00  0.00    -0.020 A 
ENDBRANCH  20  21
ENDBRANCH  19  20
ENDBRANCH  18  19
ENDBRANCH   5  18
TORSDOF 7
