REMARK  Name = ZINCrH000004oHdn.0
REMARK                            x       y       z     vdW  Elec       q    Type
REMARK                         _______ _______ _______ _____ _____    ______ ____
ROOT
ATOM      1  C   LIG    1       -4.115   5.478   4.103  0.00  0.00    +0.140 A 
ATOM      2  C   LIG    1       -3.185   6.398   4.563  0.00  0.00    +0.070 A 
ATOM      3  C   LIG    1       -3.552   7.337   5.509  0.00  0.00    -0.010 A 
ATOM      4  C   LIG    1       -4.843   7.360   6.000  0.00  0.00    +0.030 A 
ATOM      5  C   LIG    1       -5.776   6.446   5.546  0.00  0.00    -0.060 A 
ATOM      6  C   LIG    1       -5.418   5.506   4.594  0.00  0.00    +0.100 A 
ENDROOT
BRANCH   1  13
ATOM      7  C   LIG    1       -2.679   0.294  -0.095  0.00  0.00    +0.040 C 
ATOM      8  C   LIG    1       -2.664   0.894   1.312  0.00  0.00    -0.020 C 
ATOM      9  C   LIG    1       -3.035   2.394   1.262  0.00  0.00    +0.260 C 
ATOM     10  N   LIG    1       -2.174   3.027   2.288  0.00  0.00    -0.640 N 
ATOM     11  C   LIG    1       -0.870   2.337   2.147  0.00  0.00    +0.300 C 
ATOM     12  C   LIG    1       -2.501   4.007   3.152  0.00  0.00    +0.730 C 
ATOM     13  N   LIG    1       -3.745   4.525   3.143  0.00  0.00    -0.680 N 
ATOM     14  H   LIG    1       -4.385   4.239   2.473  0.00  0.00    +0.410 HD
ATOM     15  O   LIG    1       -1.675   4.424   3.941  0.00  0.00    -0.570 OA
ATOM     16  C   LIG    1       -1.236   0.859   1.895  0.00  0.00    -0.070 C 
ATOM     17  C   LIG    1       -0.266   0.235   0.889  0.00  0.00    +0.050 C 
BRANCH  16  18
ATOM     18  C   LIG    1       -1.216   0.074   3.208  0.00  0.00    +0.180 C 
BRANCH  18  19
ATOM     19  O   LIG    1        0.107   0.083   3.748  0.00  0.00    -0.570 OA
ATOM     20  H   LIG    1        0.195  -0.397   4.583  0.00  0.00    +0.380 HD
ENDBRANCH  18  19
ENDBRANCH  16  18
ENDBRANCH   1  13
BRANCH   6  21
ATOM     21  O   LIG    1       -6.336   4.610   4.142  0.00  0.00    -0.320 OA
BRANCH  21  22
ATOM     22  C   LIG    1       -7.653   4.698   4.690  0.00  0.00    +0.190 C 
BRANCH  22  23
ATOM     23  C   LIG    1       -8.538   3.617   4.066  0.00  0.00    +0.080 C 
BRANCH  23  24
ATOM     24  C   LIG    1       -9.927   3.710   4.644  0.00  0.00    -0.090 A 
ATOM     25  C   LIG    1      -10.254   2.990   5.777  0.00  0.00    +0.010 A 
ATOM     26  C   LIG    1      -11.527   3.079   6.310  0.00  0.00    +0.000 A 
ATOM     27  C   LIG    1      -12.475   3.880   5.702  0.00  0.00    +0.000 A 
ATOM     28  C   LIG    1      -12.150   4.596   4.565  0.00  0.00    +0.000 A 
ATOM     29  C   LIG    1      -10.876   4.511   4.036  0.00  0.00    +0.010 A 
ENDBRANCH  23  24
ENDBRANCH  22  23
ENDBRANCH  21  22
ENDBRANCH   6  21
TORSDOF 7
