REMARK  Name = ZINCrD00000cdM28.0
REMARK                            x       y       z     vdW  Elec       q    Type
REMARK                         _______ _______ _______ _____ _____    ______ ____
ROOT
ATOM      1  N   LIG    1       -1.306   3.454   0.050  0.00  0.00    -0.720 N 
ATOM      2  H   LIG    1       -0.472   3.949   0.039  0.00  0.00    +0.400 HD
ATOM      3  C   LIG    1       -1.290   2.107   0.053  0.00  0.00    +0.570 C 
ATOM      4  O   LIG    1       -2.336   1.486   0.066  0.00  0.00    -0.530 OA
ENDROOT
BRANCH   1  16
ATOM      5  C   LIG    1       -4.614   9.076   3.506  0.00  0.00    +0.080 C 
ATOM      6  C   LIG    1       -3.410   8.183   3.659  0.00  0.00    +0.510 C 
ATOM      7  N   LIG    1       -2.865   7.594   2.575  0.00  0.00    -0.610 N 
ATOM      8  C   LIG    1       -3.503   7.715   1.257  0.00  0.00    +0.260 C 
ATOM      9  C   LIG    1       -3.715   6.312   0.681  0.00  0.00    +0.030 C 
ATOM     10  C   LIG    1       -2.380   5.563   0.667  0.00  0.00    -0.060 C 
ATOM     11  C   LIG    1       -1.855   5.425   2.098  0.00  0.00    +0.030 C 
ATOM     12  C   LIG    1       -1.367   6.341  -0.175  0.00  0.00    +0.010 C 
ATOM     13  C   LIG    1       -1.889   6.477  -1.606  0.00  0.00    +0.010 C 
ATOM     14  C   LIG    1       -2.092   5.086  -2.210  0.00  0.00    +0.000 C 
ATOM     15  C   LIG    1       -3.106   4.308  -1.369  0.00  0.00    +0.020 C 
ATOM     16  C   LIG    1       -2.583   4.172   0.063  0.00  0.00    +0.250 C 
ATOM     17  C   LIG    1       -1.623   6.818   2.690  0.00  0.00    +0.270 C 
ATOM     18  O   LIG    1       -2.930   7.995   4.757  0.00  0.00    -0.550 OA
ENDBRANCH   1  16
BRANCH   3  19
ATOM     19  C   LIG    1       -0.003   1.383   0.040  0.00  0.00    -0.140 A 
ATOM     20  C   LIG    1        1.205   2.087   0.018  0.00  0.00    +0.090 A 
ATOM     21  C   LIG    1        2.403   1.421   0.000  0.00  0.00    +0.020 A 
ATOM     22  C   LIG    1        2.449   0.016   0.003  0.00  0.00    +0.160 A 
ATOM     23  N   LIG    1        3.565  -0.794  -0.013  0.00  0.00    -0.640 N 
ATOM     24  H   LIG    1        4.455  -0.408  -0.029  0.00  0.00    +0.420 HD
ATOM     25  C   LIG    1        3.399  -2.119  -0.007  0.00  0.00    +0.520 A 
ATOM     26  S   LIG    1        1.649  -2.395   0.022  0.00  0.00    +0.020 S 
ATOM     27  O   LIG    1        4.272  -2.966  -0.019  0.00  0.00    -0.450 OA
ATOM     28  C   LIG    1        1.233  -0.675   0.024  0.00  0.00    -0.160 A 
ATOM     29  C   LIG    1        0.024  -0.013   0.043  0.00  0.00    +0.170 A 
ENDBRANCH   3  19
TORSDOF 2
