REMARK  Name = ZINCrD000000BEGQ.0
REMARK                            x       y       z     vdW  Elec       q    Type
REMARK                         _______ _______ _______ _____ _____    ______ ____
ROOT
ATOM      1  O   LIG    1        2.470  -0.186   0.059  0.00  0.00    -0.550 OA
ATOM      2  C   LIG    1        2.463   1.028  -0.015  0.00  0.00    +0.590 C 
ATOM      3  N   LIG    1        3.624   1.703  -0.124  0.00  0.00    -0.710 N 
ATOM      4  H   LIG    1        3.624   2.673  -0.120  0.00  0.00    +0.420 HD
ENDROOT
BRANCH   2   5
ATOM      5  C   LIG    1        1.187   1.760   0.015  0.00  0.00    -0.350 A 
ATOM      6  C   LIG    1       -0.012   1.078   0.018  0.00  0.00    +0.430 A 
ATOM      7  N   LIG    1       -1.193   1.710   0.040  0.00  0.00    -0.590 N 
ATOM      8  H   LIG    1       -2.005   1.179   0.037  0.00  0.00    +0.430 HD
ATOM      9  C   LIG    1       -1.304   3.083   0.074  0.00  0.00    +0.180 A 
ATOM     10  C   LIG    1       -2.557   3.691   0.102  0.00  0.00    -0.020 A 
ATOM     11  C   LIG    1       -2.654   5.065   0.130  0.00  0.00    +0.080 A 
ATOM     12  C   LIG    1       -1.515   5.857   0.130  0.00  0.00    -0.010 A 
ATOM     13  C   LIG    1       -0.266   5.277   0.103  0.00  0.00    +0.110 A 
ATOM     14  C   LIG    1       -0.152   3.888   0.074  0.00  0.00    -0.180 A 
ATOM     15  C   LIG    1        1.169   3.231   0.044  0.00  0.00    +0.440 A 
ATOM     16  O   LIG    1        2.200   3.879   0.043  0.00  0.00    -0.490 OA
ENDBRANCH   2   5
BRANCH   3  17
ATOM     17  C   LIG    1        4.888   0.972  -0.250  0.00  0.00    +0.290 C 
BRANCH  17  18
ATOM     18  C   LIG    1        5.903   1.840  -0.947  0.00  0.00    -0.100 A 
ATOM     19  C   LIG    1        5.973   3.190  -0.658  0.00  0.00    +0.050 A 
ATOM     20  C   LIG    1        6.907   3.986  -1.293  0.00  0.00    -0.010 A 
ATOM     21  C   LIG    1        7.766   3.433  -2.228  0.00  0.00    +0.100 A 
ATOM     22  C   LIG    1        7.692   2.081  -2.521  0.00  0.00    -0.010 A 
ATOM     23  F   LIG    1        8.677   4.210  -2.853  0.00  0.00    -0.140 F 
ATOM     24  C   LIG    1        6.760   1.286  -1.880  0.00  0.00    +0.080 A 
ENDBRANCH  17  18
BRANCH  17  25
ATOM     25  C   LIG    1        5.403   0.602   1.143  0.00  0.00    +0.150 C 
ATOM     26  C   LIG    1        4.405  -0.349   1.850  0.00  0.00    +0.030 C 
ATOM     27  C   LIG    1        5.348  -1.074   2.850  0.00  0.00    -0.010 C 
ATOM     28  C   LIG    1        6.668  -1.155   2.055  0.00  0.00    +0.190 C 
ATOM     29  O   LIG    1        6.625  -0.146   1.039  0.00  0.00    -0.370 OA
ENDBRANCH  17  25
ENDBRANCH   3  17
TORSDOF 4
