REMARK  Name = ZINCtV00001bB3F5.0
REMARK                            x       y       z     vdW  Elec       q    Type
REMARK                         _______ _______ _______ _____ _____    ______ ____
ROOT
ATOM      1  C   LIG    1       -3.597   1.659   0.127  0.00  0.00    +0.120 A 
ATOM      2  C   LIG    1       -4.741   0.850   0.044  0.00  0.00    -0.050 A 
ATOM      3  S   LIG    1       -4.163  -0.767  -0.087  0.00  0.00    +0.090 S 
ATOM      4  C   LIG    1       -2.448  -0.321  -0.033  0.00  0.00    +0.360 A 
ATOM      5  N   LIG    1       -1.412  -1.134  -0.096  0.00  0.00    -0.500 NA
ATOM      6  N   LIG    1       -2.424   1.039   0.088  0.00  0.00    -0.430 N 
ENDROOT
BRANCH   5   7
ATOM      7  C   LIG    1       -1.603  -2.460  -0.216  0.00  0.00    +0.130 A 
ATOM      8  C   LIG    1       -0.844  -3.205  -1.139  0.00  0.00    +0.040 A 
ATOM      9  C   LIG    1       -1.047  -4.561  -1.253  0.00  0.00    +0.050 A 
ATOM     10  C   LIG    1       -1.995  -5.194  -0.463  0.00  0.00    +0.040 A 
ATOM     11  C   LIG    1       -2.749  -4.470   0.451  0.00  0.00    -0.060 A 
ATOM     12 BR   LIG    1       -4.036  -5.352   1.520  0.00  0.00    -0.050 Br
ATOM     13  C   LIG    1       -2.559  -3.114   0.585  0.00  0.00    +0.000 A 
ENDBRANCH   5   7
BRANCH   6  14
ATOM     14  C   LIG    1       -1.223   1.744   0.163  0.00  0.00    +0.120 A 
ATOM     15  C   LIG    1       -0.379   1.800  -0.941  0.00  0.00    +0.060 A 
ATOM     16  C   LIG    1        0.807   2.504  -0.866  0.00  0.00    +0.050 A 
ATOM     17  C   LIG    1        1.158   3.147   0.307  0.00  0.00    +0.070 A 
ATOM     18  C   LIG    1        0.323   3.089   1.410  0.00  0.00    -0.080 A 
ATOM     19 BR   LIG    1        0.809   3.971   3.010  0.00  0.00    -0.030 Br
ATOM     20  C   LIG    1       -0.865   2.388   1.342  0.00  0.00    +0.060 A 
ENDBRANCH   6  14
BRANCH   1  24
ATOM     21  C   LIG    1       -3.875   5.876   0.480  0.00  0.00    +0.010 A 
ATOM     22  C   LIG    1       -3.023   5.318  -0.460  0.00  0.00    +0.120 A 
ATOM     23  C   LIG    1       -2.927   3.950  -0.582  0.00  0.00    +0.050 A 
ATOM     24  C   LIG    1       -3.693   3.120   0.249  0.00  0.00    +0.020 A 
ATOM     25  C   LIG    1       -4.556   3.693   1.194  0.00  0.00    +0.070 A 
ATOM     26  C   LIG    1       -4.636   5.064   1.306  0.00  0.00    +0.120 A 
BRANCH  21  28
ATOM     27  O   LIG    1       -3.250   8.123  -0.179  0.00  0.00    -0.160 OA
ATOM     28  N   LIG    1       -3.971   7.348   0.604  0.00  0.00    -0.020 N 
ATOM     29  O   LIG    1       -4.779   7.882   1.496  0.00  0.00    -0.160 OA
ENDBRANCH  21  28
ENDBRANCH   1  24
TORSDOF 4
