REMARK  Name = ZINCrH000004ocQ8.0
REMARK                            x       y       z     vdW  Elec       q    Type
REMARK                         _______ _______ _______ _____ _____    ______ ____
ROOT
ATOM      1  N   LIG    1       -4.274  -3.594   0.957  0.00  0.00    -0.730 N 
ATOM      2  H   LIG    1       -4.598  -4.019   0.147  0.00  0.00    +0.400 HD
ATOM      3  C   LIG    1       -3.026  -3.087   0.999  0.00  0.00    +0.520 C 
ATOM      4  O   LIG    1       -2.620  -2.556   2.011  0.00  0.00    -0.510 OA
ENDROOT
BRANCH   3   5
ATOM      5  C   LIG    1       -2.134  -3.179  -0.213  0.00  0.00    +0.220 C 
ATOM      6  C   LIG    1       -1.496  -4.582  -0.290  0.00  0.00    +0.060 C 
ATOM      7  C   LIG    1       -0.100  -4.365   0.352  0.00  0.00    +0.040 C 
ATOM      8  C   LIG    1        0.245  -2.933  -0.137  0.00  0.00    +0.260 C 
ATOM      9  N   LIG    1       -1.037  -2.206  -0.102  0.00  0.00    -0.600 N 
ATOM     10  C   LIG    1       -1.180  -0.871   0.009  0.00  0.00    +0.610 C 
ATOM     11  O   LIG    1       -2.290  -0.385   0.124  0.00  0.00    -0.520 OA
BRANCH  10  12
ATOM     12  C   LIG    1        0.001  -0.003  -0.010  0.00  0.00    -0.270 A 
ATOM     13  C   LIG    1       -0.001   1.345   0.213  0.00  0.00    +0.100 A 
ATOM     14  C   LIG    1        1.249   1.911   0.135  0.00  0.00    +0.000 A 
ATOM     15  C   LIG    1        2.242   1.059  -0.143  0.00  0.00    -0.070 A 
ATOM     16  S   LIG    1        1.649  -0.531  -0.324  0.00  0.00    +0.210 S 
ENDBRANCH  10  12
ENDBRANCH   3   5
BRANCH   1  18
ATOM     17  C   LIG    1       -5.850  -2.149   2.144  0.00  0.00    +0.040 C 
ATOM     18  C   LIG    1       -5.140  -3.505   2.135  0.00  0.00    +0.250 C 
BRANCH  18  19
ATOM     19  C   LIG    1       -6.182  -4.625   2.088  0.00  0.00    +0.160 C 
BRANCH  19  20
ATOM     20  C   LIG    1       -5.490  -5.959   2.202  0.00  0.00    +0.100 A 
ATOM     21  N   LIG    1       -5.247  -6.551   3.310  0.00  0.00    -0.460 NA
ATOM     22  C   LIG    1       -4.624  -7.744   3.262  0.00  0.00    +0.080 A 
ATOM     23  C   LIG    1       -4.243  -8.603   4.312  0.00  0.00    +0.080 A 
ATOM     24  C   LIG    1       -3.608  -9.779   4.046  0.00  0.00    +0.030 A 
ATOM     25  C   LIG    1       -3.325 -10.153   2.740  0.00  0.00    +0.040 A 
ATOM     26  C   LIG    1       -3.686  -9.333   1.694  0.00  0.00    +0.060 A 
ATOM     27  C   LIG    1       -4.335  -8.127   1.948  0.00  0.00    -0.180 A 
ATOM     28  S   LIG    1       -4.926  -6.865   0.871  0.00  0.00    +0.090 S 
ENDBRANCH  19  20
ENDBRANCH  18  19
ENDBRANCH   1  18
TORSDOF 5
