REMARK  Name = ZINCrD00000F5LiK.0
REMARK                            x       y       z     vdW  Elec       q    Type
REMARK                         _______ _______ _______ _____ _____    ______ ____
ROOT
ATOM      1  N   LIG    1        3.620   7.384   0.006  0.00  0.00    -0.570 N 
ATOM      2  C   LIG    1        3.644   6.037  -0.025  0.00  0.00    +0.550 C 
ATOM      3  O   LIG    1        4.709   5.448  -0.071  0.00  0.00    -0.520 OA
ENDROOT
BRANCH   1   4
ATOM      4  C   LIG    1        4.817   8.103   0.104  0.00  0.00    +0.130 A 
ATOM      5  C   LIG    1        5.686   7.866   1.161  0.00  0.00    +0.050 A 
ATOM      6  C   LIG    1        6.869   8.574   1.252  0.00  0.00    +0.000 A 
ATOM      7  C   LIG    1        7.183   9.526   0.297  0.00  0.00    +0.100 A 
ATOM      8  C   LIG    1        6.315   9.767  -0.754  0.00  0.00    +0.000 A 
ATOM      9  F   LIG    1        8.338  10.221   0.392  0.00  0.00    -0.140 F 
ATOM     10  C   LIG    1        5.134   9.059  -0.853  0.00  0.00    +0.040 A 
ENDBRANCH   1   4
BRANCH   2  11
ATOM     11  C   LIG    1        2.392   5.283  -0.004  0.00  0.00    -0.100 C 
ATOM     12  C   LIG    1        2.416   3.933  -0.035  0.00  0.00    +0.140 C 
BRANCH  12  13
ATOM     13  C   LIG    1        1.157   3.175  -0.013  0.00  0.00    -0.110 A 
ATOM     14  C   LIG    1        1.179   1.776  -0.046  0.00  0.00    +0.090 A 
ATOM     15  C   LIG    1       -0.003   1.070  -0.026  0.00  0.00    +0.000 A 
ATOM     16  C   LIG    1       -1.217   1.745   0.021  0.00  0.00    +0.120 A 
ATOM     17  C   LIG    1       -1.245   3.135   0.059  0.00  0.00    -0.050 A 
ATOM     18  C   LIG    1       -0.068   3.850   0.039  0.00  0.00    +0.070 A 
BRANCH  16  19
ATOM     19  O   LIG    1       -2.380   1.045   0.035  0.00  0.00    -0.320 OA
BRANCH  19  20
ATOM     20  C   LIG    1       -3.592   1.801   0.083  0.00  0.00    +0.600 C 
ATOM     21  F   LIG    1       -3.668   2.633  -1.039  0.00  0.00    -0.200 F 
ATOM     22  F   LIG    1       -3.609   2.581   1.244  0.00  0.00    -0.200 F 
ENDBRANCH  19  20
ENDBRANCH  16  19
ENDBRANCH  12  13
ENDBRANCH   2  11
BRANCH   1  23
ATOM     23  C   LIG    1        2.342   8.096  -0.062  0.00  0.00    +0.320 C 
BRANCH  23  24
ATOM     24  C   LIG    1        1.800   8.308   1.353  0.00  0.00    +0.030 C 
BRANCH  24  28
ATOM     25  N   LIG    1       -0.181   9.339   2.416  0.00  0.00    -0.850 N 
ATOM     26  H   LIG    1       -1.028   9.810   2.371  0.00  0.00    +0.400 HD
ATOM     27  H   LIG    1        0.186   9.083   3.277  0.00  0.00    +0.400 HD
ATOM     28  C   LIG    1        0.485   9.040   1.283  0.00  0.00    +0.520 C 
ATOM     29  O   LIG    1        0.025   9.360   0.207  0.00  0.00    -0.540 OA
ENDBRANCH  24  28
ENDBRANCH  23  24
ENDBRANCH   1  23
TORSDOF 8
