REMARK  Name = ZINCpe000000WA1a.0
REMARK                            x       y       z     vdW  Elec       q    Type
REMARK                         _______ _______ _______ _____ _____    ______ ____
ROOT
ATOM      1  N   LIG    1       -0.870   2.826   3.761  0.00  0.00    -0.480 N 
ATOM      2  C   LIG    1       -1.180   1.414   3.498  0.00  0.00    +0.200 C 
ATOM      3  C   LIG    1       -0.384   0.938   2.280  0.00  0.00    +0.200 C 
ATOM      4  N   LIG    1       -0.724   1.773   1.120  0.00  0.00    -0.530 NA
ATOM      5  C   LIG    1       -0.414   3.185   1.382  0.00  0.00    +0.190 C 
ATOM      6  C   LIG    1       -1.210   3.661   2.600  0.00  0.00    +0.180 C 
ENDROOT
BRANCH   1  12
ATOM      7  C   LIG    1       -1.178   2.764   6.160  0.00  0.00    +0.120 A 
ATOM      8  C   LIG    1       -1.829   3.214   7.296  0.00  0.00    -0.060 A 
ATOM      9  C   LIG    1       -2.822   4.172   7.191  0.00  0.00    +0.020 A 
ATOM     10  C   LIG    1       -3.167   4.682   5.953  0.00  0.00    -0.010 A 
ATOM     11  C   LIG    1       -2.517   4.242   4.815  0.00  0.00    +0.000 A 
ATOM     12  C   LIG    1       -1.525   3.278   4.912  0.00  0.00    +0.080 A 
BRANCH   7  14
ATOM     13  C   LIG    1        0.100   1.340   7.573  0.00  0.00    +0.230 C 
ATOM     14  O   LIG    1       -0.203   1.821   6.262  0.00  0.00    -0.310 OA
ENDBRANCH   7  14
ENDBRANCH   1  12
BRANCH   4  15
ATOM     15  C   LIG    1       -0.036   1.299  -0.089  0.00  0.00    +0.310 C 
BRANCH  15  16
ATOM     16  C   LIG    1       -0.589   2.014  -1.295  0.00  0.00    +0.440 A 
ATOM     17  N   LIG    1       -1.615   1.502  -1.951  0.00  0.00    -0.620 NA
ATOM     18  C   LIG    1       -2.111   2.134  -3.013  0.00  0.00    +0.630 A 
ATOM     19  N   LIG    1       -1.565   3.275  -3.420  0.00  0.00    -0.650 NA
ATOM     20  C   LIG    1       -0.529   3.784  -2.760  0.00  0.00    +0.630 A 
ATOM     21  N   LIG    1       -0.043   3.149  -1.696  0.00  0.00    -0.640 NA
BRANCH  20  22
ATOM     22  N   LIG    1        0.042   4.968  -3.179  0.00  0.00    -0.810 N 
ATOM     23  H   LIG    1       -0.313   5.430  -3.954  0.00  0.00    +0.420 HD
ATOM     24  H   LIG    1        0.797   5.339  -2.697  0.00  0.00    +0.420 HD
ENDBRANCH  20  22
BRANCH  18  25
ATOM     25  N   LIG    1       -3.186   1.601  -3.694  0.00  0.00    -0.580 N 
ATOM     26  C   LIG    1       -3.788   0.343  -3.245  0.00  0.00    +0.310 C 
ATOM     27  C   LIG    1       -3.727   2.294  -4.866  0.00  0.00    +0.310 C 
ENDBRANCH  18  25
ENDBRANCH  15  16
ENDBRANCH   4  15
TORSDOF 6
