REMARK  Name = ZINCqH0000007B5T.0
REMARK                            x       y       z     vdW  Elec       q    Type
REMARK                         _______ _______ _______ _____ _____    ______ ____
ROOT
ATOM      1  C   LIG    1       -6.128   2.343   1.939  0.00  0.00    +0.610 C 
ATOM      2  N   LIG    1       -4.791   2.269   1.785  0.00  0.00    -0.650 N 
ATOM      3  H   LIG    1       -4.416   1.916   0.963  0.00  0.00    +0.420 HD
ATOM      4  O   LIG    1       -6.598   2.885   2.921  0.00  0.00    -0.490 OA
ENDROOT
BRANCH   1  10
ATOM      5  C   LIG    1      -10.177   0.132  -1.976  0.00  0.00    +0.110 A 
ATOM      6  C   LIG    1       -9.020  -0.237  -2.658  0.00  0.00    -0.010 A 
ATOM      7  C   LIG    1       -7.777   0.059  -2.145  0.00  0.00    +0.070 A 
ATOM      8  C   LIG    1       -7.665   0.732  -0.934  0.00  0.00    +0.050 A 
ATOM      9  O   LIG    1       -6.609   1.151  -0.208  0.00  0.00    -0.180 OA
ATOM     10  C   LIG    1       -7.017   1.768   0.920  0.00  0.00    -0.040 A 
ATOM     11  C   LIG    1       -8.375   1.783   0.970  0.00  0.00    -0.060 A 
ATOM     12  C   LIG    1       -9.235   2.378   2.054  0.00  0.00    +0.140 C 
ATOM     13  C   LIG    1       -8.832   1.105  -0.243  0.00  0.00    -0.110 A 
ATOM     14  C   LIG    1      -10.088   0.801  -0.771  0.00  0.00    +0.040 A 
BRANCH   5  16
ATOM     15  C   LIG    1      -11.415  -0.861  -3.747  0.00  0.00    +0.240 C 
ATOM     16  O   LIG    1      -11.396  -0.167  -2.498  0.00  0.00    -0.310 OA
ENDBRANCH   5  16
ENDBRANCH   1  10
BRANCH   2  17
ATOM     17  C   LIG    1       -3.948   2.700   2.805  0.00  0.00    +0.200 A 
ATOM     18  C   LIG    1       -4.427   2.816   4.103  0.00  0.00    +0.010 A 
ATOM     19  C   LIG    1       -3.591   3.250   5.112  0.00  0.00    +0.060 A 
ATOM     20  C   LIG    1       -2.269   3.565   4.841  0.00  0.00    -0.020 A 
ATOM     21  C   LIG    1       -1.775   3.450   3.560  0.00  0.00    +0.070 A 
ATOM     22  C   LIG    1       -2.608   3.014   2.528  0.00  0.00    -0.170 A 
BRANCH  22  23
ATOM     23  C   LIG    1       -2.086   2.889   1.154  0.00  0.00    +0.560 C 
ATOM     24  N   LIG    1       -0.874   2.340   0.942  0.00  0.00    -0.620 N 
ATOM     25  C   LIG    1       -0.127   1.757   2.060  0.00  0.00    +0.290 C 
ATOM     26  C   LIG    1       -0.302   2.325  -0.407  0.00  0.00    +0.290 C 
ATOM     27  O   LIG    1       -2.749   3.281   0.214  0.00  0.00    -0.530 OA
ENDBRANCH  22  23
ENDBRANCH   2  17
TORSDOF 4
