REMARK  Name = ZINCqH0000004yR3.0
REMARK                            x       y       z     vdW  Elec       q    Type
REMARK                         _______ _______ _______ _____ _____    ______ ____
ROOT
ATOM      1  C   LIG    1        2.389   0.093  -0.020  0.00  0.00    +0.210 A 
ATOM      2  C   LIG    1        1.233  -0.665  -0.013  0.00  0.00    -0.150 A 
ATOM      3  C   LIG    1        0.002  -0.004   0.002  0.00  0.00    +0.450 A 
ATOM      4  N   LIG    1       -0.016   1.324   0.009  0.00  0.00    -0.570 NA
ATOM      5  C   LIG    1        1.115   2.014   0.002  0.00  0.00    +0.400 A 
ATOM      6  N   LIG    1        2.297   1.414  -0.012  0.00  0.00    -0.540 NA
ENDROOT
BRANCH   5   7
ATOM      7  C   LIG    1        1.058   3.497   0.010  0.00  0.00    -0.000 A 
ATOM      8  C   LIG    1        2.228   4.261   0.009  0.00  0.00    +0.030 A 
ATOM      9  C   LIG    1        2.130   5.638   0.012  0.00  0.00    +0.250 A 
ATOM     10  N   LIG    1        0.952   6.232   0.026  0.00  0.00    -0.470 NA
ATOM     11  C   LIG    1       -0.175   5.549   0.033  0.00  0.00    +0.250 A 
ATOM     12  C   LIG    1       -0.168   4.168   0.025  0.00  0.00    +0.020 A 
ENDBRANCH   5   7
BRANCH   1  14
ATOM     13  C   LIG    1        4.551  -0.055  -1.224  0.00  0.00    +0.040 C 
ATOM     14  C   LIG    1        3.739  -0.577  -0.037  0.00  0.00    +0.100 C 
ENDBRANCH   1  14
BRANCH   3  15
ATOM     15  N   LIG    1       -1.182  -0.723   0.009  0.00  0.00    -0.700 N 
ATOM     16  H   LIG    1       -2.033  -0.257   0.019  0.00  0.00    +0.410 HD
BRANCH  15  17
ATOM     17  C   LIG    1       -1.150  -2.188   0.001  0.00  0.00    +0.220 C 
ATOM     18  C   LIG    1       -1.026  -2.687  -1.440  0.00  0.00    +0.030 C 
BRANCH  17  19
ATOM     19  C   LIG    1       -2.440  -2.730   0.619  0.00  0.00    +0.270 C 
BRANCH  19  20
ATOM     20  C   LIG    1       -2.355  -4.231   0.724  0.00  0.00    -0.130 A 
ATOM     21  C   LIG    1       -2.604  -5.016  -0.387  0.00  0.00    +0.050 A 
ATOM     22  C   LIG    1       -2.521  -6.392  -0.294  0.00  0.00    -0.010 A 
ATOM     23  C   LIG    1       -2.199  -6.985   0.915  0.00  0.00    +0.110 A 
ATOM     24  C   LIG    1       -1.954  -6.199   2.027  0.00  0.00    -0.010 A 
ATOM     25  F   LIG    1       -2.123  -8.331   1.008  0.00  0.00    -0.140 F 
ATOM     26  C   LIG    1       -2.033  -4.822   1.931  0.00  0.00    +0.060 A 
ENDBRANCH  19  20
BRANCH  19  27
ATOM     27  O   LIG    1       -3.551  -2.372  -0.205  0.00  0.00    -0.550 OA
ATOM     28  H   LIG    1       -3.499  -2.718  -1.107  0.00  0.00    +0.380 HD
ENDBRANCH  19  27
ENDBRANCH  17  19
ENDBRANCH  15  17
ENDBRANCH   3  15
TORSDOF 7
