REMARK  Name = ZINCqH0000034U1e.0
REMARK                            x       y       z     vdW  Elec       q    Type
REMARK                         _______ _______ _______ _____ _____    ______ ____
ROOT
ATOM      1  N   LIG    1       -0.000   1.331   0.206  0.00  0.00    -0.750 N 
ATOM      2  H   LIG    1       -0.845   1.793   0.088  0.00  0.00    +0.400 HD
ATOM      3  C   LIG    1        0.019  -0.007   0.368  0.00  0.00    +0.700 C 
ATOM      4  N   LIG    1       -1.136  -0.702   0.373  0.00  0.00    -0.750 N 
ATOM      5  H   LIG    1       -1.981  -0.239   0.259  0.00  0.00    +0.400 HD
ATOM      6  O   LIG    1        1.078  -0.588   0.510  0.00  0.00    -0.590 OA
ENDROOT
BRANCH   1   7
ATOM      7  C   LIG    1        1.255   2.086   0.201  0.00  0.00    +0.280 C 
BRANCH   7   8
ATOM      8  C   LIG    1        0.955   3.572   0.001  0.00  0.00    +0.070 C 
BRANCH   8  12
ATOM      9  C   LIG    1        4.617   5.776  -0.014  0.00  0.00    +0.160 A 
ATOM     10  C   LIG    1        4.103   5.273  -1.202  0.00  0.00    +0.020 A 
ATOM     11  C   LIG    1        2.919   4.562  -1.194  0.00  0.00    +0.040 A 
ATOM     12  C   LIG    1        2.246   4.349  -0.004  0.00  0.00    -0.100 A 
ATOM     13  C   LIG    1        2.753   4.853   1.180  0.00  0.00    +0.040 A 
ATOM     14  C   LIG    1        3.939   5.561   1.179  0.00  0.00    -0.010 A 
BRANCH   9  16
ATOM     15  C   LIG    1        6.134   7.271  -1.076  0.00  0.00    +0.650 C 
ATOM     16  N   LIG    1        5.817   6.497  -0.019  0.00  0.00    -0.650 N 
ATOM     17  H   LIG    1        6.420   6.440   0.739  0.00  0.00    +0.420 HD
ATOM     18  O   LIG    1        5.337   7.419  -1.981  0.00  0.00    -0.550 OA
BRANCH  15  20
ATOM     19  C   LIG    1        7.607   8.697  -2.297  0.00  0.00    +0.310 C 
ATOM     20  O   LIG    1        7.334   7.879  -1.129  0.00  0.00    -0.370 OA
ENDBRANCH  15  20
ENDBRANCH   9  16
ENDBRANCH   8  12
ENDBRANCH   7   8
ENDBRANCH   1   7
BRANCH   4  21
ATOM     21  C   LIG    1       -1.116  -2.156   0.549  0.00  0.00    +0.280 C 
BRANCH  21  22
ATOM     22  C   LIG    1       -2.548  -2.694   0.516  0.00  0.00    -0.020 C 
ATOM     23  C   LIG    1       -3.324  -2.152   1.718  0.00  0.00    +0.010 C 
ATOM     24  C   LIG    1       -4.756  -2.690   1.684  0.00  0.00    -0.020 C 
ATOM     25  C   LIG    1       -4.728  -4.218   1.744  0.00  0.00    +0.010 C 
ATOM     26  C   LIG    1       -3.951  -4.761   0.542  0.00  0.00    -0.020 C 
ATOM     27  C   LIG    1       -3.923  -6.290   0.601  0.00  0.00    +0.000 C 
ATOM     28  C   LIG    1       -5.439  -2.242   0.391  0.00  0.00    +0.010 C 
ATOM     29  C   LIG    1       -2.519  -4.223   0.575  0.00  0.00    +0.030 C 
ENDBRANCH  21  22
ENDBRANCH   4  21
TORSDOF 7
