REMARK  Name = ZINCpk00000RPtPe.0
REMARK                            x       y       z     vdW  Elec       q    Type
REMARK                         _______ _______ _______ _____ _____    ______ ____
ROOT
ATOM      1  C   LIG    1        1.205   1.681  -0.000  0.00  0.00    +0.360 A 
ATOM      2  N   LIG    1       -0.014   1.208   0.009  0.00  0.00    -0.410 NA
ATOM      3  O   LIG    1        0.002  -0.004   0.002  0.00  0.00    +0.080 OA
ATOM      4  C   LIG    1        1.270  -0.443  -0.012  0.00  0.00    +0.280 A 
ATOM      5  N   LIG    1        2.045   0.627  -0.014  0.00  0.00    -0.450 NA
ENDROOT
BRANCH   1   9
ATOM      6  C   LIG    1        1.750   5.714   1.029  0.00  0.00    +0.160 C 
ATOM      7  C   LIG    1        0.812   5.348  -0.124  0.00  0.00    +0.070 C 
ATOM      8  C   LIG    1        0.381   3.887   0.019  0.00  0.00    +0.220 C 
ATOM      9  N   LIG    1        1.567   3.021   0.003  0.00  0.00    -0.440 N 
ATOM     10  C   LIG    1        2.459   3.322   1.129  0.00  0.00    +0.210 C 
ATOM     11  C   LIG    1        2.953   4.767   1.019  0.00  0.00    +0.020 C 
BRANCH   6  12
ATOM     12  O   LIG    1        2.201   7.060   0.870  0.00  0.00    -0.560 OA
ATOM     13  H   LIG    1        2.800   7.360   1.567  0.00  0.00    +0.380 HD
ENDBRANCH   6  12
ENDBRANCH   1   9
BRANCH   4  14
ATOM     14  C   LIG    1        1.715  -1.851  -0.025  0.00  0.00    +0.040 A 
ATOM     15  C   LIG    1        0.919  -2.965  -0.018  0.00  0.00    +0.220 A 
ATOM     16  N   LIG    1        1.758  -4.022  -0.038  0.00  0.00    -0.280 N 
ATOM     17  N   LIG    1        2.968  -3.586  -0.047  0.00  0.00    -0.060 NA
ATOM     18  N   LIG    1        2.985  -2.300  -0.040  0.00  0.00    -0.210 NA
BRANCH  16  19
ATOM     19  C   LIG    1        1.357  -5.431  -0.043  0.00  0.00    +0.400 C 
BRANCH  19  20
ATOM     20  C   LIG    1        1.993  -6.130  -1.217  0.00  0.00    -0.140 A 
ATOM     21  C   LIG    1        1.332  -6.183  -2.430  0.00  0.00    +0.080 A 
ATOM     22  C   LIG    1        1.917  -6.819  -3.508  0.00  0.00    -0.020 A 
ATOM     23  C   LIG    1        3.160  -7.414  -3.370  0.00  0.00    +0.120 A 
ATOM     24  C   LIG    1        3.818  -7.365  -2.153  0.00  0.00    -0.020 A 
ATOM     25  F   LIG    1        3.729  -8.042  -4.422  0.00  0.00    -0.130 F 
ATOM     26  C   LIG    1        3.234  -6.723  -1.078  0.00  0.00    +0.090 A 
ENDBRANCH  19  20
ENDBRANCH  16  19
ENDBRANCH   4  14
TORSDOF 5
