REMARK  Name = ZINCvU0000000DFr.0
REMARK                            x       y       z     vdW  Elec       q    Type
REMARK                         _______ _______ _______ _____ _____    ______ ____
ROOT
ATOM      1  C   LIG    1       -2.545  -5.949  -0.687  0.00  0.00    +0.140 A 
ATOM      2  C   LIG    1       -1.567  -4.984  -0.566  0.00  0.00    +0.020 A 
ATOM      3  C   LIG    1       -0.228  -5.372  -0.466  0.00  0.00    -0.020 A 
ATOM      4  C   LIG    1        0.845  -4.385  -0.342  0.00  0.00    -0.090 A 
ATOM      5  C   LIG    1        2.145  -4.865  -0.255  0.00  0.00    +0.030 A 
ATOM      6  C   LIG    1        2.372  -6.248  -0.295  0.00  0.00    +0.180 A 
ATOM      7  N   LIG    1        1.392  -7.119  -0.413  0.00  0.00    -0.440 NA
ATOM      8  C   LIG    1        0.114  -6.748  -0.503  0.00  0.00    +0.100 A 
ATOM      9  C   LIG    1       -0.910  -7.706  -0.628  0.00  0.00    +0.100 A 
ATOM     10  C   LIG    1       -2.206  -7.305  -0.717  0.00  0.00    -0.030 A 
ENDROOT
BRANCH   6  11
ATOM     11  C   LIG    1        3.765  -6.747  -0.202  0.00  0.00    -0.060 A 
ATOM     12  C   LIG    1        4.824  -5.849  -0.082  0.00  0.00    +0.020 A 
ATOM     13  C   LIG    1        6.118  -6.319   0.010  0.00  0.00    +0.010 A 
ATOM     14  C   LIG    1        6.367  -7.680  -0.027  0.00  0.00    +0.020 A 
ATOM     15  C   LIG    1        5.320  -8.576  -0.151  0.00  0.00    +0.010 A 
ATOM     16  C   LIG    1        4.022  -8.117  -0.239  0.00  0.00    +0.060 A 
ENDBRANCH   6  11
BRANCH   4  17
ATOM     17  C   LIG    1        0.556  -2.936  -0.304  0.00  0.00    +0.570 C 
ATOM     18  N   LIG    1        1.569  -2.047  -0.300  0.00  0.00    -0.660 N 
ATOM     19  H   LIG    1        2.485  -2.354  -0.391  0.00  0.00    +0.410 HD
ATOM     20  O   LIG    1       -0.595  -2.546  -0.276  0.00  0.00    -0.500 OA
BRANCH  18  21
ATOM     21  C   LIG    1        1.300  -0.681  -0.167  0.00  0.00    +0.160 A 
ATOM     22  C   LIG    1        2.172   0.133   0.546  0.00  0.00    -0.020 A 
ATOM     23  C   LIG    1        1.907   1.482   0.678  0.00  0.00    +0.050 A 
ATOM     24  C   LIG    1        0.775   2.026   0.103  0.00  0.00    +0.010 A 
ATOM     25  C   LIG    1       -0.101   1.218  -0.610  0.00  0.00    +0.160 A 
ATOM     26  C   LIG    1        0.162  -0.138  -0.746  0.00  0.00    +0.000 A 
BRANCH  25  27
ATOM     27  N   LIG    1       -1.248   1.770  -1.192  0.00  0.00    -0.670 N 
ATOM     28  H   LIG    1       -2.061   1.245  -1.254  0.00  0.00    +0.410 HD
ATOM     29  C   LIG    1       -1.222   3.031  -1.666  0.00  0.00    +0.510 C 
ATOM     30  O   LIG    1       -0.182   3.656  -1.673  0.00  0.00    -0.530 OA
ATOM     31  C   LIG    1       -2.486   3.666  -2.187  0.00  0.00    +0.110 C 
ENDBRANCH  25  27
ENDBRANCH  18  21
ENDBRANCH   4  17
BRANCH   1  33
ATOM     32  C   LIG    1       -4.814  -6.625  -0.902  0.00  0.00    +0.240 C 
ATOM     33  O   LIG    1       -3.849  -5.578  -0.778  0.00  0.00    -0.310 OA
ENDBRANCH   1  33
TORSDOF 5
