REMARK  Name = ZINCvU00000009hE.0
REMARK                            x       y       z     vdW  Elec       q    Type
REMARK                         _______ _______ _______ _____ _____    ______ ____
ROOT
ATOM      1  C   LIG    1       -0.685   2.987  -1.478  0.00  0.00    +0.610 C 
ATOM      2  N   LIG    1       -0.937   1.696  -1.181  0.00  0.00    -0.590 N 
ATOM      3  O   LIG    1       -0.148   3.706  -0.657  0.00  0.00    -0.510 OA
ENDROOT
BRANCH   1  11
ATOM      4  C   LIG    1       -3.130   4.113  -8.381  0.00  0.00    +0.100 C 
ATOM      5  C   LIG    1       -2.516   4.378  -7.030  0.00  0.00    -0.040 A 
ATOM      6  C   LIG    1       -2.043   5.647  -6.729  0.00  0.00    -0.010 A 
ATOM      7  C   LIG    1       -1.484   5.907  -5.509  0.00  0.00    +0.080 A 
ATOM      8  C   LIG    1       -1.389   4.886  -4.560  0.00  0.00    -0.150 A 
ATOM      9  C   LIG    1       -1.867   3.597  -4.861  0.00  0.00    +0.070 A 
ATOM     10  O   LIG    1       -1.651   2.821  -3.780  0.00  0.00    -0.170 OA
ATOM     11  C   LIG    1       -1.061   3.525  -2.793  0.00  0.00    -0.050 A 
ATOM     12  C   LIG    1       -0.871   4.809  -3.195  0.00  0.00    -0.060 A 
ATOM     13  C   LIG    1       -0.250   5.926  -2.396  0.00  0.00    +0.140 C 
ATOM     14  C   LIG    1       -2.431   3.357  -6.108  0.00  0.00    +0.020 A 
ENDBRANCH   1  11
BRANCH   2  15
ATOM     15  C   LIG    1       -0.653   1.185   0.162  0.00  0.00    +0.280 C 
ATOM     16  C   LIG    1        0.851   1.304   0.464  0.00  0.00    +0.080 C 
ATOM     17  C   LIG    1        1.071   1.085   1.974  0.00  0.00    -0.310 C 
ATOM     18  S   LIG    1       -0.487   1.626   2.765  0.00  0.00    +2.390 S 
ATOM     19  O   LIG    1       -0.250   2.814   3.508  0.00  0.00    -0.930 OA
ATOM     20  O   LIG    1       -1.111   0.512   3.389  0.00  0.00    -0.930 OA
ATOM     21  C   LIG    1       -1.388   2.042   1.224  0.00  0.00    -0.310 C 
ENDBRANCH   2  15
BRANCH   2  22
ATOM     22  C   LIG    1       -1.494   0.805  -2.202  0.00  0.00    +0.350 C 
BRANCH  22  23
ATOM     23  C   LIG    1       -2.990   0.725  -2.035  0.00  0.00    -0.120 A 
ATOM     24  C   LIG    1       -3.552  -0.329  -1.339  0.00  0.00    +0.020 A 
ATOM     25  C   LIG    1       -4.924  -0.401  -1.183  0.00  0.00    +0.000 A 
ATOM     26  C   LIG    1       -5.734   0.576  -1.731  0.00  0.00    -0.070 A 
ATOM     27  C   LIG    1       -5.172   1.627  -2.431  0.00  0.00    +0.000 A 
ATOM     28  C   LIG    1       -3.800   1.701  -2.584  0.00  0.00    +0.030 A 
BRANCH  26  29
ATOM     29  C   LIG    1       -7.229   0.495  -1.565  0.00  0.00    +0.020 C 
ATOM     30  C   LIG    1       -7.579   0.517  -0.075  0.00  0.00    +0.030 C 
ATOM     31  C   LIG    1       -7.743  -0.804  -2.190  0.00  0.00    +0.040 C 
ENDBRANCH  26  29
ENDBRANCH  22  23
ENDBRANCH   2  22
TORSDOF 5
