REMARK  Name = ZINCrH000004quM0.0
REMARK                            x       y       z     vdW  Elec       q    Type
REMARK                         _______ _______ _______ _____ _____    ______ ____
ROOT
ATOM      1  N   LIG    1       -2.662   4.951   1.322  0.00  0.00    -1.110 NA
ATOM      2  H   LIG    1       -2.574   5.704   1.928  0.00  0.00    +0.430 HD
ENDROOT
BRANCH   1   3
ATOM      3  S   LIG    1       -2.651   3.405   1.914  0.00  0.00    +2.700 S 
ATOM      4  O   LIG    1       -2.464   3.514   3.319  0.00  0.00    -0.950 OA
ATOM      5  O   LIG    1       -3.762   2.742   1.327  0.00  0.00    -0.950 OA
BRANCH   3   6
ATOM      6  C   LIG    1       -1.208   2.615   1.281  0.00  0.00    -0.680 A 
ATOM      7  C   LIG    1       -1.292   1.830   0.146  0.00  0.00    +0.020 A 
ATOM      8  C   LIG    1       -0.162   1.206  -0.348  0.00  0.00    -0.110 A 
ATOM      9  C   LIG    1        1.054   1.375   0.287  0.00  0.00    +0.080 A 
ATOM     10  C   LIG    1        1.139   2.165   1.419  0.00  0.00    -0.110 A 
ATOM     11  C   LIG    1        2.465   2.350   2.111  0.00  0.00    +0.100 C 
ATOM     12  C   LIG    1       -0.255   0.346  -1.582  0.00  0.00    +0.090 C 
ATOM     13  C   LIG    1       -2.617   1.651  -0.550  0.00  0.00    +0.110 C 
ATOM     14  C   LIG    1        0.008   2.785   1.915  0.00  0.00    +0.030 A 
ATOM     15  C   LIG    1        0.100   3.645   3.149  0.00  0.00    +0.100 C 
ENDBRANCH   3   6
ENDBRANCH   1   3
BRANCH   1  16
ATOM     16  C   LIG    1       -2.806   5.184  -0.117  0.00  0.00    +0.310 C 
BRANCH  16  19
ATOM     17  N   LIG    1       -3.337   7.077  -1.619  0.00  0.00    -0.670 N 
ATOM     18  H   LIG    1       -3.310   6.455  -2.363  0.00  0.00    +0.410 HD
ATOM     19  C   LIG    1       -3.155   6.630  -0.360  0.00  0.00    +0.510 C 
ATOM     20  O   LIG    1       -3.271   7.391   0.577  0.00  0.00    -0.510 OA
BRANCH  17  25
ATOM     21  C   LIG    1       -4.262  12.593  -2.563  0.00  0.00    +0.090 C 
ATOM     22  C   LIG    1       -4.016  11.128  -2.313  0.00  0.00    -0.080 A 
ATOM     23  C   LIG    1       -2.966  10.486  -2.944  0.00  0.00    +0.010 A 
ATOM     24  C   LIG    1       -2.738   9.143  -2.716  0.00  0.00    -0.080 A 
ATOM     25  C   LIG    1       -3.565   8.437  -1.852  0.00  0.00    +0.120 A 
ATOM     26  C   LIG    1       -4.622   9.083  -1.224  0.00  0.00    -0.060 A 
ATOM     27  C   LIG    1       -5.525   8.319  -0.290  0.00  0.00    +0.100 C 
ATOM     28  C   LIG    1       -1.593   8.445  -3.403  0.00  0.00    +0.080 C 
ATOM     29  C   LIG    1       -4.841  10.427  -1.452  0.00  0.00    +0.010 A 
ENDBRANCH  17  25
ENDBRANCH  16  19
ENDBRANCH   1  16
TORSDOF 5
