REMARK  Name = ZINCrD0000073yEf.0
REMARK                            x       y       z     vdW  Elec       q    Type
REMARK                         _______ _______ _______ _____ _____    ______ ____
ROOT
ATOM      1  C   LIG    1       -0.899   1.690  -3.713  0.00  0.00    +0.270 C 
ATOM      2  C   LIG    1       -0.056   1.078  -4.851  0.00  0.00    +0.050 C 
ATOM      3  C   LIG    1        0.651  -0.116  -4.156  0.00  0.00    +0.040 C 
ATOM      4  C   LIG    1        0.906   0.460  -2.738  0.00  0.00    +0.240 C 
ATOM      5  N   LIG    1       -0.288   1.272  -2.443  0.00  0.00    -0.610 N 
ATOM      6  C   LIG    1       -0.742   1.585  -1.213  0.00  0.00    +0.540 C 
ATOM      7  O   LIG    1       -1.736   2.268  -1.088  0.00  0.00    -0.520 OA
ENDROOT
BRANCH   1  11
ATOM      8  C   LIG    1       -0.872   5.954  -4.005  0.00  0.00    +0.130 A 
ATOM      9  C   LIG    1       -1.977   5.235  -4.438  0.00  0.00    -0.020 A 
ATOM     10  C   LIG    1       -1.983   3.857  -4.343  0.00  0.00    +0.070 A 
ATOM     11  C   LIG    1       -0.890   3.194  -3.816  0.00  0.00    -0.120 A 
ATOM     12  C   LIG    1        0.210   3.909  -3.379  0.00  0.00    +0.060 A 
ATOM     13  C   LIG    1        0.224   5.287  -3.477  0.00  0.00    -0.080 A 
BRANCH   8  15
ATOM     14  C   LIG    1        0.308   7.984  -3.633  0.00  0.00    +0.240 C 
ATOM     15  O   LIG    1       -0.863   7.310  -4.098  0.00  0.00    -0.320 OA
ENDBRANCH   8  15
ENDBRANCH   1  11
BRANCH   6  16
ATOM     16  C   LIG    1       -0.013   1.086   0.008  0.00  0.00    +0.040 C 
BRANCH  16  17
ATOM     17  C   LIG    1       -0.729   1.579   1.267  0.00  0.00    +0.360 C 
BRANCH  17  18
ATOM     18  N   LIG    1       -0.020   1.094   2.454  0.00  0.00    -0.550 N 
ATOM     19  C   LIG    1       -0.254  -0.063   3.104  0.00  0.00    +0.630 A 
ATOM     20  O   LIG    1        0.591  -0.172   4.141  0.00  0.00    -0.240 OA
ATOM     21  C   LIG    1        1.385   0.926   4.186  0.00  0.00    +0.030 A 
ATOM     22  C   LIG    1        2.405   1.321   5.037  0.00  0.00    +0.060 A 
ATOM     23  C   LIG    1        3.049   2.525   4.828  0.00  0.00    +0.030 A 
ATOM     24  C   LIG    1        2.682   3.339   3.771  0.00  0.00    +0.040 A 
ATOM     25  C   LIG    1        1.666   2.954   2.917  0.00  0.00    +0.030 A 
ATOM     26  O   LIG    1       -1.098  -0.883   2.797  0.00  0.00    -0.480 OA
ATOM     27  C   LIG    1        1.015   1.748   3.121  0.00  0.00    +0.070 A 
ENDBRANCH  17  18
ENDBRANCH  16  17
ENDBRANCH   6  16
TORSDOF 5
