REMARK  Name = ZINCrH000004q5p4.0
REMARK                            x       y       z     vdW  Elec       q    Type
REMARK                         _______ _______ _______ _____ _____    ______ ____
ROOT
ATOM      1  C   LIG    1       -2.698   9.579  -0.117  0.00  0.00    +0.130 C 
ATOM      2  C   LIG    1       -1.620   8.530  -0.031  0.00  0.00    -0.280 A 
ATOM      3  C   LIG    1       -1.940   7.240   0.259  0.00  0.00    +0.200 A 
ATOM      4  O   LIG    1       -1.017   6.270   0.347  0.00  0.00    -0.180 OA
ATOM      5  C   LIG    1        0.295   6.503   0.154  0.00  0.00    +0.190 A 
ATOM      6  C   LIG    1        1.233   5.466   0.254  0.00  0.00    -0.130 A 
ATOM      7  C   LIG    1        2.585   5.739   0.055  0.00  0.00    +0.150 A 
ATOM      8  C   LIG    1        3.006   7.021  -0.249  0.00  0.00    -0.030 A 
ATOM      9  C   LIG    1        2.093   8.051  -0.351  0.00  0.00    +0.130 A 
ATOM     10  C   LIG    1        0.737   7.800  -0.151  0.00  0.00    -0.240 A 
ATOM     11  C   LIG    1       -0.266   8.879  -0.251  0.00  0.00    +0.430 A 
ATOM     12  O   LIG    1        0.059  10.025  -0.513  0.00  0.00    -0.470 OA
ENDROOT
BRANCH   3  13
ATOM     13  C   LIG    1       -3.358   6.895   0.486  0.00  0.00    -0.060 A 
ATOM     14  C   LIG    1       -4.133   7.654   1.366  0.00  0.00    +0.050 A 
ATOM     15  C   LIG    1       -5.458   7.329   1.568  0.00  0.00    +0.010 A 
ATOM     16  C   LIG    1       -6.016   6.247   0.912  0.00  0.00    +0.030 A 
ATOM     17  C   LIG    1       -5.253   5.486   0.044  0.00  0.00    +0.010 A 
ATOM     18  C   LIG    1       -3.928   5.803  -0.173  0.00  0.00    +0.060 A 
ENDBRANCH   3  13
BRANCH   6  19
ATOM     19  C   LIG    1        0.791   4.092   0.575  0.00  0.00    +0.540 C 
ATOM     20  O   LIG    1       -0.392   3.859   0.753  0.00  0.00    -0.540 OA
BRANCH  19  21
ATOM     21  N   LIG    1        1.689   3.105   0.669  0.00  0.00    -0.680 NA
ATOM     22  C   LIG    1        1.292   1.869   0.958  0.00  0.00    +0.490 A 
ATOM     23  C   LIG    1       -0.036   1.450   1.189  0.00  0.00    -0.110 A 
ATOM     24  C   LIG    1       -0.021   0.125   1.449  0.00  0.00    +0.350 A 
ATOM     25  N   LIG    1        1.266  -0.323   1.394  0.00  0.00    -0.390 N 
ATOM     26  C   LIG    1        1.705  -1.703   1.617  0.00  0.00    +0.370 C 
ATOM     27  N   LIG    1        2.097   0.763   1.087  0.00  0.00    -0.480 N 
ATOM     28  H   LIG    1        3.061   0.739   0.984  0.00  0.00    +0.450 HD
ENDBRANCH  19  21
ENDBRANCH   6  19
TORSDOF 3
