REMARK  Name = ZINCrD00000hQ48K.0
REMARK                            x       y       z     vdW  Elec       q    Type
REMARK                         _______ _______ _______ _____ _____    ______ ____
ROOT
ATOM      1  C   LIG    1       -0.328   2.667   1.831  0.00  0.00    +0.530 C 
ATOM      2  N   LIG    1       -0.701   1.544   1.187  0.00  0.00    -0.600 N 
ATOM      3  O   LIG    1       -0.867   2.976   2.872  0.00  0.00    -0.510 OA
ENDROOT
BRANCH   1  10
ATOM      4  C   LIG    1       -1.142   9.375   3.149  0.00  0.00    +0.100 C 
ATOM      5  C   LIG    1       -0.438   8.053   2.983  0.00  0.00    -0.070 A 
ATOM      6  C   LIG    1        0.365   7.558   3.994  0.00  0.00    +0.020 A 
ATOM      7  C   LIG    1        1.013   6.351   3.846  0.00  0.00    +0.030 A 
ATOM      8  C   LIG    1        0.877   5.600   2.678  0.00  0.00    -0.090 A 
ATOM      9  C   LIG    1        1.528   4.273   2.375  0.00  0.00    +0.130 C 
ATOM     10  C   LIG    1        0.761   3.538   1.258  0.00  0.00    +0.040 C 
ATOM     11  S   LIG    1        0.054   4.949   0.328  0.00  0.00    -0.090 S 
ATOM     12  C   LIG    1        0.062   6.106   1.673  0.00  0.00    -0.080 A 
ATOM     13  C   LIG    1       -0.588   7.323   1.821  0.00  0.00    +0.050 A 
ENDBRANCH   1  10
BRANCH   2  14
ATOM     14  C   LIG    1       -1.839   0.762   1.676  0.00  0.00    +0.340 C 
BRANCH  14  15
ATOM     15  C   LIG    1       -1.371  -0.194   2.743  0.00  0.00    -0.110 A 
ATOM     16  C   LIG    1       -0.951  -1.464   2.397  0.00  0.00    +0.010 A 
ATOM     17  C   LIG    1       -0.516  -2.339   3.375  0.00  0.00    -0.010 A 
ATOM     18  C   LIG    1       -0.512  -1.947   4.701  0.00  0.00    +0.010 A 
ATOM     19  C   LIG    1       -0.937  -0.678   5.048  0.00  0.00    +0.000 A 
ATOM     20  C   LIG    1       -1.367   0.199   4.069  0.00  0.00    +0.040 A 
ENDBRANCH  14  15
ENDBRANCH   2  14
BRANCH   2  21
ATOM     21  C   LIG    1        0.031   1.104  -0.004  0.00  0.00    +0.270 C 
BRANCH  21  22
ATOM     22  C   LIG    1       -0.660   1.646  -1.257  0.00  0.00    +0.260 C 
BRANCH  22  23
ATOM     23  N   LIG    1        0.072   1.207  -2.447  0.00  0.00    -0.730 N 
ATOM     24  H   LIG    1        0.865   0.657  -2.353  0.00  0.00    +0.400 HD
ATOM     25  C   LIG    1       -0.357   1.568  -3.673  0.00  0.00    +0.500 C 
ATOM     26  O   LIG    1       -1.349   2.256  -3.791  0.00  0.00    -0.510 OA
BRANCH  25  27
ATOM     27  C   LIG    1        0.396   1.116  -4.898  0.00  0.00    +0.170 C 
ATOM     28 CL   LIG    1       -0.418   1.755  -6.374  0.00  0.00    -0.130 Cl
ENDBRANCH  25  27
ENDBRANCH  22  23
ENDBRANCH  21  22
ENDBRANCH   2  21
TORSDOF 7
