REMARK  Name = ZINCrD000000Cba7.2
REMARK                            x       y       z     vdW  Elec       q    Type
REMARK                         _______ _______ _______ _____ _____    ______ ____
ROOT
ATOM      1  O   LIG    1       -6.787   5.308   3.478  0.00  0.00    -0.560 OA
ATOM      2  C   LIG    1       -6.173   4.925   4.455  0.00  0.00    +0.710 C 
ATOM      3  N   LIG    1       -6.588   5.269   5.690  0.00  0.00    -0.620 N 
ATOM      4  C   LIG    1       -5.788   4.940   6.881  0.00  0.00    +0.280 C 
ATOM      5  C   LIG    1       -6.689   4.213   7.875  0.00  0.00    +0.160 C 
ATOM      6  N   LIG    1       -7.885   5.024   8.158  0.00  0.00    -0.520 NA
ATOM      7  C   LIG    1       -8.668   4.368   9.218  0.00  0.00    +0.160 C 
ATOM      8  C   LIG    1       -9.865   5.236   9.604  0.00  0.00    +0.020 C 
ATOM      9  C   LIG    1      -10.746   5.438   8.367  0.00  0.00    +0.010 C 
ATOM     10  C   LIG    1       -9.909   6.106   7.275  0.00  0.00    +0.040 C 
ATOM     11  C   LIG    1       -8.688   5.239   6.949  0.00  0.00    +0.120 C 
ATOM     12  C   LIG    1       -7.856   5.981   5.894  0.00  0.00    +0.320 C 
ATOM     13  N   LIG    1       -5.077   4.155   4.303  0.00  0.00    -0.680 N 
ATOM     14  H   LIG    1       -4.661   3.744   5.077  0.00  0.00    +0.410 HD
ENDROOT
BRANCH  13  15
ATOM     15  C   LIG    1       -4.540   3.950   3.031  0.00  0.00    +0.240 A 
ATOM     16  C   LIG    1       -5.335   4.069   1.891  0.00  0.00    -0.060 A 
ATOM     17  C   LIG    1       -4.770   3.858   0.652  0.00  0.00    +0.320 A 
ATOM     18  N   LIG    1       -3.492   3.548   0.533  0.00  0.00    -0.560 NA
ATOM     19  C   LIG    1       -2.703   3.425   1.588  0.00  0.00    +0.340 A 
ATOM     20  C   LIG    1       -3.198   3.616   2.869  0.00  0.00    -0.090 A 
BRANCH  19  21
ATOM     21  O   LIG    1       -1.396   3.104   1.415  0.00  0.00    -0.300 OA
BRANCH  21  22
ATOM     22  C   LIG    1       -0.947   2.915   0.072  0.00  0.00    +0.280 C 
BRANCH  22  23
ATOM     23  C   LIG    1        0.520   2.567   0.077  0.00  0.00    -0.100 A 
ATOM     24  C   LIG    1        1.468   3.570   0.002  0.00  0.00    +0.020 A 
ATOM     25  C   LIG    1        2.813   3.251  -0.000  0.00  0.00    +0.010 A 
ATOM     26  C   LIG    1        3.209   1.928   0.074  0.00  0.00    +0.010 A 
ATOM     27  C   LIG    1        2.261   0.925   0.149  0.00  0.00    +0.010 A 
ATOM     28  C   LIG    1        0.916   1.245   0.151  0.00  0.00    +0.020 A 
ENDBRANCH  22  23
ENDBRANCH  21  22
ENDBRANCH  19  21
ENDBRANCH  13  15
TORSDOF 4
