REMARK  Name = ZINCpe000000WnqC.0
REMARK                            x       y       z     vdW  Elec       q    Type
REMARK                         _______ _______ _______ _____ _____    ______ ____
ROOT
ATOM      1  N   LIG    1       -4.839   3.882  -0.625  0.00  0.00    -0.410 N 
ATOM      2  C   LIG    1       -5.282   5.103  -0.268  0.00  0.00    +0.530 A 
ATOM      3  N   LIG    1       -6.208   5.499  -1.103  0.00  0.00    -0.500 NA
ATOM      4  C   LIG    1       -6.415   4.558  -2.028  0.00  0.00    +0.320 A 
ATOM      5  N   LIG    1       -7.262   4.453  -3.119  0.00  0.00    -0.510 N 
ATOM      6  C   LIG    1       -8.184   5.546  -3.438  0.00  0.00    +0.340 C 
ATOM      7  C   LIG    1       -7.240   3.348  -3.888  0.00  0.00    +0.710 A 
ATOM      8  O   LIG    1       -7.991   3.273  -4.841  0.00  0.00    -0.530 OA
ATOM      9  N   LIG    1       -6.409   2.324  -3.627  0.00  0.00    -0.550 N 
ATOM     10  C   LIG    1       -6.425   1.143  -4.494  0.00  0.00    +0.350 C 
ATOM     11  C   LIG    1       -5.561   2.367  -2.579  0.00  0.00    +0.600 A 
ATOM     12  O   LIG    1       -4.812   1.433  -2.354  0.00  0.00    -0.510 OA
ATOM     13  C   LIG    1       -5.551   3.507  -1.747  0.00  0.00    -0.160 A 
ENDROOT
BRANCH   1  14
ATOM     14  C   LIG    1       -3.804   3.098   0.053  0.00  0.00    +0.230 C 
ATOM     15  C   LIG    1       -4.230   2.831   1.498  0.00  0.00    +0.090 C 
BRANCH  14  16
ATOM     16  C   LIG    1       -2.507   3.865   0.044  0.00  0.00    +0.400 C 
ATOM     17  O   LIG    1       -2.520   5.078   0.050  0.00  0.00    -0.440 OA
BRANCH  16  21
ATOM     18  C   LIG    1        1.183   1.786   0.000  0.00  0.00    +0.170 A 
ATOM     19  C   LIG    1       -0.013   1.076   0.008  0.00  0.00    -0.020 A 
ATOM     20  C   LIG    1       -1.210   1.744   0.017  0.00  0.00    +0.110 A 
ATOM     21  C   LIG    1       -1.227   3.144   0.029  0.00  0.00    -0.220 A 
ATOM     22  C   LIG    1       -0.021   3.855   0.022  0.00  0.00    +0.130 A 
ATOM     23  C   LIG    1        1.171   3.177   0.007  0.00  0.00    -0.080 A 
BRANCH  18  25
ATOM     24  C   LIG    1        3.555   1.911  -0.022  0.00  0.00    +0.250 C 
ATOM     25  O   LIG    1        2.365   1.121  -0.015  0.00  0.00    -0.310 OA
ENDBRANCH  18  25
ENDBRANCH  16  21
ENDBRANCH  14  16
ENDBRANCH   1  14
TORSDOF 4
