REMARK  Name = ZINCnE000008JbsM.0
REMARK                            x       y       z     vdW  Elec       q    Type
REMARK                         _______ _______ _______ _____ _____    ______ ____
ROOT
ATOM      1  S   LIG    1       -0.067  -2.969  -0.172  0.00  0.00    +2.610 S 
ATOM      2  O   LIG    1        0.125  -4.329   0.192  0.00  0.00    -1.040 OA
ATOM      3  O   LIG    1        0.383  -2.423  -1.405  0.00  0.00    -1.020 OA
ENDROOT
BRANCH   1   4
ATOM      4  C   LIG    1        0.677  -2.004   1.101  0.00  0.00    -0.650 A 
ATOM      5  C   LIG    1        1.316  -2.626   2.155  0.00  0.00    +0.150 A 
ATOM      6  C   LIG    1        1.896  -1.869   3.157  0.00  0.00    -0.150 A 
ATOM      7  C   LIG    1        1.841  -0.488   3.104  0.00  0.00    +0.080 A 
ATOM      8  C   LIG    1        1.207   0.138   2.048  0.00  0.00    -0.100 A 
ATOM      9  C   LIG    1        0.626  -0.618   1.042  0.00  0.00    +0.220 A 
BRANCH   6  10
ATOM     10  C   LIG    1        2.587  -2.550   4.310  0.00  0.00    +0.060 C 
ATOM     11  C   LIG    1        1.579  -2.801   5.433  0.00  0.00    +0.010 C 
ENDBRANCH   6  10
BRANCH   9  12
ATOM     12  O   LIG    1        0.002  -0.004   0.002  0.00  0.00    -0.290 OA
ATOM     13  C   LIG    1       -0.017   1.425   0.010  0.00  0.00    +0.240 C 
ENDBRANCH   9  12
ENDBRANCH   1   4
BRANCH   1  14
ATOM     14  N   LIG    1       -1.698  -2.692  -0.106  0.00  0.00    -1.080 NA
BRANCH  14  18
ATOM     15  C   LIG    1       -4.245  -4.601  -2.798  0.00  0.00    +0.010 A 
ATOM     16  C   LIG    1       -4.765  -3.735  -1.847  0.00  0.00    +0.010 A 
ATOM     17  C   LIG    1       -3.921  -3.102  -0.955  0.00  0.00    -0.030 A 
ATOM     18  C   LIG    1       -2.553  -3.333  -1.010  0.00  0.00    +0.260 A 
ATOM     19  C   LIG    1       -2.034  -4.196  -1.966  0.00  0.00    -0.130 A 
ATOM     20  C   LIG    1       -2.879  -4.832  -2.853  0.00  0.00    -0.030 A 
BRANCH  15  21
ATOM     21  O   LIG    1       -5.077  -5.224  -3.676  0.00  0.00    -0.330 OA
BRANCH  21  23
ATOM     22  C   LIG    1       -5.558  -6.706  -5.523  0.00  0.00    +0.040 C 
ATOM     23  C   LIG    1       -4.474  -6.103  -4.628  0.00  0.00    +0.160 C 
ENDBRANCH  21  23
ENDBRANCH  15  21
ENDBRANCH  14  18
ENDBRANCH   1  14
TORSDOF 7
