REMARK  Name = ZINCrH000004tNaX.0
REMARK                            x       y       z     vdW  Elec       q    Type
REMARK                         _______ _______ _______ _____ _____    ______ ____
ROOT
ATOM      1  N   LIG    1        6.944   4.201   1.324  0.00  0.00    -0.720 N 
ATOM      2  H   LIG    1        6.628   4.897   0.727  0.00  0.00    +0.410 HD
ATOM      3  C   LIG    1        6.578   2.920   1.119  0.00  0.00    +0.520 C 
ATOM      4  O   LIG    1        6.973   2.050   1.865  0.00  0.00    -0.530 OA
ENDROOT
BRANCH   1   5
ATOM      5  C   LIG    1        7.818   4.542   2.449  0.00  0.00    +0.300 C 
BRANCH   5   7
ATOM      6  O   LIG    1        7.574   6.732   1.603  0.00  0.00    -0.540 OA
ATOM      7  C   LIG    1        8.073   6.027   2.454  0.00  0.00    +0.510 C 
ATOM      8  N   LIG    1        8.856   6.573   3.406  0.00  0.00    -0.720 N 
ATOM      9  H   LIG    1        9.256   6.010   4.088  0.00  0.00    +0.410 HD
BRANCH   8  10
ATOM     10  C   LIG    1        9.104   8.017   3.412  0.00  0.00    +0.320 C 
BRANCH  10  11
ATOM     11  C   LIG    1       10.004   8.368   4.569  0.00  0.00    -0.110 A 
ATOM     12  C   LIG    1        9.456   8.696   5.795  0.00  0.00    +0.020 A 
ATOM     13  C   LIG    1       10.281   9.014   6.858  0.00  0.00    +0.010 A 
ATOM     14  C   LIG    1       11.654   9.012   6.692  0.00  0.00    +0.010 A 
ATOM     15  C   LIG    1       12.201   8.688   5.464  0.00  0.00    +0.010 A 
ATOM     16  C   LIG    1       11.376   8.366   4.403  0.00  0.00    +0.020 A 
ENDBRANCH  10  11
ENDBRANCH   8  10
ENDBRANCH   5   7
ENDBRANCH   1   5
BRANCH   3  17
ATOM     17  C   LIG    1        5.679   2.570  -0.038  0.00  0.00    +0.050 C 
BRANCH  17  18
ATOM     18  C   LIG    1        5.420   1.062  -0.044  0.00  0.00    +0.010 C 
ATOM     19  C   LIG    1        4.611   0.688  -1.288  0.00  0.00    +0.020 C 
ATOM     20  C   LIG    1        3.275   1.435  -1.271  0.00  0.00    +0.020 C 
ATOM     21  C   LIG    1        2.490   1.048  -0.016  0.00  0.00    +0.030 C 
ATOM     22  C   LIG    1        3.299   1.421   1.228  0.00  0.00    +0.010 C 
ATOM     23  C   LIG    1        4.635   0.674   1.211  0.00  0.00    +0.020 C 
BRANCH  21  24
ATOM     24  C   LIG    1        1.175   1.783   0.000  0.00  0.00    -0.070 A 
ATOM     25  C   LIG    1       -0.013   1.076   0.008  0.00  0.00    +0.000 A 
ATOM     26  C   LIG    1       -1.219   1.751   0.017  0.00  0.00    +0.000 A 
ATOM     27  C   LIG    1       -1.238   3.133   0.030  0.00  0.00    -0.010 A 
ATOM     28  C   LIG    1       -0.050   3.840   0.022  0.00  0.00    +0.000 A 
ATOM     29  C   LIG    1        1.156   3.165   0.008  0.00  0.00    +0.000 A 
ENDBRANCH  21  24
ENDBRANCH  17  18
ENDBRANCH   3  17
TORSDOF 7
