REMARK  Name = ZINCpe000000TO65.0
REMARK                            x       y       z     vdW  Elec       q    Type
REMARK                         _______ _______ _______ _____ _____    ______ ____
ROOT
ATOM      1  N   LIG    1        3.734   1.177  -0.491  0.00  0.00    -0.470 N 
ATOM      2  C   LIG    1        3.810   1.876  -1.781  0.00  0.00    +0.200 C 
ATOM      3  C   LIG    1        4.704   3.112  -1.637  0.00  0.00    +0.280 C 
ATOM      4  N   LIG    1        5.999   2.689  -1.082  0.00  0.00    -0.630 N 
ATOM      5  C   LIG    1        5.998   1.867   0.138  0.00  0.00    +0.320 C 
ATOM      6  C   LIG    1        7.156   3.046  -1.674  0.00  0.00    +0.720 C 
ATOM      7  N   LIG    1        7.150   3.954  -2.671  0.00  0.00    -0.640 N 
ATOM      8  C   LIG    1        6.016   4.873  -2.852  0.00  0.00    +0.250 C 
ATOM      9  C   LIG    1        6.570   6.303  -2.962  0.00  0.00    +0.220 C 
ATOM     10  O   LIG    1        7.582   6.336  -3.972  0.00  0.00    -0.380 OA
ATOM     11  C   LIG    1        8.718   5.516  -3.690  0.00  0.00    +0.220 C 
ATOM     12  C   LIG    1        8.276   4.050  -3.613  0.00  0.00    +0.270 C 
ATOM     13  O   LIG    1        8.204   2.550  -1.310  0.00  0.00    -0.580 OA
ATOM     14  C   LIG    1        5.052   0.680  -0.076  0.00  0.00    +0.210 C 
ENDROOT
BRANCH   1  18
ATOM     15  C   LIG    1        1.006  -1.889  -0.621  0.00  0.00    -0.210 A 
ATOM     16  C   LIG    1        0.581  -0.595  -0.957  0.00  0.00    +0.160 A 
ATOM     17  C   LIG    1        1.494   0.424  -0.912  0.00  0.00    -0.050 A 
ATOM     18  C   LIG    1        2.808   0.149  -0.538  0.00  0.00    +0.350 A 
ATOM     19  N   LIG    1        3.184  -1.084  -0.225  0.00  0.00    -0.530 NA
ATOM     20  C   LIG    1        2.338  -2.092  -0.255  0.00  0.00    +0.370 A 
BRANCH  15  21
ATOM     21  C   LIG    1        0.060  -3.019  -0.654  0.00  0.00    +0.520 C 
ATOM     22  O   LIG    1       -1.098  -2.833  -0.974  0.00  0.00    -0.510 OA
BRANCH  21  23
ATOM     23  O   LIG    1        0.478  -4.258  -0.330  0.00  0.00    -0.350 OA
BRANCH  23  25
ATOM     24  C   LIG    1        0.147  -6.646   0.014  0.00  0.00    +0.070 C 
ATOM     25  C   LIG    1       -0.508  -5.322  -0.384  0.00  0.00    +0.200 C 
ENDBRANCH  23  25
ENDBRANCH  21  23
ENDBRANCH  15  21
ENDBRANCH   1  18
TORSDOF 4
