REMARK  Name = ZINCqH0000005NG4.0
REMARK                            x       y       z     vdW  Elec       q    Type
REMARK                         _______ _______ _______ _____ _____    ______ ____
ROOT
ATOM      1  C   LIG    1       -1.218   2.217   0.020  0.00  0.00    +0.590 C 
ATOM      2  N   LIG    1       -2.440   1.649   0.024  0.00  0.00    -0.720 N 
ATOM      3  H   LIG    1       -2.526   0.683   0.019  0.00  0.00    +0.390 HD
ATOM      4  O   LIG    1       -1.111   3.429   0.026  0.00  0.00    -0.520 OA
ENDROOT
BRANCH   1   9
ATOM      5  C   LIG    1        2.104   0.678  -0.014  0.00  0.00    -0.210 A 
ATOM      6  C   LIG    1        1.275  -0.429  -0.012  0.00  0.00    +0.120 A 
ATOM      7  N   LIG    1        0.002  -0.004   0.002  0.00  0.00    -0.520 N 
ATOM      8  H   LIG    1       -0.781  -0.576   0.006  0.00  0.00    +0.420 HD
ATOM      9  C   LIG    1       -0.017   1.374   0.010  0.00  0.00    -0.060 A 
ATOM     10  C   LIG    1        1.724  -1.867  -0.024  0.00  0.00    +0.160 C 
ATOM     11  C   LIG    1        1.272   1.820  -0.000  0.00  0.00    -0.020 A 
ATOM     12  C   LIG    1        1.722   3.258   0.003  0.00  0.00    +0.130 C 
BRANCH   5  13
ATOM     13  C   LIG    1        3.577   0.668  -0.029  0.00  0.00    +0.550 C 
ATOM     14  O   LIG    1        4.174   0.669  -1.087  0.00  0.00    -0.500 OA
BRANCH  13  16
ATOM     15  C   LIG    1        5.711   0.649   1.042  0.00  0.00    +0.250 C 
ATOM     16  O   LIG    1        4.262   0.658   1.132  0.00  0.00    -0.350 OA
ENDBRANCH  13  16
ENDBRANCH   5  13
ENDBRANCH   1   9
BRANCH   2  17
ATOM     17  C   LIG    1       -3.639   2.490   0.034  0.00  0.00    +0.240 C 
ATOM     18  C   LIG    1       -3.977   2.879   1.475  0.00  0.00    +0.020 C 
BRANCH  17  19
ATOM     19  C   LIG    1       -4.811   1.716  -0.574  0.00  0.00    -0.060 C 
ATOM     20  C   LIG    1       -4.473   1.328  -2.014  0.00  0.00    +0.020 C 
ATOM     21  C   LIG    1       -5.645   0.554  -2.622  0.00  0.00    -0.020 C 
ATOM     22  C   LIG    1       -5.902  -0.711  -1.800  0.00  0.00    +0.010 C 
ATOM     23  C   LIG    1       -6.240  -0.322  -0.359  0.00  0.00    -0.020 C 
ATOM     24  C   LIG    1       -7.492   0.557  -0.348  0.00  0.00    +0.010 C 
ATOM     25  C   LIG    1       -7.235   1.821  -1.170  0.00  0.00    -0.020 C 
ATOM     26  C   LIG    1       -6.897   1.433  -2.611  0.00  0.00    +0.010 C 
ATOM     27  C   LIG    1       -5.068   0.452   0.249  0.00  0.00    +0.020 C 
ATOM     28  C   LIG    1       -6.064   2.595  -0.563  0.00  0.00    +0.040 C 
ENDBRANCH  17  19
ENDBRANCH   2  17
TORSDOF 5
