REMARK  Name = ZINCrH000004syiU.0
REMARK                            x       y       z     vdW  Elec       q    Type
REMARK                         _______ _______ _______ _____ _____    ______ ____
ROOT
ATOM      1  C   LIG    1        3.278  14.828   4.161  0.00  0.00    +0.190 C 
ATOM      2  C   LIG    1        2.792  13.550   3.527  0.00  0.00    +0.290 A 
ATOM      3  N   LIG    1        3.068  12.354   3.957  0.00  0.00    -0.480 NA
ATOM      4  C   LIG    1        2.471  11.432   3.155  0.00  0.00    +0.040 A 
ATOM      5  C   LIG    1        2.436  10.039   3.156  0.00  0.00    +0.160 A 
ATOM      6  C   LIG    1        1.715   9.371   2.171  0.00  0.00    -0.150 A 
ATOM      7  C   LIG    1        1.034  10.094   1.184  0.00  0.00    +0.060 A 
ATOM      8  C   LIG    1        1.061  11.459   1.183  0.00  0.00    +0.020 A 
ATOM      9  C   LIG    1        1.777  12.143   2.158  0.00  0.00    +0.070 A 
ATOM     10  N   LIG    1        1.998  13.479   2.421  0.00  0.00    -0.450 N 
ENDROOT
BRANCH  10  11
ATOM     11  C   LIG    1        1.500  14.564   1.686  0.00  0.00    +0.110 A 
ATOM     12  C   LIG    1        0.133  14.800   1.635  0.00  0.00    +0.020 A 
ATOM     13  C   LIG    1       -0.355  15.871   0.913  0.00  0.00    +0.030 A 
ATOM     14  C   LIG    1        0.516  16.704   0.235  0.00  0.00    +0.020 A 
ATOM     15  C   LIG    1        1.878  16.469   0.280  0.00  0.00    +0.040 A 
ATOM     16  C   LIG    1        2.373  15.401   1.004  0.00  0.00    +0.020 A 
ENDBRANCH  10  11
BRANCH   6  17
ATOM     17  C   LIG    1        1.671   7.895   2.164  0.00  0.00    +0.570 C 
ATOM     18  N   LIG    1        0.973   7.246   1.212  0.00  0.00    -0.730 N 
ATOM     19  H   LIG    1        0.499   7.748   0.531  0.00  0.00    +0.400 HD
ATOM     20  O   LIG    1        2.266   7.265   3.018  0.00  0.00    -0.530 OA
BRANCH  18  21
ATOM     21  C   LIG    1        0.930   5.781   1.205  0.00  0.00    +0.280 C 
BRANCH  21  22
ATOM     22  C   LIG    1        0.077   5.302   0.029  0.00  0.00    +0.100 C 
BRANCH  22  23
ATOM     23  C   LIG    1        0.033   3.795   0.022  0.00  0.00    +0.130 A 
ATOM     24  C   LIG    1       -1.188   3.148   0.030  0.00  0.00    -0.030 A 
ATOM     25  C   LIG    1       -1.217   1.761   0.017  0.00  0.00    +0.070 A 
ATOM     26  C   LIG    1       -0.013   1.076   0.008  0.00  0.00    -0.040 A 
ATOM     27  C   LIG    1        1.170   1.792   0.001  0.00  0.00    +0.270 A 
ATOM     28  N   LIG    1        1.160   3.110   0.007  0.00  0.00    -0.480 NA
ENDBRANCH  22  23
ENDBRANCH  21  22
ENDBRANCH  18  21
ENDBRANCH   6  17
TORSDOF 5
