REMARK  Name = ZINCqH0000001nOG.0
REMARK                            x       y       z     vdW  Elec       q    Type
REMARK                         _______ _______ _______ _____ _____    ______ ____
ROOT
ATOM      1  N   LIG    1       -0.860   3.478   1.220  0.00  0.00    -0.450 N 
ATOM      2  C   LIG    1       -1.890   4.201   0.686  0.00  0.00    +0.150 A 
ATOM      3  N   LIG    1       -1.602   5.472   0.852  0.00  0.00    -0.290 NA
ATOM      4  N   LIG    1       -0.470   5.595   1.449  0.00  0.00    -0.250 NA
ATOM      5  C   LIG    1        0.032   4.407   1.707  0.00  0.00    +0.260 A 
ENDROOT
BRANCH   5   6
ATOM      6  C   LIG    1        1.307   4.125   2.384  0.00  0.00    +0.040 A 
ATOM      7  C   LIG    1        2.313   5.019   2.601  0.00  0.00    +0.020 A 
ATOM      8  C   LIG    1        3.333   4.324   3.279  0.00  0.00    -0.050 A 
ATOM      9  C   LIG    1        2.911   3.053   3.434  0.00  0.00    +0.190 A 
ATOM     10  O   LIG    1        1.687   2.936   2.893  0.00  0.00    -0.170 OA
ENDBRANCH   5   6
BRANCH   1  11
ATOM     11  C   LIG    1       -0.735   2.019   1.269  0.00  0.00    +0.310 C 
BRANCH  11  13
ATOM     12  C   LIG    1        0.002  -0.004   0.002  0.00  0.00    +0.050 C 
ATOM     13  C   LIG    1       -0.019   1.526   0.010  0.00  0.00    -0.030 C 
ATOM     14  C   LIG    1        1.417   2.055  -0.000  0.00  0.00    +0.020 C 
ENDBRANCH  11  13
ENDBRANCH   1  11
BRANCH   2  15
ATOM     15  S   LIG    1       -3.336   3.549  -0.083  0.00  0.00    +0.090 S 
BRANCH  15  16
ATOM     16  C   LIG    1       -4.184   5.089  -0.512  0.00  0.00    +0.110 C 
BRANCH  16  17
ATOM     17  C   LIG    1       -5.486   4.770  -1.201  0.00  0.00    +0.540 C 
ATOM     18  N   LIG    1       -6.293   5.768  -1.614  0.00  0.00    -0.720 N 
ATOM     19  H   LIG    1       -6.035   6.691  -1.468  0.00  0.00    +0.410 HD
ATOM     20  O   LIG    1       -5.808   3.615  -1.384  0.00  0.00    -0.520 OA
BRANCH  18  21
ATOM     21  C   LIG    1       -7.558   5.457  -2.284  0.00  0.00    +0.350 C 
ATOM     22  C   LIG    1       -7.305   5.241  -3.777  0.00  0.00    +0.040 C 
BRANCH  21  23
ATOM     23  C   LIG    1       -8.519   6.603  -2.098  0.00  0.00    -0.030 A 
ATOM     24  C   LIG    1       -9.838   6.493  -1.859  0.00  0.00    -0.040 A 
ATOM     25  C   LIG    1      -10.346   7.808  -1.752  0.00  0.00    -0.060 A 
ATOM     26  C   LIG    1       -9.309   8.643  -1.940  0.00  0.00    +0.180 A 
ATOM     27  O   LIG    1       -8.204   7.908  -2.149  0.00  0.00    -0.170 OA
ENDBRANCH  21  23
ENDBRANCH  18  21
ENDBRANCH  16  17
ENDBRANCH  15  16
ENDBRANCH   2  15
TORSDOF 8
