REMARK  Name = ZINCpe000000SW1W.0
REMARK                            x       y       z     vdW  Elec       q    Type
REMARK                         _______ _______ _______ _____ _____    ______ ____
ROOT
ATOM      1  N   LIG    1       -0.241   1.255  -1.736  0.00  0.00    -0.370 N 
ATOM      2  N   LIG    1       -1.260   0.586  -2.123  0.00  0.00    -0.190 NA
ATOM      3  C   LIG    1       -2.161   1.033  -2.964  0.00  0.00    +0.060 A 
ATOM      4  C   LIG    1       -2.011   2.385  -3.525  0.00  0.00    -0.030 A 
ATOM      5  C   LIG    1       -2.918   2.931  -4.426  0.00  0.00    +0.080 A 
ATOM      6  C   LIG    1       -2.710   4.207  -4.907  0.00  0.00    +0.050 A 
ATOM      7  C   LIG    1       -1.607   4.947  -4.504  0.00  0.00    +0.030 A 
ATOM      8  C   LIG    1       -0.695   4.424  -3.612  0.00  0.00    +0.090 A 
ATOM      9  C   LIG    1       -0.887   3.140  -3.114  0.00  0.00    -0.140 A 
ATOM     10  C   LIG    1        0.034   2.506  -2.161  0.00  0.00    +0.520 A 
ATOM     11  O   LIG    1        1.022   3.096  -1.764  0.00  0.00    -0.490 OA
ENDROOT
BRANCH   3  12
ATOM     12  C   LIG    1       -3.309   0.188  -3.347  0.00  0.00    +0.600 C 
ATOM     13  N   LIG    1       -3.524  -0.984  -2.716  0.00  0.00    -0.590 N 
ATOM     14  C   LIG    1       -2.729  -1.367  -1.539  0.00  0.00    +0.270 C 
ATOM     15  C   LIG    1       -3.691  -1.786  -0.421  0.00  0.00    +0.220 C 
ATOM     16  O   LIG    1       -4.596  -2.772  -0.924  0.00  0.00    -0.380 OA
ATOM     17  C   LIG    1       -5.434  -2.309  -1.986  0.00  0.00    +0.230 C 
ATOM     18  C   LIG    1       -4.566  -1.914  -3.180  0.00  0.00    +0.210 C 
ATOM     19  O   LIG    1       -4.060   0.548  -4.233  0.00  0.00    -0.500 OA
BRANCH  18  20
ATOM     20  C   LIG    1       -5.431  -1.231  -4.241  0.00  0.00    +0.200 C 
BRANCH  20  21
ATOM     21  O   LIG    1       -6.126  -0.130  -3.653  0.00  0.00    -0.560 OA
ATOM     22  H   LIG    1       -6.695   0.350  -4.269  0.00  0.00    +0.380 HD
ENDBRANCH  20  21
ENDBRANCH  18  20
ENDBRANCH   3  12
BRANCH   1  23
ATOM     23  C   LIG    1        0.681   0.628  -0.786  0.00  0.00    +0.320 C 
BRANCH  23  25
ATOM     24  C   LIG    1        1.124   0.194   1.635  0.00  0.00    +0.040 C 
ATOM     25  C   LIG    1        0.237   0.950   0.643  0.00  0.00    -0.030 C 
ATOM     26  C   LIG    1        0.364   2.455   0.889  0.00  0.00    +0.030 C 
ENDBRANCH  23  25
ENDBRANCH   1  23
TORSDOF 5
