REMARK  Name = ZINCrH00000No4B3.0
REMARK                            x       y       z     vdW  Elec       q    Type
REMARK                         _______ _______ _______ _____ _____    ______ ____
ROOT
ATOM      1  N   LIG    1       -0.451  -2.283   1.223  0.00  0.00    -0.590 N 
ATOM      2  C   LIG    1       -1.148  -2.883   2.208  0.00  0.00    +0.560 C 
ATOM      3  O   LIG    1       -2.292  -3.243   2.011  0.00  0.00    -0.510 OA
ENDROOT
BRANCH   2   4
ATOM      4  C   LIG    1       -0.520  -3.104   3.530  0.00  0.00    -0.060 A 
ATOM      5  C   LIG    1        0.857  -2.934   3.685  0.00  0.00    +0.000 A 
ATOM      6  C   LIG    1        1.442  -3.133   4.915  0.00  0.00    +0.120 A 
ATOM      7  C   LIG    1        0.657  -3.518   6.009  0.00  0.00    +0.030 A 
ATOM      8  C   LIG    1       -0.723  -3.693   5.850  0.00  0.00    +0.150 A 
ATOM      9  C   LIG    1       -1.305  -3.487   4.620  0.00  0.00    +0.080 A 
BRANCH   7  10
ATOM     10  N   LIG    1        1.235  -3.720   7.226  0.00  0.00    -0.070 NA
ATOM     11  N   LIG    1        2.506  -3.559   7.371  0.00  0.00    -0.310 NA
BRANCH  11  12
ATOM     12  C   LIG    1        3.078  -3.760   8.575  0.00  0.00    +0.650 C 
ATOM     13  O   LIG    1        2.395  -4.093   9.524  0.00  0.00    -0.550 OA
ATOM     14  N   LIG    1        4.407  -3.591   8.727  0.00  0.00    -0.820 N 
ATOM     15  H   LIG    1        4.818  -3.736   9.593  0.00  0.00    +0.420 HD
ATOM     16  H   LIG    1        4.951  -3.325   7.970  0.00  0.00    +0.410 HD
ENDBRANCH  11  12
ENDBRANCH   7  10
ENDBRANCH   2   4
BRANCH   1  17
ATOM     17  C   LIG    1       -1.133  -1.854  -0.000  0.00  0.00    +0.330 C 
BRANCH  17  18
ATOM     18  C   LIG    1       -1.516  -0.378   0.120  0.00  0.00    +0.100 C 
ATOM     19  C   LIG    1       -2.441  -0.187   1.324  0.00  0.00    +0.010 C 
BRANCH  18  21
ATOM     20  C   LIG    1       -1.362  -0.238  -2.369  0.00  0.00    +0.030 C 
ATOM     21  C   LIG    1       -2.238   0.068  -1.153  0.00  0.00    +0.000 C 
ENDBRANCH  18  21
BRANCH  18  22
ATOM     22  O   LIG    1       -0.336   0.408   0.298  0.00  0.00    -0.380 OA
ATOM     23  C   LIG    1       -0.583   1.810   0.422  0.00  0.00    +0.200 C 
ENDBRANCH  18  22
ENDBRANCH  17  18
ENDBRANCH   1  17
BRANCH   1  24
ATOM     24  C   LIG    1        0.989  -2.059   1.376  0.00  0.00    +0.400 C 
BRANCH  24  25
ATOM     25  C   LIG    1        1.699  -3.387   1.439  0.00  0.00    -0.260 A 
ATOM     26  C   LIG    1        2.194  -4.100   0.403  0.00  0.00    +0.010 A 
ATOM     27  C   LIG    1        2.800  -5.286   0.757  0.00  0.00    +0.260 A 
ATOM     28  N   LIG    1        2.819  -5.583   2.023  0.00  0.00    -0.530 NA
ATOM     29  S   LIG    1        2.045  -4.317   2.845  0.00  0.00    +0.320 S 
ENDBRANCH  24  25
ENDBRANCH   1  24
TORSDOF 9
