REMARK  Name = ZINCvU00000008ir.0
REMARK                            x       y       z     vdW  Elec       q    Type
REMARK                         _______ _______ _______ _____ _____    ______ ____
ROOT
ATOM      1  C   LIG    1        0.200   0.989   2.730  0.00  0.00    +0.160 A 
ATOM      2  N   LIG    1        1.337   0.356   2.544  0.00  0.00    -0.290 NA
ATOM      3  N   LIG    1        1.796  -0.067   3.668  0.00  0.00    -0.250 NA
ATOM      4  C   LIG    1        0.976   0.262   4.639  0.00  0.00    +0.220 A 
ATOM      5  N   LIG    1       -0.071   0.948   4.068  0.00  0.00    -0.450 N 
ENDROOT
BRANCH   4   6
ATOM      6  C   LIG    1        1.146  -0.047   6.074  0.00  0.00    -0.010 A 
ATOM      7  C   LIG    1        0.979   0.955   7.031  0.00  0.00    +0.040 A 
ATOM      8  C   LIG    1        1.134   0.658   8.370  0.00  0.00    +0.030 A 
ATOM      9  C   LIG    1        1.465  -0.626   8.765  0.00  0.00    +0.050 A 
ATOM     10  C   LIG    1        1.637  -1.623   7.821  0.00  0.00    +0.030 A 
ATOM     11  C   LIG    1        1.480  -1.342   6.479  0.00  0.00    -0.000 A 
ATOM     12 CL   LIG    1        1.696  -2.595   5.296  0.00  0.00    -0.040 Cl
ENDBRANCH   4   6
BRANCH   5  13
ATOM     13  C   LIG    1       -1.235   1.516   4.753  0.00  0.00    +0.230 C 
ATOM     14  C   LIG    1       -2.533   0.912   4.178  0.00  0.00    +0.030 C 
ATOM     15  C   LIG    1       -3.535   2.094   4.181  0.00  0.00    +0.030 C 
ATOM     16  C   LIG    1       -2.646   3.297   3.782  0.00  0.00    +0.040 C 
ATOM     17  C   LIG    1       -1.306   3.032   4.501  0.00  0.00    +0.020 C 
ENDBRANCH   5  13
BRANCH   1  18
ATOM     18  S   LIG    1       -0.793   1.742   1.485  0.00  0.00    +0.050 S 
BRANCH  18  19
ATOM     19  C   LIG    1        0.210   1.381   0.022  0.00  0.00    +0.170 C 
BRANCH  19  25
ATOM     20  C   LIG    1       -5.111   0.937  -4.960  0.00  0.00    +0.120 C 
ATOM     21  C   LIG    1       -3.901   1.642  -4.401  0.00  0.00    +0.000 A 
ATOM     22  C   LIG    1       -3.272   1.152  -3.296  0.00  0.00    +0.030 A 
ATOM     23  C   LIG    1       -2.144   1.823  -2.789  0.00  0.00    +0.400 A 
ATOM     24  N   LIG    1       -1.527   1.346  -1.709  0.00  0.00    -0.540 NA
ATOM     25  C   LIG    1       -0.463   1.948  -1.201  0.00  0.00    +0.220 A 
ATOM     26  C   LIG    1        0.027   3.098  -1.788  0.00  0.00    -0.150 A 
ATOM     27  C   LIG    1       -0.612   3.601  -2.927  0.00  0.00    +0.510 A 
ATOM     28  O   LIG    1       -0.200   4.613  -3.473  0.00  0.00    -0.530 OA
ATOM     29  N   LIG    1       -1.694   2.954  -3.410  0.00  0.00    -0.430 N 
ATOM     30  C   LIG    1       -2.330   3.435  -4.514  0.00  0.00    +0.280 A 
ATOM     31  C   LIG    1       -3.416   2.805  -5.016  0.00  0.00    +0.000 A 
ENDBRANCH  19  25
ENDBRANCH  18  19
ENDBRANCH   1  18
TORSDOF 5
