REMARK  Name = ZINCpe000027pHir.0
REMARK                            x       y       z     vdW  Elec       q    Type
REMARK                         _______ _______ _______ _____ _____    ______ ____
ROOT
ATOM      1  C   LIG    1        0.002  -0.004   0.002  0.00  0.00    +0.250 C 
ATOM      2  C   LIG    1        0.742  -0.511   1.242  0.00  0.00    +0.050 C 
ENDROOT
BRANCH   1   4
ATOM      3  C   LIG    1       -1.643  -1.734  -0.485  0.00  0.00    +0.550 C 
ATOM      4  N   LIG    1       -1.372  -0.511   0.012  0.00  0.00    -0.710 N 
ATOM      5  H   LIG    1       -2.087   0.033   0.377  0.00  0.00    +0.410 HD
ATOM      6  O   LIG    1       -0.746  -2.417  -0.943  0.00  0.00    -0.550 OA
BRANCH   3   8
ATOM      7  C   LIG    1       -3.287  -3.465  -0.973  0.00  0.00    +0.140 C 
ATOM      8  C   LIG    1       -3.015  -2.240  -0.474  0.00  0.00    -0.100 C 
BRANCH   7  12
ATOM      9  C   LIG    1       -7.266  -4.934  -0.941  0.00  0.00    +0.140 A 
ATOM     10  C   LIG    1       -6.243  -5.716  -1.465  0.00  0.00    -0.020 A 
ATOM     11  C   LIG    1       -4.950  -5.244  -1.478  0.00  0.00    +0.090 A 
ATOM     12  C   LIG    1       -4.666  -3.974  -0.962  0.00  0.00    -0.120 A 
ATOM     13  C   LIG    1       -5.698  -3.193  -0.431  0.00  0.00    +0.070 A 
ATOM     14  C   LIG    1       -6.989  -3.672  -0.428  0.00  0.00    -0.080 A 
BRANCH   9  16
ATOM     15  C   LIG    1       -9.542  -4.549  -0.378  0.00  0.00    +0.240 C 
ATOM     16  O   LIG    1       -8.539  -5.404  -0.931  0.00  0.00    -0.310 OA
ENDBRANCH   9  16
ENDBRANCH   7  12
ENDBRANCH   3   8
ENDBRANCH   1   4
BRANCH   1  17
ATOM     17  C   LIG    1       -0.018   1.503   0.010  0.00  0.00    +0.520 C 
ATOM     18  N   LIG    1        1.139   2.192   0.003  0.00  0.00    -0.700 N 
ATOM     19  H   LIG    1        1.986   1.719  -0.008  0.00  0.00    +0.410 HD
ATOM     20  O   LIG    1       -1.077   2.095   0.018  0.00  0.00    -0.530 OA
BRANCH  18  21
ATOM     21  C   LIG    1        1.120   3.657   0.011  0.00  0.00    +0.250 C 
BRANCH  21  22
ATOM     22  C   LIG    1        2.406   4.174   0.602  0.00  0.00    +0.520 C 
ATOM     23  O   LIG    1        3.256   3.395   0.979  0.00  0.00    -0.540 OA
ATOM     24  N   LIG    1        2.612   5.501   0.711  0.00  0.00    -0.850 N 
ATOM     25  H   LIG    1        3.440   5.834   1.092  0.00  0.00    +0.410 HD
ATOM     26  H   LIG    1        1.933   6.124   0.409  0.00  0.00    +0.400 HD
ENDBRANCH  21  22
BRANCH  21  27
ATOM     27  C   LIG    1        0.973   4.173  -1.422  0.00  0.00    -0.020 C 
ATOM     28  C   LIG    1       -0.388   3.753  -1.979  0.00  0.00    +0.030 C 
ATOM     29  C   LIG    1        2.084   3.583  -2.292  0.00  0.00    +0.020 C 
ENDBRANCH  21  27
ENDBRANCH  18  21
ENDBRANCH   1  17
TORSDOF 8
