REMARK  Name = ZINCAx0000000957.0
REMARK                            x       y       z     vdW  Elec       q    Type
REMARK                         _______ _______ _______ _____ _____    ______ ____
ROOT
ATOM      1  N   LIG    1        2.341   4.111  -0.974  0.00  0.00    -0.530 N 
ATOM      2  H   LIG    1        1.500   3.661  -1.152  0.00  0.00    +0.420 HD
ATOM      3  C   LIG    1        2.354   5.430  -0.699  0.00  0.00    +0.520 C 
ATOM      4  O   LIG    1        3.410   6.011  -0.567  0.00  0.00    -0.500 OA
ENDROOT
BRANCH   3   5
ATOM      5  C   LIG    1        1.056   6.183  -0.557  0.00  0.00    +0.150 C 
ATOM      6  C   LIG    1        0.638   6.212   0.914  0.00  0.00    +0.130 C 
ATOM      7  C   LIG    1       -0.518   7.160   1.101  0.00  0.00    -0.070 A 
ATOM      8  C   LIG    1       -1.267   7.069   2.264  0.00  0.00    +0.000 A 
ATOM      9  C   LIG    1       -2.333   7.920   2.477  0.00  0.00    +0.000 A 
ATOM     10  C   LIG    1       -2.655   8.870   1.525  0.00  0.00    +0.000 A 
ATOM     11  C   LIG    1       -1.910   8.961   0.366  0.00  0.00    +0.010 A 
ATOM     12  C   LIG    1       -0.841   8.105   0.150  0.00  0.00    -0.080 A 
ATOM     13  C   LIG    1       -0.064   8.238  -1.134  0.00  0.00    +0.240 C 
ATOM     14  N   LIG    1        1.234   7.567  -1.023  0.00  0.00    -0.500 NA
BRANCH  14  15
ATOM     15  C   LIG    1        1.959   7.604  -2.300  0.00  0.00    +0.230 C 
BRANCH  15  16
ATOM     16  C   LIG    1        1.998   9.019  -2.816  0.00  0.00    -0.080 A 
ATOM     17  C   LIG    1        0.992   9.480  -3.645  0.00  0.00    +0.000 A 
ATOM     18  C   LIG    1        1.025  10.780  -4.115  0.00  0.00    +0.000 A 
ATOM     19  C   LIG    1        2.068  11.615  -3.763  0.00  0.00    +0.000 A 
ATOM     20  C   LIG    1        3.077  11.153  -2.939  0.00  0.00    +0.000 A 
ATOM     21  C   LIG    1        3.041   9.854  -2.466  0.00  0.00    +0.040 A 
ENDBRANCH  15  16
ENDBRANCH  14  15
ENDBRANCH   3   5
BRANCH   1  24
ATOM     22  O   LIG    1        4.566   1.444  -1.319  0.00  0.00    -0.570 OA
ATOM     23  C   LIG    1        3.541   2.096  -1.381  0.00  0.00    +0.720 C 
ATOM     24  N   LIG    1        3.541   3.389  -1.002  0.00  0.00    -0.520 N 
ATOM     25  H   LIG    1        4.372   3.820  -0.750  0.00  0.00    +0.450 HD
ATOM     26  N   LIG    1        2.405   1.525  -1.829  0.00  0.00    -0.540 N 
ATOM     27  H   LIG    1        1.572   2.022  -1.810  0.00  0.00    +0.420 HD
BRANCH  26  28
ATOM     28  N   LIG    1        2.427   0.213  -2.321  0.00  0.00    -0.510 N 
ATOM     29  H   LIG    1        3.243  -0.310  -2.272  0.00  0.00    +0.430 HD
ATOM     30  C   LIG    1        1.315  -0.322  -2.862  0.00  0.00    +0.600 C 
ATOM     31  O   LIG    1        0.269   0.298  -2.841  0.00  0.00    -0.540 OA
BRANCH  30  32
ATOM     32  C   LIG    1        1.365  -1.658  -3.472  0.00  0.00    -0.230 A 
ATOM     33  C   LIG    1        2.430  -2.510  -3.486  0.00  0.00    +0.300 A 
ATOM     34  N   LIG    1        2.098  -3.648  -4.141  0.00  0.00    -0.570 N 
ATOM     35  H   LIG    1        2.693  -4.401  -4.279  0.00  0.00    +0.420 HD
ATOM     36  C   LIG    1        0.793  -3.585  -4.585  0.00  0.00    +0.080 A 
ATOM     37  C   LIG    1       -0.016  -4.468  -5.293  0.00  0.00    +0.000 A 
ATOM     38  C   LIG    1       -1.317  -4.123  -5.587  0.00  0.00    +0.030 A 
ATOM     39  C   LIG    1       -1.829  -2.896  -5.194  0.00  0.00    -0.010 A 
ATOM     40  C   LIG    1       -1.043  -2.006  -4.495  0.00  0.00    +0.060 A 
ATOM     41  C   LIG    1        0.272  -2.344  -4.185  0.00  0.00    -0.060 A 
ENDBRANCH  30  32
ENDBRANCH  26  28
ENDBRANCH   1  24
TORSDOF 6
