REMARK  Name = ZINCqH0000032ICU.0
REMARK                            x       y       z     vdW  Elec       q    Type
REMARK                         _______ _______ _______ _____ _____    ______ ____
ROOT
ATOM      1  C   LIG    1        7.828   2.988  -4.830  0.00  0.00    -0.010 C 
ATOM      2  C   LIG    1        8.529   3.884  -3.806  0.00  0.00    +0.040 C 
ATOM      3  C   LIG    1        7.480   4.703  -3.047  0.00  0.00    +0.280 C 
ATOM      4  N   LIG    1        6.491   3.783  -2.467  0.00  0.00    -0.620 N 
ATOM      5  C   LIG    1        5.827   2.813  -3.349  0.00  0.00    +0.270 C 
ATOM      6  C   LIG    1        6.202   3.825  -1.152  0.00  0.00    +0.520 C 
ATOM      7  O   LIG    1        6.761   4.628  -0.434  0.00  0.00    -0.530 OA
ATOM      8  C   LIG    1        6.891   2.019  -4.106  0.00  0.00    +0.030 C 
ENDROOT
BRANCH   1  15
ATOM      9  C   LIG    1        8.605   2.164 -11.047  0.00  0.00    +0.020 C 
ATOM     10  C   LIG    1        8.386   1.609  -9.638  0.00  0.00    -0.020 C 
ATOM     11  C   LIG    1        9.737   1.451  -8.937  0.00  0.00    +0.020 C 
ATOM     12  C   LIG    1        9.517   0.863  -7.540  0.00  0.00    +0.270 C 
ATOM     13  N   LIG    1        8.557   1.707  -6.816  0.00  0.00    -0.610 N 
ATOM     14  C   LIG    1        7.257   1.993  -7.440  0.00  0.00    +0.260 C 
ATOM     15  C   LIG    1        8.860   2.206  -5.602  0.00  0.00    +0.520 C 
ATOM     16  O   LIG    1        9.962   2.026  -5.130  0.00  0.00    -0.540 OA
ATOM     17  C   LIG    1        7.505   2.573  -8.841  0.00  0.00    +0.020 C 
ENDBRANCH   1  15
BRANCH   6  18
ATOM     18  C   LIG    1        5.186   2.876  -0.573  0.00  0.00    +0.070 C 
BRANCH  18  19
ATOM     19  C   LIG    1        5.047   3.131   0.929  0.00  0.00    +0.110 C 
BRANCH  19  20
ATOM     20  C   LIG    1        4.030   2.182   1.508  0.00  0.00    -0.080 A 
ATOM     21  C   LIG    1        2.715   2.581   1.653  0.00  0.00    +0.030 A 
ATOM     22  C   LIG    1        1.782   1.710   2.184  0.00  0.00    +0.020 A 
ATOM     23  C   LIG    1        2.163   0.439   2.570  0.00  0.00    +0.020 A 
ATOM     24  C   LIG    1        3.479   0.038   2.426  0.00  0.00    +0.020 A 
ATOM     25  C   LIG    1        4.413   0.909   1.895  0.00  0.00    -0.030 A 
ATOM     26 CL   LIG    1        6.064   0.406   1.713  0.00  0.00    -0.070 Cl
ENDBRANCH  19  20
ENDBRANCH  18  19
ENDBRANCH   6  18
TORSDOF 4
