REMARK  Name = ZINCqH0000002iWQ.0
REMARK                            x       y       z     vdW  Elec       q    Type
REMARK                         _______ _______ _______ _____ _____    ______ ____
ROOT
ATOM      1  C   LIG    1       -2.319   2.335  -3.163  0.00  0.00    +0.200 A 
ATOM      2  N   LIG    1       -2.840   3.464  -3.574  0.00  0.00    -0.450 NA
ATOM      3  C   LIG    1       -4.031   3.566  -2.941  0.00  0.00    +0.210 A 
ATOM      4  N   LIG    1       -4.162   2.503  -2.190  0.00  0.00    -0.330 NA
ATOM      5  O   LIG    1       -3.191   1.786  -2.312  0.00  0.00    +0.100 OA
ENDROOT
BRANCH   1  12
ATOM      6  C   LIG    1       -0.547   2.007  -1.182  0.00  0.00    +0.510 C 
ATOM      7  N   LIG    1       -0.146   1.564  -2.390  0.00  0.00    -0.620 N 
ATOM      8  C   LIG    1        1.140   0.871  -2.544  0.00  0.00    +0.280 C 
ATOM      9  C   LIG    1        0.896  -0.473  -3.238  0.00  0.00    +0.010 C 
ATOM     10  C   LIG    1        0.149  -0.235  -4.553  0.00  0.00    +0.030 C 
ATOM     11  C   LIG    1       -1.207   0.412  -4.261  0.00  0.00    +0.040 C 
ATOM     12  C   LIG    1       -0.989   1.760  -3.577  0.00  0.00    +0.360 C 
ATOM     13  O   LIG    1       -1.583   2.630  -1.078  0.00  0.00    -0.520 OA
BRANCH   6  14
ATOM     14  C   LIG    1        0.291   1.730   0.039  0.00  0.00    +0.070 C 
BRANCH  14  16
ATOM     15  C   LIG    1        0.467   2.054   2.510  0.00  0.00    +0.020 C 
ATOM     16  C   LIG    1       -0.384   2.337   1.270  0.00  0.00    +0.030 C 
ENDBRANCH  14  16
ENDBRANCH   6  14
ENDBRANCH   1  12
BRANCH   3  17
ATOM     17  C   LIG    1       -5.007   4.676  -3.073  0.00  0.00    +0.170 A 
ATOM     18  N   LIG    1       -4.739   5.696  -3.877  0.00  0.00    -0.410 NA
ATOM     19  C   LIG    1       -5.578   6.700  -4.023  0.00  0.00    +0.230 A 
ATOM     20  C   LIG    1       -6.781   6.730  -3.340  0.00  0.00    +0.020 A 
ATOM     21  C   LIG    1       -7.105   5.687  -2.487  0.00  0.00    -0.020 A 
ATOM     22  C   LIG    1       -6.205   4.636  -2.354  0.00  0.00    +0.120 A 
BRANCH  22  23
ATOM     23  O   LIG    1       -6.483   3.589  -1.535  0.00  0.00    -0.280 OA
BRANCH  23  24
ATOM     24  C   LIG    1       -7.728   3.626  -0.835  0.00  0.00    +0.140 C 
ATOM     25  C   LIG    1       -7.575   4.465   0.435  0.00  0.00    +0.030 C 
ATOM     26  C   LIG    1       -8.144   2.202  -0.458  0.00  0.00    +0.070 C 
ENDBRANCH  23  24
ENDBRANCH  22  23
ENDBRANCH   3  17
TORSDOF 6
