REMARK  Name = ZINCrD0000072lep.0
REMARK                            x       y       z     vdW  Elec       q    Type
REMARK                         _______ _______ _______ _____ _____    ______ ____
ROOT
ATOM      1  C   LIG    1        1.203   1.746  -0.000  0.00  0.00    +0.170 A 
ATOM      2  N   LIG    1        2.006   0.719  -0.051  0.00  0.00    -0.230 NA
ATOM      3  N   LIG    1        1.327  -0.373  -0.036  0.00  0.00    -0.290 NA
ATOM      4  C   LIG    1        0.043  -0.101   0.026  0.00  0.00    +0.420 A 
ATOM      5  N   LIG    1       -1.071  -0.918   0.065  0.00  0.00    -0.510 N 
ATOM      6  C   LIG    1       -2.314  -0.397   0.129  0.00  0.00    +0.570 A 
ATOM      7  C   LIG    1       -2.470   1.069   0.157  0.00  0.00    -0.160 A 
ATOM      8  C   LIG    1       -3.728   1.663   0.222  0.00  0.00    +0.130 A 
ATOM      9  C   LIG    1       -3.833   3.038   0.246  0.00  0.00    +0.020 A 
ATOM     10  C   LIG    1       -2.694   3.827   0.207  0.00  0.00    +0.100 A 
ATOM     11  C   LIG    1       -1.441   3.251   0.142  0.00  0.00    +0.010 A 
ATOM     12  C   LIG    1       -1.317   1.870   0.117  0.00  0.00    +0.160 A 
ATOM     13  O   LIG    1       -3.289  -1.124   0.163  0.00  0.00    -0.490 OA
ATOM     14  C   LIG    1       -0.899  -2.373   0.037  0.00  0.00    +0.360 C 
ATOM     15  N   LIG    1       -0.071   1.259   0.051  0.00  0.00    -0.430 N 
ENDROOT
BRANCH   1  16
ATOM     16  C   LIG    1        1.607   3.198   0.003  0.00  0.00    +0.420 C 
BRANCH  16  17
ATOM     17  N   LIG    1        1.635   3.694   1.381  0.00  0.00    -0.750 N 
ATOM     18  H   LIG    1        1.412   3.100   2.115  0.00  0.00    +0.400 HD
BRANCH  17  22
ATOM     19  C   LIG    1        2.677   7.652   2.149  0.00  0.00    -0.130 A 
ATOM     20  C   LIG    1        2.651   7.185   0.847  0.00  0.00    +0.050 A 
ATOM     21  C   LIG    1        2.311   5.872   0.590  0.00  0.00    -0.080 A 
ATOM     22  C   LIG    1        1.984   5.022   1.639  0.00  0.00    +0.210 A 
ATOM     23  C   LIG    1        2.012   5.494   2.945  0.00  0.00    -0.060 A 
ATOM     24  C   LIG    1        2.358   6.807   3.196  0.00  0.00    -0.030 A 
BRANCH  19  26
ATOM     25  C   LIG    1        4.548   9.163   2.754  0.00  0.00    +0.020 C 
ATOM     26  C   LIG    1        3.055   9.084   2.426  0.00  0.00    +0.060 C 
ENDBRANCH  19  26
BRANCH  24  27
ATOM     27  C   LIG    1        2.388   7.320   4.613  0.00  0.00    +0.060 C 
ATOM     28  C   LIG    1        1.052   7.991   4.940  0.00  0.00    +0.020 C 
ENDBRANCH  24  27
ENDBRANCH  17  22
ENDBRANCH  16  17
ENDBRANCH   1  16
TORSDOF 5
