REMARK  Name = ZINCqH0000003Vo0.0
REMARK                            x       y       z     vdW  Elec       q    Type
REMARK                         _______ _______ _______ _____ _____    ______ ____
ROOT
ATOM      1  N   LIG    1       -0.593   1.367   1.044  0.00  0.00    -0.730 N 
ATOM      2  H   LIG    1       -1.450   1.819   1.103  0.00  0.00    +0.400 HD
ATOM      3  C   LIG    1        0.016   0.929   2.164  0.00  0.00    +0.710 C 
ATOM      4  N   LIG    1       -0.610   1.027   3.354  0.00  0.00    -0.630 N 
ATOM      5  C   LIG    1       -1.996   1.498   3.416  0.00  0.00    +0.280 C 
ATOM      6  O   LIG    1        1.129   0.445   2.101  0.00  0.00    -0.560 OA
ENDROOT
BRANCH   1  11
ATOM      7  C   LIG    1       -1.032   1.137  -1.370  0.00  0.00    +0.030 C 
ATOM      8  C   LIG    1       -1.054   2.587  -1.912  0.00  0.00    +0.030 C 
ATOM      9  C   LIG    1        0.442   2.988  -1.877  0.00  0.00    +0.020 C 
ATOM     10  C   LIG    1        0.977   2.340  -0.583  0.00  0.00    +0.020 C 
ATOM     11  C   LIG    1        0.039   1.163  -0.261  0.00  0.00    +0.290 C 
BRANCH   7  12
ATOM     12  S   LIG    1       -2.650   0.692  -0.680  0.00  0.00    -0.240 S 
BRANCH  12  14
ATOM     13  C   LIG    1       -5.126   0.199  -1.732  0.00  0.00    +0.050 C 
ATOM     14  C   LIG    1       -3.703   0.573  -2.152  0.00  0.00    +0.070 C 
ENDBRANCH  12  14
ENDBRANCH   7  12
ENDBRANCH   1  11
BRANCH   4  15
ATOM     15  C   LIG    1        0.095   0.662   4.585  0.00  0.00    +0.420 C 
BRANCH  15  16
ATOM     16  C   LIG    1        0.907   1.837   5.066  0.00  0.00    +0.190 A 
ATOM     17  N   LIG    1        2.096   2.165   4.638  0.00  0.00    -0.460 NA
ATOM     18  C   LIG    1        2.512   3.263   5.288  0.00  0.00    +0.140 A 
ATOM     19  C   LIG    1        1.544   3.628   6.150  0.00  0.00    +0.120 A 
ATOM     20  N   LIG    1        0.524   2.727   6.005  0.00  0.00    -0.450 N 
BRANCH  20  21
ATOM     21  C   LIG    1       -0.746   2.727   6.736  0.00  0.00    +0.340 C 
BRANCH  21  22
ATOM     22  C   LIG    1       -0.642   1.805   7.924  0.00  0.00    -0.120 A 
ATOM     23  C   LIG    1       -1.116   0.510   7.838  0.00  0.00    +0.020 A 
ATOM     24  C   LIG    1       -1.017  -0.337   8.926  0.00  0.00    +0.010 A 
ATOM     25  C   LIG    1       -0.450   0.115  10.104  0.00  0.00    +0.020 A 
ATOM     26  C   LIG    1        0.019   1.412  10.192  0.00  0.00    +0.010 A 
ATOM     27  C   LIG    1       -0.077   2.257   9.102  0.00  0.00    +0.020 A 
ENDBRANCH  21  22
ENDBRANCH  20  21
ENDBRANCH  15  16
ENDBRANCH   4  15
TORSDOF 7
