REMARK  Name = ZINCrD00000dWJRH.0
REMARK                            x       y       z     vdW  Elec       q    Type
REMARK                         _______ _______ _______ _____ _____    ______ ____
ROOT
ATOM      1  C   LIG    1       -2.002  -4.830  -1.424  0.00  0.00    +0.160 A 
ATOM      2  C   LIG    1       -2.899  -4.517  -2.436  0.00  0.00    +0.000 A 
ATOM      3  C   LIG    1       -3.598  -3.325  -2.398  0.00  0.00    +0.050 A 
ATOM      4  C   LIG    1       -3.405  -2.442  -1.354  0.00  0.00    +0.000 A 
ATOM      5  C   LIG    1       -2.509  -2.749  -0.338  0.00  0.00    +0.160 A 
ATOM      6  C   LIG    1       -1.802  -3.942  -0.376  0.00  0.00    -0.040 A 
ENDROOT
BRANCH   1   8
ATOM      7  C   LIG    1       -1.049  -6.636  -2.645  0.00  0.00    +0.570 C 
ATOM      8  N   LIG    1       -1.295  -6.037  -1.463  0.00  0.00    -0.650 N 
ATOM      9  H   LIG    1       -0.982  -6.443  -0.639  0.00  0.00    +0.420 HD
ATOM     10  O   LIG    1       -1.537  -6.192  -3.663  0.00  0.00    -0.510 OA
BRANCH   7  11
ATOM     11  C   LIG    1       -0.169  -7.858  -2.702  0.00  0.00    +0.010 C 
ATOM     12  C   LIG    1       -0.558  -8.964  -3.686  0.00  0.00    +0.040 C 
ATOM     13  C   LIG    1       -0.752  -9.174  -2.183  0.00  0.00    +0.060 C 
BRANCH  11  15
ATOM     14  C   LIG    1        2.002  -8.884  -2.389  0.00  0.00    +0.210 C 
ATOM     15  N   LIG    1        1.264  -7.618  -2.483  0.00  0.00    -0.500 NA
ATOM     16  C   LIG    1        1.821  -6.761  -3.538  0.00  0.00    +0.210 C 
ENDBRANCH  11  15
ENDBRANCH   7  11
ENDBRANCH   1   8
BRANCH   5  17
ATOM     17  N   LIG    1       -2.313  -1.853   0.719  0.00  0.00    -0.670 N 
ATOM     18  H   LIG    1       -1.421  -1.698   1.065  0.00  0.00    +0.410 HD
ATOM     19  C   LIG    1       -3.366  -1.205   1.256  0.00  0.00    +0.530 C 
ATOM     20  O   LIG    1       -4.479  -1.377   0.804  0.00  0.00    -0.510 OA
BRANCH  19  21
ATOM     21  C   LIG    1       -3.161  -0.268   2.418  0.00  0.00    +0.050 C 
ATOM     22  C   LIG    1       -4.496   0.402   2.808  0.00  0.00    +0.070 C 
ATOM     23  C   LIG    1       -4.039   1.809   3.257  0.00  0.00    +0.080 C 
ATOM     24  C   LIG    1       -2.752   2.065   2.501  0.00  0.00    -0.080 A 
ATOM     25  C   LIG    1       -2.079   3.248   2.251  0.00  0.00    +0.010 A 
ATOM     26  C   LIG    1       -0.904   3.240   1.525  0.00  0.00    +0.020 A 
ATOM     27  C   LIG    1       -0.397   2.046   1.048  0.00  0.00    +0.010 A 
ATOM     28  C   LIG    1       -1.067   0.863   1.297  0.00  0.00    +0.020 A 
ATOM     29  C   LIG    1       -2.248   0.871   2.020  0.00  0.00    -0.100 A 
ENDBRANCH  19  21
ENDBRANCH   5  17
TORSDOF 5
