REMARK  Name = ZINCrH000004mwIx.0
REMARK                            x       y       z     vdW  Elec       q    Type
REMARK                         _______ _______ _______ _____ _____    ______ ____
ROOT
ATOM      1  C   LIG    1        3.623   6.013  -0.216  0.00  0.00    +0.080 C 
ENDROOT
BRANCH   1   4
ATOM      2  N   LIG    1        2.356   3.900   0.000  0.00  0.00    -0.660 N 
ATOM      3  H   LIG    1        3.203   3.432   0.054  0.00  0.00    +0.420 HD
ATOM      4  C   LIG    1        2.333   5.244  -0.094  0.00  0.00    +0.520 C 
ATOM      5  O   LIG    1        1.274   5.835  -0.081  0.00  0.00    -0.520 OA
BRANCH   2  12
ATOM      6  C   LIG    1        1.083   1.924  -0.582  0.00  0.00    +0.100 A 
ATOM      7  C   LIG    1       -0.107   1.215  -0.560  0.00  0.00    -0.060 A 
ATOM      8  C   LIG    1       -1.222   1.756   0.053  0.00  0.00    +0.040 A 
ATOM      9  C   LIG    1       -1.151   2.998   0.655  0.00  0.00    -0.100 A 
ATOM     10  C   LIG    1        0.033   3.712   0.638  0.00  0.00    +0.070 A 
ATOM     11  C   LIG    1       -2.368   3.579   1.327  0.00  0.00    +0.100 C 
ATOM     12  C   LIG    1        1.154   3.178   0.020  0.00  0.00    +0.120 A 
BRANCH   6  14
ATOM     13  C   LIG    1        2.033   0.105  -1.785  0.00  0.00    +0.250 C 
ATOM     14  O   LIG    1        2.179   1.396  -1.189  0.00  0.00    -0.320 OA
ENDBRANCH   6  14
ENDBRANCH   2  12
ENDBRANCH   1   4
BRANCH   1  15
ATOM     15  C   LIG    1        3.318   7.510  -0.307  0.00  0.00    +0.070 C 
BRANCH  15  16
ATOM     16  C   LIG    1        4.609   8.278  -0.429  0.00  0.00    +0.400 C 
ATOM     17  O   LIG    1        5.668   7.687  -0.443  0.00  0.00    -0.450 OA
BRANCH  16  18
ATOM     18  C   LIG    1        4.584   9.743  -0.532  0.00  0.00    -0.170 A 
ATOM     19  C   LIG    1        3.363  10.427  -0.516  0.00  0.00    +0.090 A 
ATOM     20  C   LIG    1        3.340  11.801  -0.613  0.00  0.00    +0.010 A 
ATOM     21  C   LIG    1        4.530  12.508  -0.725  0.00  0.00    +0.100 A 
ATOM     22  O   LIG    1        4.512  13.867  -0.821  0.00  0.00    -0.320 OA
ATOM     23  C   LIG    1        5.041  14.580   0.298  0.00  0.00    +0.230 C 
ATOM     24  C   LIG    1        6.552  14.707   0.192  0.00  0.00    -0.010 C 
ATOM     25  C   LIG    1        7.253  13.360   0.269  0.00  0.00    +0.230 C 
ATOM     26  O   LIG    1        6.909  12.545  -0.853  0.00  0.00    -0.320 OA
ATOM     27  C   LIG    1        5.748  11.835  -0.741  0.00  0.00    +0.050 A 
ATOM     28  C   LIG    1        5.784  10.460  -0.640  0.00  0.00    +0.090 A 
ENDBRANCH  16  18
ENDBRANCH  15  16
ENDBRANCH   1  15
TORSDOF 6
