REMARK  Name = ZINCrH000004tUma.0
REMARK                            x       y       z     vdW  Elec       q    Type
REMARK                         _______ _______ _______ _____ _____    ______ ____
ROOT
ATOM      1  O   LIG    1        1.886   5.549   0.956  0.00  0.00    -0.490 OA
ATOM      2  C   LIG    1        2.794   6.353   0.972  0.00  0.00    +0.520 C 
ATOM      3  N   LIG    1        2.786   7.362   1.866  0.00  0.00    -0.560 N 
ATOM      4  C   LIG    1        3.811   8.414   1.814  0.00  0.00    +0.280 C 
ATOM      5  C   LIG    1        3.098   9.765   1.993  0.00  0.00    +0.260 C 
ATOM      6  C   LIG    1        2.459   9.804   3.381  0.00  0.00    +0.100 C 
ATOM      7  C   LIG    1        1.616   8.577   3.607  0.00  0.00    -0.120 A 
ATOM      8  C   LIG    1        0.634   8.609   4.583  0.00  0.00    +0.040 A 
ATOM      9  C   LIG    1       -0.152   7.498   4.818  0.00  0.00    -0.020 A 
ATOM     10  C   LIG    1        0.036   6.345   4.078  0.00  0.00    +0.030 A 
ATOM     11  C   LIG    1        1.011   6.305   3.102  0.00  0.00    +0.020 A 
ATOM     12  C   LIG    1        1.803   7.422   2.863  0.00  0.00    +0.150 A 
ENDROOT
BRANCH   5  13
ATOM     13  N   LIG    1        4.070  10.854   1.870  0.00  0.00    -0.370 N 
ATOM     14  C   LIG    1        4.857  11.331   2.857  0.00  0.00    +0.220 A 
ATOM     15  C   LIG    1        5.611  12.328   2.338  0.00  0.00    -0.120 A 
ATOM     16  C   LIG    1        5.266  12.472   0.990  0.00  0.00    +0.240 A 
ATOM     17  N   LIG    1        4.343  11.589   0.708  0.00  0.00    -0.290 NA
ENDBRANCH   5  13
BRANCH   2  18
ATOM     18  C   LIG    1        3.932   6.224  -0.008  0.00  0.00    +0.090 C 
BRANCH  18  19
ATOM     19  C   LIG    1        3.728   4.973  -0.864  0.00  0.00    +0.280 C 
ATOM     20  O   LIG    1        2.553   5.126  -1.670  0.00  0.00    -0.360 OA
ATOM     21  C   LIG    1        2.400   4.111  -2.666  0.00  0.00    +0.220 C 
ATOM     22  C   LIG    1        3.448   4.311  -3.766  0.00  0.00    +0.090 C 
ATOM     23  C   LIG    1        4.805   4.488  -3.098  0.00  0.00    -0.090 A 
ATOM     24  C   LIG    1        6.027   4.366  -3.746  0.00  0.00    +0.010 A 
ATOM     25  C   LIG    1        7.103   4.553  -2.985  0.00  0.00    -0.040 A 
ATOM     26  S   LIG    1        6.606   4.919  -1.339  0.00  0.00    +0.120 S 
ATOM     27  C   LIG    1        4.913   4.786  -1.787  0.00  0.00    -0.240 A 
ENDBRANCH  18  19
ENDBRANCH   2  18
TORSDOF 3
