REMARK  Name = ZINCqH0000038Ifz.0
REMARK                            x       y       z     vdW  Elec       q    Type
REMARK                         _______ _______ _______ _____ _____    ______ ____
ROOT
ATOM      1  N   LIG    1        7.626   0.941  -0.064  0.00  0.00    -0.660 N 
ATOM      2  H   LIG    1        8.143   0.199   0.287  0.00  0.00    +0.420 HD
ATOM      3  C   LIG    1        8.254   2.026  -0.558  0.00  0.00    +0.610 C 
ATOM      4  O   LIG    1        7.609   2.995  -0.908  0.00  0.00    -0.500 OA
ENDROOT
BRANCH   1   8
ATOM      5  C   LIG    1        3.461   0.773  -0.042  0.00  0.00    +0.100 A 
ATOM      6  C   LIG    1        4.185   0.173   0.980  0.00  0.00    +0.050 A 
ATOM      7  C   LIG    1        5.564   0.224   0.970  0.00  0.00    +0.010 A 
ATOM      8  C   LIG    1        6.228   0.885  -0.056  0.00  0.00    +0.160 A 
ATOM      9  C   LIG    1        5.503   1.490  -1.075  0.00  0.00    +0.050 A 
ATOM     10  C   LIG    1        4.123   1.434  -1.067  0.00  0.00    +0.050 A 
BRANCH   5  14
ATOM     11  C   LIG    1       -1.203  -0.905   0.198  0.00  0.00    +0.140 C 
ATOM     12  C   LIG    1        0.004  -0.011   0.070  0.00  0.00    +0.000 A 
ATOM     13  C   LIG    1        1.290  -0.407   0.127  0.00  0.00    -0.020 A 
ATOM     14  N   LIG    1        2.059   0.716  -0.035  0.00  0.00    -0.410 N 
ATOM     15  C   LIG    1        1.207   1.764  -0.185  0.00  0.00    +0.400 A 
ATOM     16  C   LIG    1        1.788  -1.815   0.329  0.00  0.00    +0.140 C 
ATOM     17  N   LIG    1       -0.017   1.316  -0.121  0.00  0.00    -0.480 NA
ENDBRANCH   5  14
ENDBRANCH   1   8
BRANCH   3  18
ATOM     18  C   LIG    1        9.727   2.038  -0.674  0.00  0.00    -0.010 A 
ATOM     19  N   LIG    1       10.545   1.064  -0.328  0.00  0.00    -0.230 NA
ATOM     20  N   LIG    1       11.764   1.395  -0.563  0.00  0.00    -0.360 N 
ATOM     21  H   LIG    1       12.536   0.835  -0.390  0.00  0.00    +0.450 HD
ATOM     22  C   LIG    1       11.812   2.656  -1.085  0.00  0.00    +0.090 A 
ATOM     23  C   LIG    1       10.517   3.097  -1.170  0.00  0.00    +0.030 A 
BRANCH  22  24
ATOM     24  C   LIG    1       13.021   3.398  -1.482  0.00  0.00    +0.040 A 
ATOM     25  C   LIG    1       14.302   2.945  -1.392  0.00  0.00    -0.030 A 
ATOM     26  C   LIG    1       15.131   3.975  -1.879  0.00  0.00    -0.050 A 
ATOM     27  C   LIG    1       14.326   4.994  -2.238  0.00  0.00    +0.190 A 
ATOM     28  O   LIG    1       13.052   4.640  -2.002  0.00  0.00    -0.160 OA
ENDBRANCH  22  24
ENDBRANCH   3  18
TORSDOF 4
