REMARK  Name = ZINCqH0000038Ifz.1
REMARK                            x       y       z     vdW  Elec       q    Type
REMARK                         _______ _______ _______ _____ _____    ______ ____
ROOT
ATOM      1  N   LIG    1        7.626   0.942  -0.063  0.00  0.00    -0.670 N 
ATOM      2  H   LIG    1        8.100   1.044  -0.903  0.00  0.00    +0.410 HD
ATOM      3  C   LIG    1        8.314   0.862   1.093  0.00  0.00    +0.600 C 
ATOM      4  O   LIG    1        7.726   0.651   2.137  0.00  0.00    -0.490 OA
ENDROOT
BRANCH   1   8
ATOM      5  C   LIG    1        3.462   0.756  -0.028  0.00  0.00    +0.110 A 
ATOM      6  C   LIG    1        4.197   0.010   0.882  0.00  0.00    +0.050 A 
ATOM      7  C   LIG    1        5.576   0.068   0.868  0.00  0.00    +0.050 A 
ATOM      8  C   LIG    1        6.228   0.880  -0.051  0.00  0.00    +0.150 A 
ATOM      9  C   LIG    1        5.491   1.631  -0.959  0.00  0.00    +0.020 A 
ATOM     10  C   LIG    1        4.112   1.569  -0.947  0.00  0.00    +0.050 A 
BRANCH   5  14
ATOM     11  C   LIG    1       -1.196  -0.956  -0.003  0.00  0.00    +0.140 C 
ATOM     12  C   LIG    1        0.008  -0.048  -0.006  0.00  0.00    +0.000 A 
ATOM     13  C   LIG    1        1.295  -0.444  -0.022  0.00  0.00    -0.020 A 
ATOM     14  N   LIG    1        2.060   0.694  -0.017  0.00  0.00    -0.420 N 
ATOM     15  C   LIG    1        1.205   1.749   0.002  0.00  0.00    +0.400 A 
ATOM     16  C   LIG    1        1.798  -1.864  -0.041  0.00  0.00    +0.140 C 
ATOM     17  N   LIG    1       -0.018   1.293   0.009  0.00  0.00    -0.480 NA
ENDBRANCH   5  14
ENDBRANCH   1   8
BRANCH   3  18
ATOM     18  C   LIG    1        9.776   1.028   1.093  0.00  0.00    -0.040 A 
ATOM     19  C   LIG    1       10.614   0.979   2.190  0.00  0.00    +0.060 A 
ATOM     20  C   LIG    1       11.909   1.192   1.678  0.00  0.00    +0.100 A 
ATOM     21  N   LIG    1       11.798   1.359   0.375  0.00  0.00    -0.230 NA
ATOM     22  N   LIG    1       10.571   1.269   0.007  0.00  0.00    -0.370 N 
ATOM     23  H   LIG    1       10.255   1.359  -0.906  0.00  0.00    +0.450 HD
BRANCH  20  24
ATOM     24  C   LIG    1       13.164   1.228   2.460  0.00  0.00    +0.050 A 
ATOM     25  C   LIG    1       14.410   1.434   1.960  0.00  0.00    -0.010 A 
ATOM     26  C   LIG    1       15.299   1.390   3.053  0.00  0.00    -0.060 A 
ATOM     27  C   LIG    1       14.560   1.154   4.153  0.00  0.00    +0.190 A 
ATOM     28  O   LIG    1       13.270   1.057   3.792  0.00  0.00    -0.170 OA
ENDBRANCH  20  24
ENDBRANCH   3  18
TORSDOF 4
