REMARK  Name = ZINCqH0000007Qts.1
REMARK                            x       y       z     vdW  Elec       q    Type
REMARK                         _______ _______ _______ _____ _____    ______ ____
ROOT
ATOM      1  C   LIG    1        3.744  -0.966   0.178  0.00  0.00    +0.020 C 
ATOM      2  C   LIG    1        4.361  -1.091  -1.216  0.00  0.00    +0.090 C 
ENDROOT
BRANCH   1   5
ATOM      3  N   LIG    1        2.403   1.104  -0.015  0.00  0.00    -0.650 N 
ATOM      4  H   LIG    1        3.233   1.599  -0.101  0.00  0.00    +0.420 HD
ATOM      5  C   LIG    1        2.426  -0.240   0.080  0.00  0.00    +0.540 C 
ATOM      6  O   LIG    1        1.387  -0.866   0.087  0.00  0.00    -0.500 OA
BRANCH   3  12
ATOM      7  C   LIG    1        1.068   3.043  -0.579  0.00  0.00    +0.100 A 
ATOM      8  C   LIG    1       -0.143   3.714  -0.550  0.00  0.00    -0.060 A 
ATOM      9  C   LIG    1       -1.239   3.136   0.065  0.00  0.00    +0.040 A 
ATOM     10  C   LIG    1       -1.131   1.886   0.646  0.00  0.00    +0.000 A 
ATOM     11  C   LIG    1        0.076   1.213   0.626  0.00  0.00    +0.060 A 
ATOM     12  C   LIG    1        1.179   1.786   0.012  0.00  0.00    +0.120 A 
BRANCH   7  14
ATOM     13  C   LIG    1        1.959   4.901  -1.767  0.00  0.00    +0.250 C 
ATOM     14  O   LIG    1        2.147   3.611  -1.183  0.00  0.00    -0.320 OA
ENDBRANCH   7  14
ENDBRANCH   3  12
ENDBRANCH   1   5
BRANCH   1  15
ATOM     15  S   LIG    1        3.474  -2.617   0.869  0.00  0.00    +0.090 S 
BRANCH  15  16
ATOM     16  C   LIG    1        5.142  -3.166   1.010  0.00  0.00    +0.250 A 
ATOM     17  N   LIG    1        6.212  -2.479   0.675  0.00  0.00    -0.530 NA
ATOM     18  C   LIG    1        7.311  -3.209   0.919  0.00  0.00    +0.270 A 
ATOM     19  N   LIG    1        6.948  -4.371   1.414  0.00  0.00    -0.280 NA
ATOM     20  N   LIG    1        5.546  -4.364   1.488  0.00  0.00    -0.460 N 
ATOM     21  H   LIG    1        4.978  -5.080   1.815  0.00  0.00    +0.450 HD
BRANCH  18  22
ATOM     22  C   LIG    1        8.707  -2.775   0.671  0.00  0.00    -0.050 A 
ATOM     23  C   LIG    1        8.964  -1.516   0.134  0.00  0.00    +0.090 A 
ATOM     24  C   LIG    1       10.265  -1.115  -0.089  0.00  0.00    +0.000 A 
ATOM     25  C   LIG    1       11.315  -1.965   0.207  0.00  0.00    +0.070 A 
ATOM     26  C   LIG    1       11.069  -3.220   0.734  0.00  0.00    -0.020 A 
ATOM     27  C   LIG    1        9.770  -3.630   0.968  0.00  0.00    +0.130 A 
ATOM     28  F   LIG    1        9.530  -4.856   1.483  0.00  0.00    -0.120 F 
ENDBRANCH  18  22
ENDBRANCH  15  16
ENDBRANCH   1  15
TORSDOF 6
