REMARK  Name = ZINCqH0000007Qts.0
REMARK                            x       y       z     vdW  Elec       q    Type
REMARK                         _______ _______ _______ _____ _____    ______ ____
ROOT
ATOM      1  C   LIG    1        3.744  -0.966   0.178  0.00  0.00    -0.010 C 
ATOM      2  C   LIG    1        4.361  -1.091  -1.216  0.00  0.00    +0.080 C 
ENDROOT
BRANCH   1   5
ATOM      3  N   LIG    1        2.403   1.104  -0.015  0.00  0.00    -0.650 N 
ATOM      4  H   LIG    1        3.233   1.599  -0.101  0.00  0.00    +0.420 HD
ATOM      5  C   LIG    1        2.426  -0.240   0.080  0.00  0.00    +0.540 C 
ATOM      6  O   LIG    1        1.387  -0.866   0.087  0.00  0.00    -0.500 OA
BRANCH   3  12
ATOM      7  C   LIG    1        1.068   3.043  -0.579  0.00  0.00    +0.100 A 
ATOM      8  C   LIG    1       -0.143   3.714  -0.550  0.00  0.00    -0.060 A 
ATOM      9  C   LIG    1       -1.239   3.136   0.065  0.00  0.00    +0.030 A 
ATOM     10  C   LIG    1       -1.131   1.886   0.646  0.00  0.00    +0.000 A 
ATOM     11  C   LIG    1        0.076   1.213   0.626  0.00  0.00    +0.060 A 
ATOM     12  C   LIG    1        1.179   1.786   0.012  0.00  0.00    +0.120 A 
BRANCH   7  14
ATOM     13  C   LIG    1        1.959   4.901  -1.767  0.00  0.00    +0.250 C 
ATOM     14  O   LIG    1        2.147   3.611  -1.183  0.00  0.00    -0.320 OA
ENDBRANCH   7  14
ENDBRANCH   3  12
ENDBRANCH   1   5
BRANCH   1  15
ATOM     15  S   LIG    1        3.473  -2.620   0.870  0.00  0.00    +0.110 S 
BRANCH  15  16
ATOM     16  C   LIG    1        5.110  -3.249   1.046  0.00  0.00    +0.200 A 
ATOM     17  N   LIG    1        6.211  -2.611   0.722  0.00  0.00    -0.310 NA
ATOM     18  N   LIG    1        7.284  -3.464   1.025  0.00  0.00    -0.470 N 
ATOM     19  H   LIG    1        8.227  -3.278   0.901  0.00  0.00    +0.440 HD
ATOM     20  C   LIG    1        6.740  -4.600   1.518  0.00  0.00    +0.340 A 
ATOM     21  N   LIG    1        5.430  -4.453   1.524  0.00  0.00    -0.490 NA
BRANCH  20  22
ATOM     22  C   LIG    1        7.484  -5.795   1.972  0.00  0.00    -0.080 A 
ATOM     23  C   LIG    1        8.877  -5.820   1.905  0.00  0.00    +0.060 A 
ATOM     24  C   LIG    1        9.566  -6.936   2.334  0.00  0.00    +0.010 A 
ATOM     25  C   LIG    1        8.878  -8.034   2.819  0.00  0.00    +0.080 A 
ATOM     26  C   LIG    1        7.497  -8.020   2.884  0.00  0.00    -0.010 A 
ATOM     27  C   LIG    1        6.794  -6.907   2.463  0.00  0.00    +0.160 A 
ATOM     28  F   LIG    1        5.445  -6.893   2.526  0.00  0.00    -0.110 F 
ENDBRANCH  20  22
ENDBRANCH  15  16
ENDBRANCH   1  15
TORSDOF 6
