REMARK  Name = ZINCqH00000050oE.0
REMARK                            x       y       z     vdW  Elec       q    Type
REMARK                         _______ _______ _______ _____ _____    ______ ____
ROOT
ATOM      1  C   LIG    1       -3.582   4.109  -2.984  0.00  0.00    +0.520 C 
ATOM      2  N   LIG    1       -4.855   3.793  -3.292  0.00  0.00    -0.620 N 
ATOM      3  H   LIG    1       -5.377   3.239  -2.690  0.00  0.00    +0.420 HD
ATOM      4  O   LIG    1       -2.930   4.801  -3.737  0.00  0.00    -0.490 OA
ENDROOT
BRANCH   1  11
ATOM      5  C   LIG    1        0.984  -0.856   0.205  0.00  0.00    +0.300 C 
ATOM      6  N   LIG    1       -0.147   0.068   0.314  0.00  0.00    -0.640 N 
ATOM      7  C   LIG    1        0.019   1.374   0.022  0.00  0.00    +0.710 C 
ATOM      8  N   LIG    1       -1.056   2.155  -0.206  0.00  0.00    -0.630 N 
ATOM      9  C   LIG    1       -2.387   1.562  -0.391  0.00  0.00    +0.270 C 
ATOM     10  C   LIG    1       -2.981   2.073  -1.702  0.00  0.00    +0.030 C 
ATOM     11  C   LIG    1       -2.968   3.603  -1.704  0.00  0.00    +0.010 C 
ATOM     12  C   LIG    1       -1.526   4.103  -1.598  0.00  0.00    +0.050 C 
ATOM     13  C   LIG    1       -0.916   3.616  -0.280  0.00  0.00    +0.300 C 
ATOM     14  O   LIG    1        1.138   1.845  -0.040  0.00  0.00    -0.580 OA
ATOM     15  C   LIG    1       -1.459  -0.426   0.739  0.00  0.00    +0.280 C 
ENDBRANCH   1  11
BRANCH   2  16
ATOM     16  C   LIG    1       -5.421   4.259  -4.472  0.00  0.00    +0.270 A 
ATOM     17  N   LIG    1       -6.632   4.019  -4.869  0.00  0.00    -0.500 NA
ATOM     18  C   LIG    1       -7.003   4.548  -6.026  0.00  0.00    +0.130 A 
ATOM     19  C   LIG    1       -6.063   5.279  -6.653  0.00  0.00    -0.110 A 
ATOM     20  S   LIG    1       -4.608   5.276  -5.659  0.00  0.00    +0.210 S 
BRANCH  18  21
ATOM     21  C   LIG    1       -8.359   4.349  -6.591  0.00  0.00    -0.010 A 
ATOM     22  C   LIG    1       -9.298   3.582  -5.902  0.00  0.00    +0.060 A 
ATOM     23  C   LIG    1      -10.560   3.400  -6.431  0.00  0.00    +0.030 A 
ATOM     24  C   LIG    1      -10.894   3.977  -7.643  0.00  0.00    +0.040 A 
ATOM     25  C   LIG    1       -9.966   4.739  -8.332  0.00  0.00    -0.030 A 
ATOM     26 CL   LIG    1      -10.394   5.460  -9.852  0.00  0.00    -0.070 Cl
ATOM     27  C   LIG    1       -8.703   4.932  -7.809  0.00  0.00    +0.040 A 
ENDBRANCH  18  21
ENDBRANCH   2  16
TORSDOF 3
