REMARK  Name = ZINCqH0000051fU8.0
REMARK                            x       y       z     vdW  Elec       q    Type
REMARK                         _______ _______ _______ _____ _____    ______ ____
ROOT
ATOM      1  O   LIG    1       -0.013   1.209  -0.083  0.00  0.00    -0.560 OA
ATOM      2  C   LIG    1        0.002  -0.004   0.002  0.00  0.00    +0.720 C 
ATOM      3  N   LIG    1        1.177  -0.659   0.089  0.00  0.00    -0.620 N 
ATOM      4  C   LIG    1        2.446   0.078   0.186  0.00  0.00    +0.320 C 
ATOM      5  C   LIG    1        3.233  -0.474   1.386  0.00  0.00    +0.180 C 
ATOM      6  N   LIG    1        3.370  -1.930   1.247  0.00  0.00    -0.530 NA
ATOM      7  C   LIG    1        2.060  -2.594   1.280  0.00  0.00    +0.170 C 
ATOM      8  C   LIG    1        1.224  -2.129   0.083  0.00  0.00    +0.280 C 
ATOM      9  N   LIG    1       -1.156  -0.694   0.009  0.00  0.00    -0.640 N 
ATOM     10  H   LIG    1       -1.143  -1.664   0.003  0.00  0.00    +0.410 HD
ENDROOT
BRANCH   9  11
ATOM     11  C   LIG    1       -2.373  -0.013   0.033  0.00  0.00    +0.260 A 
ATOM     12  N   LIG    1       -3.568  -0.542   0.042  0.00  0.00    -0.390 NA
ATOM     13  O   LIG    1       -4.428   0.307   0.063  0.00  0.00    +0.100 OA
ATOM     14  C   LIG    1       -3.907   1.542   0.069  0.00  0.00    +0.170 A 
ATOM     15  C   LIG    1       -2.562   1.395   0.056  0.00  0.00    -0.040 A 
ENDBRANCH   9  11
BRANCH   6  16
ATOM     16  C   LIG    1        4.263  -2.476   2.278  0.00  0.00    +0.280 C 
BRANCH  16  17
ATOM     17  C   LIG    1        5.660  -1.955   2.059  0.00  0.00    -0.180 A 
ATOM     18  C   LIG    1        6.154  -0.833   2.590  0.00  0.00    +0.010 A 
ATOM     19  C   LIG    1        7.461  -0.551   2.251  0.00  0.00    +0.010 A 
ATOM     20  C   LIG    1        8.038  -1.455   1.435  0.00  0.00    -0.140 A 
ATOM     21  S   LIG    1        6.888  -2.736   1.072  0.00  0.00    +0.150 S 
BRANCH  20  22
ATOM     22  C   LIG    1        9.425  -1.385   0.928  0.00  0.00    -0.020 A 
ATOM     23  C   LIG    1       10.249  -0.317   1.286  0.00  0.00    +0.030 A 
ATOM     24  C   LIG    1       11.544  -0.260   0.814  0.00  0.00    +0.020 A 
ATOM     25  C   LIG    1       12.023  -1.253  -0.022  0.00  0.00    +0.010 A 
ATOM     26  C   LIG    1       11.210  -2.312  -0.385  0.00  0.00    +0.020 A 
ATOM     27  C   LIG    1        9.915  -2.384   0.085  0.00  0.00    +0.010 A 
ENDBRANCH  20  22
ENDBRANCH  16  17
ENDBRANCH   6  16
TORSDOF 4
