REMARK  Name = ZINCb70000006kED.0
REMARK                            x       y       z     vdW  Elec       q    Type
REMARK                         _______ _______ _______ _____ _____    ______ ____
ROOT
ATOM      1  C   LIG    1       -2.706   0.481   2.208  0.00  0.00    +0.560 C 
ATOM      2  N   LIG    1       -2.141   1.168   1.196  0.00  0.00    -0.610 N 
ATOM      3  C   LIG    1       -0.730   1.575   1.264  0.00  0.00    +0.290 C 
ATOM      4  C   LIG    1       -0.012   1.076   0.006  0.00  0.00    +0.050 C 
ATOM      5  C   LIG    1       -0.753   1.581  -1.234  0.00  0.00    +0.040 C 
ATOM      6  C   LIG    1       -2.179   1.026  -1.240  0.00  0.00    +0.160 C 
ATOM      7  C   LIG    1       -2.922   1.524   0.004  0.00  0.00    +0.300 C 
ATOM      8  O   LIG    1       -3.896   0.231   2.182  0.00  0.00    -0.530 OA
ENDROOT
BRANCH   6   9
ATOM      9  N   LIG    1       -2.879   1.486  -2.447  0.00  0.00    -0.630 N 
ATOM     10  H   LIG    1       -2.911   2.494  -2.453  0.00  0.00    +0.430 HD
ATOM     11  H   LIG    1       -3.820   1.119  -2.450  0.00  0.00    +0.440 HD
ATOM     12  H   LIG    1       -2.388   1.159  -3.265  0.00  0.00    +0.440 HD
ENDBRANCH   6   9
BRANCH   1  14
ATOM     13  C   LIG    1       -2.420  -0.732   4.290  0.00  0.00    +0.190 C 
ATOM     14  C   LIG    1       -1.885   0.034   3.343  0.00  0.00    -0.110 C 
ENDBRANCH   1  14
TORSDOF 2
