REMARK  Name = ZINCqH0000008q7O.0
REMARK                            x       y       z     vdW  Elec       q    Type
REMARK                         _______ _______ _______ _____ _____    ______ ____
ROOT
ATOM      1  N   LIG    1        2.796   4.955  -0.468  0.00  0.00    -0.710 N 
ATOM      2  H   LIG    1        1.880   5.136  -0.730  0.00  0.00    +0.410 HD
ATOM      3  C   LIG    1        3.279   3.698  -0.527  0.00  0.00    +0.570 C 
ATOM      4  O   LIG    1        4.427   3.472  -0.198  0.00  0.00    -0.540 OA
ENDROOT
BRANCH   3   5
ATOM      5  C   LIG    1        2.411   2.595  -0.991  0.00  0.00    -0.140 A 
ATOM      6  C   LIG    1        2.908   1.292  -1.054  0.00  0.00    +0.090 A 
ATOM      7  C   LIG    1        2.093   0.267  -1.489  0.00  0.00    +0.010 A 
ATOM      8  C   LIG    1        0.788   0.529  -1.868  0.00  0.00    -0.040 A 
ATOM      9  C   LIG    1        0.288   1.817  -1.803  0.00  0.00    +0.000 A 
ATOM     10  C   LIG    1        1.093   2.852  -1.370  0.00  0.00    +0.050 A 
BRANCH   8  11
ATOM     11  C   LIG    1       -0.093  -0.595  -2.348  0.00  0.00    -0.040 C 
ATOM     12  C   LIG    1        0.531  -1.239  -3.587  0.00  0.00    +0.040 C 
ATOM     13  C   LIG    1       -1.476  -0.042  -2.703  0.00  0.00    +0.030 C 
ATOM     14  C   LIG    1       -0.232  -1.643  -1.243  0.00  0.00    +0.040 C 
ENDBRANCH   8  11
ENDBRANCH   3   5
BRANCH   1  16
ATOM     15  C   LIG    1        3.617   6.119   1.521  0.00  0.00    +0.060 C 
ATOM     16  C   LIG    1        3.656   6.049  -0.007  0.00  0.00    +0.240 C 
BRANCH  16  17
ATOM     17  C   LIG    1        3.163   7.351  -0.583  0.00  0.00    +0.520 C 
ATOM     18  N   LIG    1        3.973   8.428  -0.604  0.00  0.00    -0.610 N 
ATOM     19  C   LIG    1        5.373   8.328  -0.163  0.00  0.00    +0.300 C 
ATOM     20  C   LIG    1        6.280   8.597  -1.374  0.00  0.00    +0.110 C 
ATOM     21  C   LIG    1        5.767   9.812  -2.117  0.00  0.00    -0.180 A 
ATOM     22  C   LIG    1        4.529  10.327  -1.996  0.00  0.00    -0.120 A 
ATOM     23  C   LIG    1        4.304  11.442  -2.797  0.00  0.00    +0.020 A 
ATOM     24  C   LIG    1        5.331  11.828  -3.547  0.00  0.00    -0.040 A 
ATOM     25  S   LIG    1        6.697  10.758  -3.272  0.00  0.00    +0.110 S 
ATOM     26  C   LIG    1        3.480   9.735  -1.062  0.00  0.00    +0.380 C 
ATOM     27  O   LIG    1        2.037   7.431  -1.026  0.00  0.00    -0.530 OA
ENDBRANCH  16  17
ENDBRANCH   1  16
TORSDOF 4
