REMARK  Name = ZINCpk00000xI0Fb.0
REMARK                            x       y       z     vdW  Elec       q    Type
REMARK                         _______ _______ _______ _____ _____    ______ ____
ROOT
ATOM      1  C   LIG    1       -4.000   4.736   5.093  0.00  0.00    +0.270 A 
ATOM      2  C   LIG    1       -2.838   4.265   5.689  0.00  0.00    +0.050 A 
ATOM      3  C   LIG    1       -1.759   3.906   4.905  0.00  0.00    +0.210 A 
ATOM      4  C   LIG    1       -1.835   4.015   3.529  0.00  0.00    -0.680 A 
ATOM      5  C   LIG    1       -2.989   4.489   2.933  0.00  0.00    +0.230 A 
ATOM      6  C   LIG    1       -4.074   4.844   3.710  0.00  0.00    -0.050 A 
ENDROOT
BRANCH   1  13
ATOM      7  C   LIG    1       -6.066   2.766   6.215  0.00  0.00    +0.150 C 
ATOM      8  C   LIG    1       -6.026   4.262   6.396  0.00  0.00    +0.100 A 
ATOM      9  C   LIG    1       -6.910   5.005   7.101  0.00  0.00    -0.090 A 
ATOM     10  C   LIG    1       -6.515   6.344   7.011  0.00  0.00    +0.100 A 
ATOM     11  N   LIG    1       -5.429   6.403   6.283  0.00  0.00    -0.270 NA
ATOM     12  C   LIG    1       -7.219   7.517   7.644  0.00  0.00    +0.150 C 
ATOM     13  N   LIG    1       -5.097   5.102   5.885  0.00  0.00    -0.360 N 
ENDBRANCH   1  13
BRANCH   4  14
ATOM     14  S   LIG    1       -0.456   3.555   2.533  0.00  0.00    +2.690 S 
ATOM     15  O   LIG    1       -0.593   4.261   1.307  0.00  0.00    -0.930 OA
ATOM     16  O   LIG    1        0.692   3.658   3.365  0.00  0.00    -0.930 OA
BRANCH  14  17
ATOM     17  N   LIG    1       -0.627   1.949   2.170  0.00  0.00    -1.000 NA
ATOM     18  C   LIG    1       -0.055   0.910   3.042  0.00  0.00    +0.270 C 
ATOM     19  C   LIG    1        0.761  -0.054   2.174  0.00  0.00    +0.220 C 
ATOM     20  O   LIG    1       -0.048  -0.511   1.087  0.00  0.00    -0.370 OA
ATOM     21  C   LIG    1       -0.473   0.524   0.198  0.00  0.00    +0.220 C 
ATOM     22  C   LIG    1       -1.354   1.518   0.965  0.00  0.00    +0.270 C 
ENDBRANCH  14  17
ENDBRANCH   4  14
BRANCH   6  23
ATOM     23  N   LIG    1       -5.311   5.346   3.071  0.00  0.00    +0.020 N 
ATOM     24  O   LIG    1       -6.300   5.566   3.747  0.00  0.00    -0.120 OA
ATOM     25  O   LIG    1       -5.340   5.540   1.869  0.00  0.00    -0.150 OA
ENDBRANCH   6  23
TORSDOF 4
