REMARK  Name = ZINCpe00000MyCtB.1
REMARK                            x       y       z     vdW  Elec       q    Type
REMARK                         _______ _______ _______ _____ _____    ______ ____
ROOT
ATOM      1  C   LIG    1        0.642   9.295   1.807  0.00  0.00    +0.520 C 
ATOM      2  N   LIG    1        1.459  10.213   2.361  0.00  0.00    -0.620 N 
ATOM      3  C   LIG    1        2.687   9.808   3.063  0.00  0.00    +0.260 C 
ATOM      4  C   LIG    1        2.713  10.488   4.432  0.00  0.00    +0.240 C 
ATOM      5  O   LIG    1        2.510  11.893   4.266  0.00  0.00    -0.380 OA
ATOM      6  C   LIG    1        1.244  12.238   3.698  0.00  0.00    +0.140 C 
ATOM      7  C   LIG    1        1.146  11.649   2.287  0.00  0.00    +0.290 C 
ATOM      8  O   LIG    1       -0.369   9.649   1.237  0.00  0.00    -0.500 OA
ENDROOT
BRANCH   1   9
ATOM      9  C   LIG    1        0.984   7.830   1.896  0.00  0.00    +0.240 C 
BRANCH   9  10
ATOM     10  O   LIG    1       -0.028   7.064   1.239  0.00  0.00    -0.290 OA
BRANCH  10  14
ATOM     11  C   LIG    1        0.450   2.967   1.207  0.00  0.00    -0.110 A 
ATOM     12  C   LIG    1        1.390   3.766   1.831  0.00  0.00    +0.050 A 
ATOM     13  C   LIG    1        1.235   5.139   1.837  0.00  0.00    -0.080 A 
ATOM     14  C   LIG    1        0.130   5.714   1.228  0.00  0.00    +0.120 A 
ATOM     15  C   LIG    1       -0.815   4.910   0.607  0.00  0.00    -0.010 A 
ATOM     16  C   LIG    1       -0.652   3.538   0.598  0.00  0.00    +0.050 A 
BRANCH  11  18
ATOM     17  C   LIG    1        1.416   1.058  -0.047  0.00  0.00    +0.020 C 
ATOM     18  C   LIG    1        0.624   1.470   1.195  0.00  0.00    +0.060 C 
ENDBRANCH  11  18
ENDBRANCH  10  14
ENDBRANCH   9  10
ENDBRANCH   1   9
BRANCH   6  19
ATOM     19  C   LIG    1        1.115  13.761   3.626  0.00  0.00    +0.270 C 
BRANCH  19  20
ATOM     20  N   LIG    1        1.134  14.319   4.985  0.00  0.00    -0.360 N 
ATOM     21  C   LIG    1        1.158  15.786   4.911  0.00  0.00    +0.320 C 
ATOM     22  H   LIG    1        1.956  13.993   5.471  0.00  0.00    +0.430 HD
BRANCH  20  23
ATOM     23  C   LIG    1       -0.068  13.885   5.709  0.00  0.00    +0.150 C 
BRANCH  23  24
ATOM     24  C   LIG    1        0.010  14.354   7.139  0.00  0.00    +0.490 C 
ATOM     25  O   LIG    1       -0.894  14.097   7.915  0.00  0.00    -0.640 OA
ATOM     26  O   LIG    1        0.977  14.992   7.519  0.00  0.00    -0.670 OA
ENDBRANCH  23  24
ENDBRANCH  20  23
ENDBRANCH  19  20
ENDBRANCH   6  19
TORSDOF 8
