REMARK  Name = ZINCpe00000gMdma.0
REMARK                            x       y       z     vdW  Elec       q    Type
REMARK                         _______ _______ _______ _____ _____    ______ ____
ROOT
ATOM      1  C   LIG    1        1.232   3.581  -0.003  0.00  0.00    +0.040 C 
ATOM      2  C   LIG    1        0.999   4.105  -1.421  0.00  0.00    +0.090 C 
ENDROOT
BRANCH   1   3
ATOM      3  C   LIG    1        1.172   2.075  -0.009  0.00  0.00    +0.490 C 
ATOM      4  O   LIG    1        2.193   1.429  -0.013  0.00  0.00    -0.480 OA
BRANCH   3   5
ATOM      5  O   LIG    1       -0.017   1.451  -0.008  0.00  0.00    -0.330 OA
BRANCH   5   6
ATOM      6  C   LIG    1        0.001  -0.001  -0.013  0.00  0.00    +0.270 C 
BRANCH   6  13
ATOM      7  C   LIG    1       -4.513  -4.147  -0.017  0.00  0.00    +0.300 C 
ATOM      8  N   LIG    1       -3.138  -3.642  -0.019  0.00  0.00    -0.740 N 
ATOM      9  H   LIG    1       -2.393  -4.263  -0.023  0.00  0.00    +0.400 HD
ATOM     10  C   LIG    1       -2.908  -2.314  -0.014  0.00  0.00    +0.690 C 
ATOM     11  N   LIG    1       -1.643  -1.849  -0.016  0.00  0.00    -0.690 N 
ATOM     12  H   LIG    1       -0.898  -2.470  -0.020  0.00  0.00    +0.410 HD
ATOM     13  C   LIG    1       -1.413  -0.521  -0.011  0.00  0.00    +0.520 C 
ATOM     14  O   LIG    1       -2.344   0.255  -0.006  0.00  0.00    -0.440 OA
ATOM     15  O   LIG    1       -3.842  -1.536  -0.009  0.00  0.00    -0.530 OA
ENDBRANCH   6  13
ENDBRANCH   5   6
ENDBRANCH   3   5
ENDBRANCH   1   3
BRANCH   1  16
ATOM     16  S   LIG    1        2.864   4.118   0.580  0.00  0.00    -0.090 S 
BRANCH  16  17
ATOM     17  C   LIG    1        2.693   5.922   0.662  0.00  0.00    +0.090 C 
BRANCH  17  18
ATOM     18  C   LIG    1        3.988   6.528   1.139  0.00  0.00    +0.530 C 
ATOM     19  N   LIG    1        4.096   7.864   1.278  0.00  0.00    -0.670 N 
ATOM     20  H   LIG    1        3.364   8.441   1.008  0.00  0.00    +0.410 HD
ATOM     21  O   LIG    1        4.933   5.813   1.397  0.00  0.00    -0.490 OA
BRANCH  19  22
ATOM     22  C   LIG    1        5.265   8.420   1.812  0.00  0.00    +0.130 A 
ATOM     23  C   LIG    1        5.194   9.556   2.607  0.00  0.00    +0.030 A 
ATOM     24  C   LIG    1        6.348  10.100   3.137  0.00  0.00    +0.010 A 
ATOM     25  C   LIG    1        7.576   9.520   2.867  0.00  0.00    +0.090 A 
ATOM     26  C   LIG    1        7.649   8.390   2.069  0.00  0.00    +0.010 A 
ATOM     27  F   LIG    1        8.704  10.057   3.381  0.00  0.00    -0.140 F 
ATOM     28  C   LIG    1        6.497   7.840   1.542  0.00  0.00    +0.060 A 
ENDBRANCH  19  22
ENDBRANCH  17  18
ENDBRANCH  16  17
ENDBRANCH   1  16
TORSDOF 8
