REMARK  Name = ZINCrD000000CsrJ.0
REMARK                            x       y       z     vdW  Elec       q    Type
REMARK                         _______ _______ _______ _____ _____    ______ ____
ROOT
ATOM      1  C   LIG    1       -2.261   1.032   0.052  0.00  0.00    +0.140 A 
ATOM      2  C   LIG    1       -2.069  -0.340   0.112  0.00  0.00    +0.010 A 
ATOM      3  C   LIG    1       -3.159  -1.188   0.152  0.00  0.00    +0.140 A 
ATOM      4  C   LIG    1       -4.440  -0.670   0.123  0.00  0.00    -0.660 A 
ATOM      5  C   LIG    1       -4.635   0.697   0.058  0.00  0.00    +0.150 A 
ATOM      6  C   LIG    1       -3.548   1.549   0.023  0.00  0.00    +0.000 A 
ENDROOT
BRANCH   4   7
ATOM      7  S   LIG    1       -5.828  -1.755   0.167  0.00  0.00    +2.590 S 
ATOM      8  O   LIG    1       -6.917  -0.994   0.671  0.00  0.00    -0.930 OA
ATOM      9  O   LIG    1       -5.377  -2.960   0.770  0.00  0.00    -0.930 OA
BRANCH   7  10
ATOM     10  C   LIG    1       -6.231  -2.154  -1.502  0.00  0.00    -0.660 A 
ATOM     11  C   LIG    1       -7.131  -1.372  -2.201  0.00  0.00    +0.120 A 
ATOM     12  C   LIG    1       -7.443  -1.683  -3.512  0.00  0.00    +0.000 A 
ATOM     13  C   LIG    1       -6.864  -2.781  -4.119  0.00  0.00    +0.070 A 
ATOM     14  C   LIG    1       -5.968  -3.566  -3.417  0.00  0.00    +0.000 A 
ATOM     15  C   LIG    1       -5.652  -3.253  -2.109  0.00  0.00    +0.120 A 
ENDBRANCH   7  10
ENDBRANCH   4   7
BRANCH   1  16
ATOM     16  O   LIG    1       -1.191   1.869   0.018  0.00  0.00    -0.280 OA
BRANCH  16  18
ATOM     17  O   LIG    1       -1.596   2.400   2.135  0.00  0.00    -0.480 OA
ATOM     18  C   LIG    1       -0.879   2.512   1.161  0.00  0.00    +0.560 C 
BRANCH  18  19
ATOM     19  C   LIG    1        0.335   3.346   1.230  0.00  0.00    +0.010 A 
ATOM     20  C   LIG    1        0.764   4.047   2.321  0.00  0.00    +0.200 A 
ATOM     21  N   LIG    1        1.919   4.675   1.965  0.00  0.00    -0.360 N 
ATOM     22  C   LIG    1        2.769   5.497   2.651  0.00  0.00    +0.220 A 
ATOM     23  C   LIG    1        3.866   6.004   2.053  0.00  0.00    +0.030 A 
ATOM     24  C   LIG    1        4.152   5.693   0.712  0.00  0.00    +0.050 A 
ATOM     25  C   LIG    1        3.318   4.877   0.017  0.00  0.00    +0.090 A 
ATOM     26  C   LIG    1        2.172   4.353   0.654  0.00  0.00    +0.230 A 
ATOM     27  N   LIG    1        1.210   3.552   0.228  0.00  0.00    -0.440 NA
ENDBRANCH  18  19
ENDBRANCH  16  18
ENDBRANCH   1  16
TORSDOF 5
