REMARK  Name = ZINCrD00000F5LwZ.0
REMARK                            x       y       z     vdW  Elec       q    Type
REMARK                         _______ _______ _______ _____ _____    ______ ____
ROOT
ATOM      1  N   LIG    1       -3.253   0.857   3.531  0.00  0.00    -0.690 N 
ATOM      2  H   LIG    1       -2.931  -0.032   3.747  0.00  0.00    +0.410 HD
ENDROOT
BRANCH   1   6
ATOM      3  C   LIG    1       -5.157  -1.677   6.408  0.00  0.00    +0.030 C 
ATOM      4  C   LIG    1       -4.315  -0.544   5.817  0.00  0.00    -0.040 C 
ATOM      5  C   LIG    1       -5.195   0.334   4.923  0.00  0.00    +0.050 C 
ATOM      6  C   LIG    1       -4.347   1.448   4.306  0.00  0.00    +0.230 C 
ATOM      7  C   LIG    1       -3.768   2.322   5.423  0.00  0.00    +0.270 C 
ATOM      8  N   LIG    1       -3.041   1.463   6.367  0.00  0.00    -0.610 N 
ATOM      9  C   LIG    1       -1.760   1.730   6.692  0.00  0.00    +0.520 C 
ATOM     10  O   LIG    1       -1.171   1.013   7.473  0.00  0.00    -0.530 OA
ATOM     11  C   LIG    1       -3.736   0.308   6.951  0.00  0.00    +0.280 C 
BRANCH   9  12
ATOM     12  C   LIG    1       -1.061   2.918   6.085  0.00  0.00    +0.060 C 
BRANCH  12  13
ATOM     13  C   LIG    1        0.372   2.994   6.616  0.00  0.00    +0.230 C 
BRANCH  13  14
ATOM     14  C   LIG    1        1.055   4.154   6.023  0.00  0.00    +0.200 C 
ATOM     15  N   LIG    1        1.582   5.051   5.565  0.00  0.00    -0.420 NA
ENDBRANCH  13  14
ENDBRANCH  12  13
ENDBRANCH   9  12
ENDBRANCH   1   6
BRANCH   1  16
ATOM     16  C   LIG    1       -2.679   1.569   2.490  0.00  0.00    +0.450 A 
ATOM     17  C   LIG    1       -3.134   2.849   2.170  0.00  0.00    -0.100 A 
ATOM     18  C   LIG    1       -2.529   3.517   1.123  0.00  0.00    +0.130 A 
ATOM     19  N   LIG    1       -1.541   2.928   0.465  0.00  0.00    -0.520 NA
ATOM     20  C   LIG    1       -1.137   1.716   0.789  0.00  0.00    +0.410 A 
ATOM     21  N   LIG    1       -1.685   1.043   1.780  0.00  0.00    -0.550 NA
BRANCH  18  22
ATOM     22  C   LIG    1       -2.984   4.901   0.738  0.00  0.00    +0.520 C 
ATOM     23  F   LIG    1       -4.344   5.044   1.032  0.00  0.00    -0.170 F 
ATOM     24  F   LIG    1       -2.780   5.095  -0.632  0.00  0.00    -0.160 F 
ATOM     25  F   LIG    1       -2.249   5.851   1.457  0.00  0.00    -0.170 F 
ENDBRANCH  18  22
BRANCH  20  26
ATOM     26  C   LIG    1       -0.013   1.086   0.008  0.00  0.00    +0.020 C 
ATOM     27  C   LIG    1        0.460   1.806  -1.256  0.00  0.00    +0.060 C 
ATOM     28  C   LIG    1        1.335   1.811  -0.001  0.00  0.00    +0.060 C 
ENDBRANCH  20  26
ENDBRANCH   1  16
TORSDOF 7
