REMARK  Name = ZINCrH00000tj16T.0
REMARK                            x       y       z     vdW  Elec       q    Type
REMARK                         _______ _______ _______ _____ _____    ______ ____
ROOT
ATOM      1  C   LIG    1       -1.034   2.153  -0.039  0.00  0.00    +0.510 C 
ATOM      2  N   LIG    1        0.071   1.566   0.463  0.00  0.00    -0.540 N 
ATOM      3  O   LIG    1       -0.963   3.259  -0.532  0.00  0.00    -0.450 OA
ENDROOT
BRANCH   1  12
ATOM      4  C   LIG    1       -5.393   1.402   0.998  0.00  0.00    +0.090 C 
ATOM      5  C   LIG    1       -4.730   1.623  -0.364  0.00  0.00    +0.170 C 
ATOM      6  C   LIG    1       -5.609   2.466  -1.304  0.00  0.00    +0.090 C 
ATOM      7  C   LIG    1       -5.110   3.894  -0.975  0.00  0.00    +0.080 C 
ATOM      8  C   LIG    1       -3.700   3.691  -0.465  0.00  0.00    +0.540 C 
ATOM      9  O   LIG    1       -2.898   4.581  -0.274  0.00  0.00    -0.480 OA
ATOM     10  S   LIG    1       -4.244   0.060  -1.180  0.00  0.00    -0.240 S 
ATOM     11  C   LIG    1       -2.430   0.360  -1.112  0.00  0.00    +0.150 C 
ATOM     12  C   LIG    1       -2.357   1.435   0.014  0.00  0.00    +0.250 C 
ATOM     13  N   LIG    1       -3.461   2.382  -0.253  0.00  0.00    -0.620 N 
ENDBRANCH   1  12
BRANCH   2  14
ATOM     14  C   LIG    1        1.274   2.280   0.529  0.00  0.00    +0.150 A 
ATOM     15  C   LIG    1        1.294   3.637   0.235  0.00  0.00    +0.030 A 
ATOM     16  C   LIG    1        2.481   4.340   0.305  0.00  0.00    +0.040 A 
ATOM     17  C   LIG    1        3.651   3.691   0.659  0.00  0.00    -0.050 A 
ATOM     18  C   LIG    1        3.634   2.337   0.947  0.00  0.00    +0.050 A 
ATOM     19 CL   LIG    1        5.142   4.576   0.741  0.00  0.00    -0.070 Cl
ATOM     20  C   LIG    1        2.449   1.631   0.883  0.00  0.00    +0.020 A 
ENDBRANCH   2  14
BRANCH   2  21
ATOM     21  C   LIG    1        0.016   0.180   0.932  0.00  0.00    +0.360 C 
BRANCH  21  22
ATOM     22  C   LIG    1       -0.180   0.163   2.427  0.00  0.00    +0.100 A 
ATOM     23  C   LIG    1       -1.451   0.011   2.947  0.00  0.00    -0.030 A 
ATOM     24  C   LIG    1       -1.620  -0.007   4.323  0.00  0.00    +0.070 A 
ATOM     25  C   LIG    1       -0.501   0.139   5.127  0.00  0.00    -0.020 A 
ATOM     26  C   LIG    1        0.739   0.292   4.535  0.00  0.00    +0.270 A 
ATOM     27  N   LIG    1        0.863   0.300   3.222  0.00  0.00    -0.460 NA
ENDBRANCH  21  22
ENDBRANCH   2  21
TORSDOF 4
