REMARK  Name = ZINCqH0000038RAu.0
REMARK                            x       y       z     vdW  Elec       q    Type
REMARK                         _______ _______ _______ _____ _____    ______ ____
ROOT
ATOM      1  C   LIG    1        2.286   1.746  -0.874  0.00  0.00    +0.380 C 
ATOM      2  N   LIG    1        1.002   2.249  -0.381  0.00  0.00    -0.490 N 
ATOM      3  C   LIG    1        0.726   3.529  -0.060  0.00  0.00    +0.460 A 
ATOM      4  N   LIG    1       -0.558   3.579   0.350  0.00  0.00    -0.360 N 
ATOM      5  N   LIG    1       -1.079   2.280   0.268  0.00  0.00    -0.250 NA
ATOM      6  S   LIG    1        1.809   4.851  -0.155  0.00  0.00    -0.570 S 
ATOM      7  C   LIG    1       -0.134   1.494  -0.165  0.00  0.00    +0.310 A 
ENDROOT
BRANCH   7   8
ATOM      8  C   LIG    1       -0.259   0.037  -0.393  0.00  0.00    -0.090 A 
ATOM      9  C   LIG    1        0.698  -0.650  -1.147  0.00  0.00    +0.090 A 
ATOM     10  C   LIG    1        0.535  -2.012  -1.331  0.00  0.00    -0.020 A 
ATOM     11  C   LIG    1       -0.558  -2.644  -0.769  0.00  0.00    +0.300 A 
ATOM     12  N   LIG    1       -1.446  -1.971  -0.063  0.00  0.00    -0.480 NA
ATOM     13  C   LIG    1       -1.331  -0.675   0.145  0.00  0.00    +0.330 A 
ENDBRANCH   7   8
BRANCH   4  14
ATOM     14  C   LIG    1       -1.279   4.775   0.794  0.00  0.00    +0.520 C 
BRANCH  14  15
ATOM     15  N   LIG    1       -2.207   5.207  -0.260  0.00  0.00    -0.540 NA
ATOM     16  C   LIG    1       -1.511   6.001  -1.280  0.00  0.00    +0.260 C 
ATOM     17  C   LIG    1       -1.159   7.355  -0.735  0.00  0.00    -0.030 C 
ATOM     18  C   LIG    1       -1.716   7.861   0.343  0.00  0.00    -0.090 C 
ATOM     19  C   LIG    1       -2.757   7.126   1.140  0.00  0.00    +0.050 C 
ATOM     20  C   LIG    1       -3.328   5.976   0.307  0.00  0.00    +0.240 C 
BRANCH  18  21
ATOM     21  C   LIG    1       -1.301   9.207   0.790  0.00  0.00    -0.050 A 
ATOM     22  C   LIG    1       -0.648   9.370   2.012  0.00  0.00    +0.010 A 
ATOM     23  C   LIG    1       -0.259  10.629   2.422  0.00  0.00    +0.000 A 
ATOM     24  C   LIG    1       -0.525  11.730   1.628  0.00  0.00    +0.000 A 
ATOM     25  C   LIG    1       -1.177  11.577   0.417  0.00  0.00    +0.000 A 
ATOM     26  C   LIG    1       -1.566  10.322  -0.006  0.00  0.00    +0.010 A 
ENDBRANCH  18  21
ENDBRANCH  14  15
ENDBRANCH   4  14
TORSDOF 4
