REMARK  Name = ZINCqH00000057gk.0
REMARK                            x       y       z     vdW  Elec       q    Type
REMARK                         _______ _______ _______ _____ _____    ______ ____
ROOT
ATOM      1  N   LIG    1        4.833   0.195  -0.145  0.00  0.00    -0.590 N 
ATOM      2  C   LIG    1        3.712  -0.551  -0.096  0.00  0.00    +0.560 C 
ATOM      3  O   LIG    1        3.790  -1.760   0.007  0.00  0.00    -0.520 OA
ENDROOT
BRANCH   2   4
ATOM      4  C   LIG    1        2.387   0.101  -0.168  0.00  0.00    -0.180 A 
ATOM      5  C   LIG    1        2.209   1.400   0.310  0.00  0.00    +0.300 A 
ATOM      6  N   LIG    1        1.029   1.982   0.246  0.00  0.00    -0.470 NA
ATOM      7  C   LIG    1       -0.022   1.371  -0.265  0.00  0.00    +0.320 A 
ATOM      8  C   LIG    1        0.071   0.081  -0.760  0.00  0.00    -0.150 A 
ATOM      9 BR   LIG    1       -1.449  -0.776  -1.488  0.00  0.00    -0.020 Br
ATOM     10  C   LIG    1        1.290  -0.574  -0.716  0.00  0.00    +0.170 A 
ENDBRANCH   2   4
BRANCH   1  11
ATOM     11  C   LIG    1        6.144  -0.457  -0.208  0.00  0.00    +0.350 C 
BRANCH  11  15
ATOM     12  C   LIG    1        7.233  -1.077  -4.294  0.00  0.00    +0.220 A 
ATOM     13  C   LIG    1        7.590   0.100  -3.650  0.00  0.00    -0.080 A 
ATOM     14  C   LIG    1        7.236   0.298  -2.329  0.00  0.00    +0.060 A 
ATOM     15  C   LIG    1        6.528  -0.676  -1.649  0.00  0.00    -0.170 A 
ATOM     16  C   LIG    1        6.176  -1.852  -2.286  0.00  0.00    +0.070 A 
ATOM     17  C   LIG    1        6.521  -2.053  -3.607  0.00  0.00    -0.080 A 
BRANCH  12  19
ATOM     18  C   LIG    1        8.340  -0.251  -6.352  0.00  0.00    +0.270 C 
ATOM     19  N   LIG    1        7.589  -1.280  -5.629  0.00  0.00    -0.640 N 
ATOM     20  C   LIG    1        7.212  -2.523  -6.307  0.00  0.00    +0.280 C 
ENDBRANCH  12  19
ENDBRANCH  11  15
ENDBRANCH   1  11
BRANCH   1  21
ATOM     21  C   LIG    1        4.742   1.657  -0.136  0.00  0.00    +0.290 C 
BRANCH  21  22
ATOM     22  C   LIG    1        4.974   2.174   1.285  0.00  0.00    +0.130 C 
ATOM     23  C   LIG    1        4.759   3.702   1.343  0.00  0.00    +0.010 C 
ATOM     24  C   LIG    1        5.837   4.196   2.333  0.00  0.00    +0.010 C 
ATOM     25  C   LIG    1        6.577   2.907   2.756  0.00  0.00    +0.190 C 
ATOM     26  O   LIG    1        6.352   1.980   1.672  0.00  0.00    -0.360 OA
ENDBRANCH  21  22
ENDBRANCH   1  21
TORSDOF 6
