REMARK  Name = ZINCpe000000VNFT.0
REMARK                            x       y       z     vdW  Elec       q    Type
REMARK                         _______ _______ _______ _____ _____    ______ ____
ROOT
ATOM      1  N   LIG    1        0.822   2.481  -2.721  0.00  0.00    -0.990 NA
ATOM      2  C   LIG    1        0.278   2.205  -4.065  0.00  0.00    +0.390 C 
ATOM      3  S   LIG    1        1.614   1.206  -4.844  0.00  0.00    -0.240 S 
ATOM      4  C   LIG    1        2.965   2.094  -3.961  0.00  0.00    +0.170 C 
ATOM      5  C   LIG    1        2.274   2.451  -2.625  0.00  0.00    +0.240 C 
ENDROOT
BRANCH   5   6
ATOM      6  C   LIG    1        2.757   3.805  -2.172  0.00  0.00    +0.490 C 
ATOM      7  N   LIG    1        4.076   4.029  -2.006  0.00  0.00    -0.670 N 
ATOM      8  H   LIG    1        4.708   3.299  -2.104  0.00  0.00    +0.410 HD
ATOM      9  O   LIG    1        1.960   4.692  -1.956  0.00  0.00    -0.480 OA
BRANCH   7  10
ATOM     10  C   LIG    1        4.534   5.315  -1.693  0.00  0.00    +0.110 A 
ATOM     11  C   LIG    1        3.875   6.429  -2.196  0.00  0.00    +0.060 A 
ATOM     12  C   LIG    1        4.324   7.697  -1.882  0.00  0.00    -0.060 A 
ATOM     13  C   LIG    1        5.440   7.857  -1.073  0.00  0.00    +0.120 A 
ATOM     14  C   LIG    1        6.102   6.745  -0.575  0.00  0.00    +0.010 A 
ATOM     15  C   LIG    1        5.651   5.477  -0.883  0.00  0.00    +0.030 A 
BRANCH  13  16
ATOM     16  O   LIG    1        5.884   9.105  -0.769  0.00  0.00    -0.320 OA
ATOM     17  C   LIG    1        5.155  10.206  -1.316  0.00  0.00    +0.250 C 
ENDBRANCH  13  16
ENDBRANCH   7  10
ENDBRANCH   5   6
BRANCH   1  18
ATOM     18  S   LIG    1       -0.148   2.808  -1.420  0.00  0.00    +2.790 S 
ATOM     19  O   LIG    1        0.650   3.539  -0.499  0.00  0.00    -0.940 OA
ATOM     20  O   LIG    1       -1.373   3.298  -1.946  0.00  0.00    -0.960 OA
BRANCH  18  21
ATOM     21  N   LIG    1       -0.495   1.362  -0.692  0.00  0.00    -1.000 NA
ATOM     22  C   LIG    1       -1.676   0.599  -1.105  0.00  0.00    +0.310 C 
BRANCH  21  23
ATOM     23  C   LIG    1        0.378   0.845   0.365  0.00  0.00    +0.310 C 
BRANCH  23  24
ATOM     24  C   LIG    1       -0.180   1.250   1.731  0.00  0.00    +0.160 C 
BRANCH  24  26
ATOM     25  C   LIG    1       -2.052   0.926   3.192  0.00  0.00    +0.200 C 
ATOM     26  O   LIG    1       -1.442   0.613   1.938  0.00  0.00    -0.390 OA
ENDBRANCH  24  26
ENDBRANCH  23  24
ENDBRANCH  21  23
ENDBRANCH  18  21
ENDBRANCH   1  18
TORSDOF 8
