REMARK  Name = ZINCrD00000hQ5bK.1
REMARK                            x       y       z     vdW  Elec       q    Type
REMARK                         _______ _______ _______ _____ _____    ______ ____
ROOT
ATOM      1  C   LIG    1       -1.239   4.103   7.727  0.00  0.00    -0.170 A 
ATOM      2  C   LIG    1       -2.610   4.030   7.473  0.00  0.00    +0.080 A 
ATOM      3  C   LIG    1       -3.102   3.111   6.568  0.00  0.00    +0.000 A 
ATOM      4  C   LIG    1       -2.247   2.255   5.904  0.00  0.00    +0.090 A 
ATOM      5  C   LIG    1       -0.872   2.309   6.142  0.00  0.00    -0.160 A 
ATOM      6  C   LIG    1       -0.362   3.234   7.063  0.00  0.00    +0.220 A 
ENDROOT
BRANCH   1  13
ATOM      7  C   LIG    1       -1.192   8.543  11.898  0.00  0.00    +0.090 C 
ATOM      8  C   LIG    1       -1.731   7.596  10.824  0.00  0.00    +0.020 C 
ATOM      9  S   LIG    1       -3.444   7.138  11.220  0.00  0.00    -0.240 S 
ATOM     10  C   LIG    1       -3.821   5.904   9.940  0.00  0.00    +0.100 C 
ATOM     11  C   LIG    1       -2.756   4.803   9.986  0.00  0.00    +0.280 C 
ATOM     12  N   LIG    1       -1.432   5.396   9.793  0.00  0.00    -0.610 N 
ATOM     13  C   LIG    1       -0.716   5.086   8.694  0.00  0.00    +0.570 C 
ATOM     14  O   LIG    1        0.361   5.616   8.501  0.00  0.00    -0.510 OA
ATOM     15  C   LIG    1       -0.875   6.319  10.784  0.00  0.00    +0.240 C 
ATOM     16  C   LIG    1        0.562   6.676  10.396  0.00  0.00    +0.070 C 
ENDBRANCH   1  13
BRANCH   5  17
ATOM     17  C   LIG    1        0.040   1.393   5.431  0.00  0.00    +0.570 C 
ATOM     18  N   LIG    1       -0.180   0.064   5.465  0.00  0.00    -0.610 N 
ATOM     19  C   LIG    1       -1.263  -0.471   6.292  0.00  0.00    +0.290 C 
ATOM     20  C   LIG    1       -2.327  -1.109   5.392  0.00  0.00    +0.100 C 
ATOM     21  S   LIG    1       -1.545  -2.407   4.387  0.00  0.00    -0.240 S 
ATOM     22  C   LIG    1       -0.180  -1.510   3.590  0.00  0.00    +0.020 C 
ATOM     23  C   LIG    1        0.688  -2.492   2.802  0.00  0.00    +0.080 C 
ATOM     24  C   LIG    1        0.666  -0.830   4.673  0.00  0.00    +0.250 C 
ATOM     25  C   LIG    1        1.277  -1.895   5.585  0.00  0.00    +0.050 C 
ATOM     26  O   LIG    1        0.989   1.837   4.816  0.00  0.00    -0.520 OA
ENDBRANCH   5  17
BRANCH   6  27
ATOM     27  O   LIG    1        0.969   3.292   7.306  0.00  0.00    -0.480 OA
ATOM     28  H   LIG    1        1.448   3.902   6.729  0.00  0.00    +0.410 HD
ENDBRANCH   6  27
TORSDOF 3
