REMARK  Name = ZINCc70000001mxC.0
REMARK                            x       y       z     vdW  Elec       q    Type
REMARK                         _______ _______ _______ _____ _____    ______ ____
ROOT
ATOM      1  C   LIG    1       -0.729   1.579   1.267  0.00  0.00    +0.100 C 
ENDROOT
BRANCH   1   2
ATOM      2  C   LIG    1        0.000   1.080   2.488  0.00  0.00    +0.080 A 
ATOM      3  C   LIG    1        0.432   1.975   3.450  0.00  0.00    +0.230 A 
ATOM      4  N   LIG    1        1.070   1.538   4.521  0.00  0.00    -0.440 NA
ATOM      5  C   LIG    1        1.297   0.245   4.673  0.00  0.00    +0.220 A 
ATOM      6  C   LIG    1        0.865  -0.651   3.710  0.00  0.00    +0.230 A 
ATOM      7  N   LIG    1        0.222  -0.214   2.642  0.00  0.00    -0.430 NA
ENDBRANCH   1   2
BRANCH   1   8
ATOM      8  C   LIG    1       -0.013   1.086   0.008  0.00  0.00    +0.270 C 
BRANCH   8  11
ATOM      9  C   LIG    1       -0.997   1.758  -3.630  0.00  0.00    +0.110 C 
ATOM     10  C   LIG    1       -0.268   1.258  -2.409  0.00  0.00    +0.510 C 
ATOM     11  N   LIG    1       -0.721   1.571  -1.179  0.00  0.00    -0.730 N 
ATOM     12  H   LIG    1       -1.516   2.118  -1.079  0.00  0.00    +0.400 HD
ATOM     13  O   LIG    1        0.726   0.575  -2.534  0.00  0.00    -0.540 OA
ENDBRANCH   8  11
ENDBRANCH   1   8
TORSDOF 3
