REMARK  Name = ZINCpk00000eayb4.0
REMARK                            x       y       z     vdW  Elec       q    Type
REMARK                         _______ _______ _______ _____ _____    ______ ____
ROOT
ATOM      1  S   LIG    1       -2.735   0.148   0.029  0.00  0.00    +2.640 S 
ATOM      2  O   LIG    1       -3.748  -0.848   0.068  0.00  0.00    -1.010 OA
ATOM      3  O   LIG    1       -2.656   1.137  -0.988  0.00  0.00    -1.000 OA
ENDROOT
BRANCH   1   9
ATOM      4  C   LIG    1        0.002  -0.004   0.002  0.00  0.00    +0.440 A 
ATOM      5  N   LIG    1        1.160  -0.643  -0.018  0.00  0.00    -0.550 NA
ATOM      6  C   LIG    1        1.223  -1.961  -0.021  0.00  0.00    +0.410 A 
ATOM      7  C   LIG    1        0.073  -2.725  -0.014  0.00  0.00    -0.300 A 
ATOM      8  C   LIG    1       -1.163  -2.092   0.002  0.00  0.00    +0.270 A 
ATOM      9  C   LIG    1       -1.195  -0.708   0.010  0.00  0.00    -0.700 A 
BRANCH   7  10
ATOM     10  C   LIG    1        0.157  -4.229  -0.024  0.00  0.00    +0.520 C 
ATOM     11  F   LIG    1       -0.951  -4.763   0.643  0.00  0.00    -0.170 F 
ATOM     12  F   LIG    1        1.330  -4.635   0.622  0.00  0.00    -0.180 F 
ATOM     13  F   LIG    1        0.171  -4.687  -1.346  0.00  0.00    -0.170 F 
ENDBRANCH   7  10
BRANCH   4  15
ATOM     14  C   LIG    1        1.248   2.019   0.001  0.00  0.00    +0.250 C 
ATOM     15  O   LIG    1       -0.016   1.353   0.009  0.00  0.00    -0.270 OA
ENDBRANCH   4  15
ENDBRANCH   1   9
BRANCH   1  16
ATOM     16  N   LIG    1       -2.825   0.963   1.468  0.00  0.00    -1.070 NA
BRANCH  16  17
ATOM     17  C   LIG    1       -3.951   1.740   1.764  0.00  0.00    +0.400 A 
ATOM     18  N   LIG    1       -4.996   1.909   0.988  0.00  0.00    -0.410 NA
ATOM     19  N   LIG    1       -5.899   2.751   1.649  0.00  0.00    -0.360 N 
ATOM     20  C   LIG    1       -5.361   3.088   2.840  0.00  0.00    +0.120 A 
ATOM     21  C   LIG    1       -5.990   3.985   3.875  0.00  0.00    +0.140 C 
ATOM     22  C   LIG    1       -7.198   3.193   1.135  0.00  0.00    +0.340 C 
ATOM     23  C   LIG    1       -4.158   2.479   2.939  0.00  0.00    -0.340 A 
BRANCH  23  24
ATOM     24  C   LIG    1       -3.208   2.576   4.105  0.00  0.00    +0.360 C 
BRANCH  24  25
ATOM     25  N   LIG    1       -2.294   3.708   3.898  0.00  0.00    -0.640 N 
ATOM     26  H   LIG    1       -1.657   3.773   4.678  0.00  0.00    +0.420 HD
ATOM     27  H   LIG    1       -2.826   4.562   3.826  0.00  0.00    +0.420 HD
ATOM     28  H   LIG    1       -1.770   3.566   3.048  0.00  0.00    +0.440 HD
ENDBRANCH  24  25
ENDBRANCH  23  24
ENDBRANCH  16  17
ENDBRANCH   1  16
TORSDOF 7
