REMARK  Name = ZINCkj00000dDnr6.0
REMARK                            x       y       z     vdW  Elec       q    Type
REMARK                         _______ _______ _______ _____ _____    ______ ____
ROOT
ATOM      1  C   LIG    1       -1.877   3.696   0.452  0.00  0.00    +0.050 C 
ATOM      2  C   LIG    1       -0.707   3.285   1.304  0.00  0.00    +0.060 C 
ATOM      3  C   LIG    1       -0.644   1.744   1.336  0.00  0.00    +0.030 C 
ATOM      4  C   LIG    1       -0.026   1.189   0.140  0.00  0.00    +0.020 C 
ATOM      5  C   LIG    1       -0.819   1.525  -1.139  0.00  0.00    +0.050 C 
ATOM      6  C   LIG    1       -0.478   2.929  -1.558  0.00  0.00    +0.050 C 
ATOM      7  C   LIG    1       -1.476   3.967  -1.010  0.00  0.00    +0.190 C 
ENDROOT
BRANCH   7   8
ATOM      8  N   LIG    1       -0.868   5.301  -1.096  0.00  0.00    -0.520 N 
ATOM      9  H   LIG    1        0.018   5.298  -0.613  0.00  0.00    +0.440 HD
ATOM     10  H   LIG    1       -1.482   5.979  -0.668  0.00  0.00    +0.420 HD
BRANCH   8  11
ATOM     11  C   LIG    1       -0.656   5.654  -2.506  0.00  0.00    +0.420 C 
BRANCH  11  12
ATOM     12  C   LIG    1       -0.032   7.022  -2.593  0.00  0.00    +0.070 A 
ATOM     13  N   LIG    1        1.245   7.291  -2.603  0.00  0.00    -0.230 NA
ATOM     14  N   LIG    1        1.420   8.562  -2.688  0.00  0.00    -0.280 NA
ATOM     15  C   LIG    1        0.262   9.162  -2.735  0.00  0.00    +0.220 A 
ATOM     16  C   LIG    1        0.029  10.648  -2.837  0.00  0.00    +0.220 C 
ATOM     17  N   LIG    1       -0.693   8.202  -2.682  0.00  0.00    -0.460 N 
ATOM     18  C   LIG    1       -2.144   8.399  -2.710  0.00  0.00    +0.350 C 
ENDBRANCH  11  12
ENDBRANCH   8  11
ENDBRANCH   7   8
BRANCH   1  19
ATOM     19  C   LIG    1       -2.483   4.949   1.032  0.00  0.00    +0.430 C 
ATOM     20  O   LIG    1       -1.787   5.736   1.629  0.00  0.00    -0.490 OA
BRANCH  19  22
ATOM     21  C   LIG    1       -4.310   6.415   1.468  0.00  0.00    +0.300 C 
ATOM     22  O   LIG    1       -3.795   5.190   0.884  0.00  0.00    -0.350 OA
ENDBRANCH  19  22
ENDBRANCH   1  19
TORSDOF 5
