REMARK  Name = ZINCqH0000038wiK.0
REMARK                            x       y       z     vdW  Elec       q    Type
REMARK                         _______ _______ _______ _____ _____    ______ ____
ROOT
ATOM      1  N   LIG    1       -4.799   3.780  -0.136  0.00  0.00    -0.680 N 
ATOM      2  H   LIG    1       -4.809   4.749  -0.083  0.00  0.00    +0.410 HD
ATOM      3  C   LIG    1       -3.626   3.122  -0.217  0.00  0.00    +0.700 C 
ATOM      4  N   LIG    1       -2.465   3.799  -0.120  0.00  0.00    -0.680 N 
ATOM      5  H   LIG    1       -2.472   4.747   0.084  0.00  0.00    +0.410 HD
ATOM      6  O   LIG    1       -3.615   1.917  -0.379  0.00  0.00    -0.550 OA
ENDROOT
BRANCH   4   7
ATOM      7  C   LIG    1       -1.247   3.133  -0.313  0.00  0.00    +0.140 A 
ATOM      8  C   LIG    1       -0.119   3.524   0.395  0.00  0.00    +0.030 A 
ATOM      9  C   LIG    1        1.083   2.874   0.204  0.00  0.00    +0.010 A 
ATOM     10  C   LIG    1        1.170   1.812  -0.693  0.00  0.00    +0.130 A 
ATOM     11  N   LIG    1        2.255   1.006  -1.050  0.00  0.00    -0.660 N 
ATOM     12  H   LIG    1        3.146   1.105  -0.681  0.00  0.00    +0.410 HD
ATOM     13  C   LIG    1        1.920   0.080  -1.964  0.00  0.00    +0.530 C 
ATOM     14  C   LIG    1        0.450   0.265  -2.270  0.00  0.00    +0.140 C 
ATOM     15  O   LIG    1        2.659  -0.750  -2.451  0.00  0.00    -0.500 OA
ATOM     16  C   LIG    1        0.034   1.424  -1.393  0.00  0.00    -0.120 A 
ATOM     17  C   LIG    1       -1.165   2.074  -1.209  0.00  0.00    +0.070 A 
ENDBRANCH   4   7
BRANCH   1  22
ATOM     18  C   LIG    1       -7.266   1.109   0.472  0.00  0.00    +0.000 A 
ATOM     19  C   LIG    1       -8.400   1.665  -0.122  0.00  0.00    +0.020 A 
ATOM     20  C   LIG    1       -8.329   2.911  -0.711  0.00  0.00    +0.040 A 
ATOM     21  C   LIG    1       -7.139   3.614  -0.712  0.00  0.00    +0.000 A 
ATOM     22  C   LIG    1       -6.003   3.067  -0.128  0.00  0.00    +0.160 A 
ATOM     23  C   LIG    1       -6.063   1.816   0.467  0.00  0.00    +0.080 A 
BRANCH  18  28
ATOM     24  C   LIG    1       -9.001  -3.295   2.131  0.00  0.00    +0.190 C 
ATOM     25  C   LIG    1       -8.092  -2.134   1.822  0.00  0.00    -0.040 A 
ATOM     26  C   LIG    1       -6.789  -2.034   2.142  0.00  0.00    +0.150 A 
ATOM     27  N   LIG    1       -6.343  -0.853   1.685  0.00  0.00    -0.460 NA
ATOM     28  C   LIG    1       -7.338  -0.226   1.103  0.00  0.00    +0.230 A 
ATOM     29  O   LIG    1       -8.433  -1.003   1.173  0.00  0.00    -0.190 OA
ENDBRANCH  18  28
ENDBRANCH   1  22
TORSDOF 3
