REMARK  Name = ZINCrg000009XYJX.0
REMARK                            x       y       z     vdW  Elec       q    Type
REMARK                         _______ _______ _______ _____ _____    ______ ____
ROOT
ATOM      1  C   LIG    1        4.340   0.611   3.611  0.00  0.00    +0.080 C 
ATOM      2  C   LIG    1        3.281   1.366   2.804  0.00  0.00    +0.140 C 
ATOM      3  C   LIG    1        3.649   1.580   1.329  0.00  0.00    +0.310 C 
ATOM      4  N   LIG    1        2.248   1.283   0.991  0.00  0.00    -0.640 N 
ATOM      5  C   LIG    1        1.399   1.612  -0.003  0.00  0.00    +0.560 C 
ATOM      6  O   LIG    1        1.772   2.331  -0.905  0.00  0.00    -0.530 OA
ATOM      7  C   LIG    1        2.180   0.475   2.218  0.00  0.00    +0.280 C 
ENDROOT
BRANCH   5   8
ATOM      8  C   LIG    1       -0.013   1.086   0.008  0.00  0.00    +0.020 C 
ATOM      9  C   LIG    1       -0.765   1.600  -1.232  0.00  0.00    +0.110 C 
ATOM     10  C   LIG    1       -2.269   1.310  -0.989  0.00  0.00    -0.310 C 
ATOM     11  S   LIG    1       -2.488   1.783   0.768  0.00  0.00    +2.400 S 
ATOM     12  O   LIG    1       -3.282   0.804   1.424  0.00  0.00    -0.930 OA
ATOM     13  O   LIG    1       -2.849   3.155   0.846  0.00  0.00    -0.930 OA
ATOM     14  C   LIG    1       -0.743   1.587   1.270  0.00  0.00    -0.310 C 
ENDBRANCH   5   8
BRANCH   2  15
ATOM     15  N   LIG    1        2.781   2.566   3.479  0.00  0.00    -0.700 N 
ATOM     16  H   LIG    1        2.707   3.401   2.991  0.00  0.00    +0.410 HD
ATOM     17  C   LIG    1        2.424   2.510   4.777  0.00  0.00    +0.570 C 
ATOM     18  O   LIG    1        2.517   1.463   5.388  0.00  0.00    -0.520 OA
BRANCH  17  19
ATOM     19  C   LIG    1        1.919   3.721   5.458  0.00  0.00    -0.110 A 
ATOM     20  C   LIG    1        1.817   4.926   4.760  0.00  0.00    +0.020 A 
ATOM     21  C   LIG    1        1.341   6.053   5.398  0.00  0.00    +0.050 A 
ATOM     22  C   LIG    1        0.975   5.997   6.730  0.00  0.00    -0.020 A 
ATOM     23  C   LIG    1        1.078   4.804   7.433  0.00  0.00    +0.100 A 
ATOM     24  C   LIG    1        1.549   3.666   6.802  0.00  0.00    +0.080 A 
BRANCH  23  25
ATOM     25  O   LIG    1        0.716   4.755   8.743  0.00  0.00    -0.320 OA
BRANCH  25  26
ATOM     26  C   LIG    1        0.238   5.967   9.330  0.00  0.00    +0.600 C 
ATOM     27  F   LIG    1       -0.899   6.402   8.642  0.00  0.00    -0.200 F 
ATOM     28  F   LIG    1        1.234   6.947   9.252  0.00  0.00    -0.200 F 
ENDBRANCH  25  26
ENDBRANCH  23  25
ENDBRANCH  17  19
ENDBRANCH   2  15
TORSDOF 5
