REMARK  Name = ZINCpe00000gNbEA.0
REMARK                            x       y       z     vdW  Elec       q    Type
REMARK                         _______ _______ _______ _____ _____    ______ ____
ROOT
ATOM      1  C   LIG    1        2.221  -5.677   1.575  0.00  0.00    +0.520 C 
ATOM      2  N   LIG    1        1.777  -4.664   0.804  0.00  0.00    -0.620 N 
ATOM      3  C   LIG    1        2.639  -4.067  -0.228  0.00  0.00    +0.290 C 
ATOM      4  C   LIG    1        2.644  -2.547  -0.037  0.00  0.00    +0.200 C 
ATOM      5  N   LIG    1        1.260  -2.054  -0.021  0.00  0.00    -0.480 N 
ATOM      6  C   LIG    1        0.511  -2.605   1.116  0.00  0.00    +0.190 C 
ATOM      7  C   LIG    1        0.418  -4.127   0.973  0.00  0.00    +0.290 C 
ATOM      8  O   LIG    1        3.345  -6.107   1.423  0.00  0.00    -0.530 OA
ENDROOT
BRANCH   5   9
ATOM      9  C   LIG    1        1.226  -0.664  -0.013  0.00  0.00    +0.310 A 
ATOM     10  C   LIG    1        0.002  -0.004   0.002  0.00  0.00    -0.050 A 
ATOM     11  C   LIG    1       -0.017   1.379   0.010  0.00  0.00    +0.090 A 
ATOM     12  C   LIG    1        1.194   2.058   0.002  0.00  0.00    -0.060 A 
ATOM     13  C   LIG    1        2.373   1.339  -0.014  0.00  0.00    +0.290 A 
ATOM     14  N   LIG    1        2.361   0.020  -0.021  0.00  0.00    -0.520 NA
ENDBRANCH   5   9
BRANCH   1  15
ATOM     15  C   LIG    1        1.322  -6.274   2.627  0.00  0.00    +0.050 C 
BRANCH  15  16
ATOM     16  C   LIG    1        2.064  -7.397   3.354  0.00  0.00    +0.290 C 
BRANCH  16  19
ATOM     17  O   LIG    1        2.757  -9.420   4.995  0.00  0.00    -0.520 OA
ATOM     18  C   LIG    1        1.634  -8.990   5.147  0.00  0.00    +0.510 C 
ATOM     19  N   LIG    1        1.190  -7.978   4.376  0.00  0.00    -0.740 N 
ATOM     20  H   LIG    1        0.291  -7.633   4.498  0.00  0.00    +0.400 HD
BRANCH  18  21
ATOM     21  C   LIG    1        0.735  -9.587   6.199  0.00  0.00    +0.070 C 
BRANCH  21  22
ATOM     22  C   LIG    1        1.476 -10.710   6.926  0.00  0.00    +0.170 C 
ATOM     23  C   LIG    1        0.612 -11.244   8.085  0.00  0.00    +0.010 C 
ATOM     24  C   LIG    1        0.435 -12.748   7.765  0.00  0.00    +0.000 C 
ATOM     25  C   LIG    1        1.622 -13.018   6.807  0.00  0.00    +0.190 C 
ATOM     26  O   LIG    1        1.708 -11.806   6.026  0.00  0.00    -0.360 OA
ENDBRANCH  21  22
ENDBRANCH  18  21
ENDBRANCH  16  19
ENDBRANCH  15  16
ENDBRANCH   1  15
TORSDOF 6
