REMARK  Name = ZINCpe000000X0pI.0
REMARK                            x       y       z     vdW  Elec       q    Type
REMARK                         _______ _______ _______ _____ _____    ______ ____
ROOT
ATOM      1  N   LIG    1        0.165   3.310   4.342  0.00  0.00    -0.560 N 
ATOM      2  C   LIG    1        0.824   2.665   5.311  0.00  0.00    +0.710 C 
ATOM      3  N   LIG    1        1.632   3.479   6.014  0.00  0.00    -0.720 N 
ATOM      4  H   LIG    1        2.203   3.229   6.756  0.00  0.00    +0.440 HD
ATOM      5  C   LIG    1        1.476   4.827   5.439  0.00  0.00    +0.170 C 
ATOM      6  C   LIG    1        0.927   5.801   6.483  0.00  0.00    +0.110 C 
ATOM      7  O   LIG    1        0.709   1.475   5.529  0.00  0.00    -0.530 OA
ATOM      8  C   LIG    1        0.472   4.622   4.321  0.00  0.00    +0.540 C 
ATOM      9  O   LIG    1        0.036   5.464   3.565  0.00  0.00    -0.440 OA
ENDROOT
BRANCH   5  10
ATOM     10  C   LIG    1        2.787   5.324   4.889  0.00  0.00    -0.140 A 
ATOM     11  C   LIG    1        3.940   4.586   5.077  0.00  0.00    +0.060 A 
ATOM     12  C   LIG    1        5.144   5.043   4.573  0.00  0.00    +0.010 A 
ATOM     13  C   LIG    1        5.196   6.238   3.880  0.00  0.00    +0.060 A 
ATOM     14  C   LIG    1        4.044   6.977   3.690  0.00  0.00    -0.010 A 
ATOM     15  C   LIG    1        2.837   6.518   4.189  0.00  0.00    +0.120 A 
ATOM     16  F   LIG    1        1.709   7.238   3.999  0.00  0.00    -0.120 F 
ENDBRANCH   5  10
BRANCH   1  17
ATOM     17  C   LIG    1       -0.779   2.671   3.422  0.00  0.00    +0.360 C 
BRANCH  17  24
ATOM     18  C   LIG    1       -0.176   0.960  -2.485  0.00  0.00    +0.080 C 
ATOM     19  C   LIG    1       -0.764   1.599  -1.226  0.00  0.00    +0.130 C 
ATOM     20  C   LIG    1       -0.013   1.086   0.008  0.00  0.00    +0.260 C 
ATOM     21  N   LIG    1       -0.712   1.565   1.211  0.00  0.00    -0.610 N 
ATOM     22  C   LIG    1       -2.164   1.344   1.301  0.00  0.00    +0.250 C 
ATOM     23  C   LIG    1       -2.811   1.844   0.004  0.00  0.00    +0.220 C 
ATOM     24  C   LIG    1       -0.042   2.189   2.200  0.00  0.00    +0.510 C 
ATOM     25  O   LIG    1        1.155   2.362   2.107  0.00  0.00    -0.520 OA
ATOM     26  O   LIG    1       -2.146   1.250  -1.113  0.00  0.00    -0.370 OA
ENDBRANCH  17  24
ENDBRANCH   1  17
TORSDOF 3
