REMARK  Name = ZINCrD0000074tOo.0
REMARK                            x       y       z     vdW  Elec       q    Type
REMARK                         _______ _______ _______ _____ _____    ______ ____
ROOT
ATOM      1  N   LIG    1       -2.690   1.918   6.127  0.00  0.00    -0.730 N 
ATOM      2  H   LIG    1       -2.421   1.026   5.855  0.00  0.00    +0.400 HD
ATOM      3  C   LIG    1       -3.728   2.080   6.972  0.00  0.00    +0.520 C 
ATOM      4  O   LIG    1       -4.064   3.195   7.312  0.00  0.00    -0.530 OA
ENDROOT
BRANCH   3   5
ATOM      5  C   LIG    1       -4.471   0.877   7.493  0.00  0.00    -0.010 C 
ATOM      6  C   LIG    1       -5.067   0.098   6.319  0.00  0.00    +0.020 C 
ATOM      7  C   LIG    1       -5.792  -1.143   6.851  0.00  0.00    +0.270 C 
ATOM      8  N   LIG    1       -6.776  -0.721   7.856  0.00  0.00    -0.610 N 
ATOM      9  C   LIG    1       -6.325   0.110   8.981  0.00  0.00    +0.280 C 
ATOM     10  C   LIG    1       -8.068  -1.089   7.749  0.00  0.00    +0.550 C 
ATOM     11  O   LIG    1       -8.871  -0.733   8.586  0.00  0.00    -0.540 OA
ATOM     12  C   LIG    1       -5.594   1.337   8.426  0.00  0.00    +0.060 C 
BRANCH  10  13
ATOM     13  C   LIG    1       -8.515  -1.941   6.590  0.00  0.00    -0.080 C 
ATOM     14  C   LIG    1       -9.426  -1.293   5.546  0.00  0.00    +0.060 C 
ATOM     15  C   LIG    1       -9.995  -2.324   6.524  0.00  0.00    +0.060 C 
ENDBRANCH  10  13
ENDBRANCH   3   5
BRANCH   1  16
ATOM     16  C   LIG    1       -1.968   3.087   5.620  0.00  0.00    +0.310 C 
BRANCH  16  20
ATOM     17  C   LIG    1        2.873   2.086   4.854  0.00  0.00    +0.090 C 
ATOM     18  C   LIG    1        1.463   2.152   4.328  0.00  0.00    -0.110 A 
ATOM     19  C   LIG    1        0.435   2.567   5.163  0.00  0.00    +0.060 A 
ATOM     20  C   LIG    1       -0.862   2.635   4.702  0.00  0.00    -0.120 A 
ATOM     21  C   LIG    1       -1.146   2.284   3.386  0.00  0.00    +0.110 A 
ATOM     22  N   LIG    1       -2.306   2.246   2.645  0.00  0.00    -0.590 N 
ATOM     23  H   LIG    1       -3.186   2.486   2.975  0.00  0.00    +0.410 HD
ATOM     24  C   LIG    1       -2.030   1.825   1.373  0.00  0.00    +0.080 A 
ATOM     25  C   LIG    1       -0.718   1.572   1.248  0.00  0.00    -0.170 A 
ATOM     26  C   LIG    1       -0.013   1.086   0.008  0.00  0.00    +0.100 C 
ATOM     27  C   LIG    1       -3.050   1.665   0.275  0.00  0.00    +0.140 C 
ATOM     28  C   LIG    1       -0.101   1.864   2.544  0.00  0.00    -0.100 A 
ATOM     29  C   LIG    1        1.206   1.802   3.032  0.00  0.00    +0.060 A 
ENDBRANCH  16  20
ENDBRANCH   1  16
TORSDOF 4
