REMARK  Name = ZINCvU0000000JK5.0
REMARK                            x       y       z     vdW  Elec       q    Type
REMARK                         _______ _______ _______ _____ _____    ______ ____
ROOT
ATOM      1  C   LIG    1        1.127   1.917   0.001  0.00  0.00    +0.060 A 
ATOM      2  N   LIG    1       -0.015   1.316   0.002  0.00  0.00    -0.450 NA
ATOM      3  C   LIG    1        0.000  -0.001  -0.005  0.00  0.00    +0.080 A 
ATOM      4  C   LIG    1        1.222  -0.542  -0.010  0.00  0.00    -0.050 A 
ATOM      5  S   LIG    1        2.396   0.771  -0.007  0.00  0.00    +0.160 S 
ENDROOT
BRANCH   1   6
ATOM      6  C   LIG    1        1.315   3.413   0.008  0.00  0.00    +0.190 C 
BRANCH   6   9
ATOM      7  N   LIG    1        1.548   5.218   1.683  0.00  0.00    -0.670 N 
ATOM      8  H   LIG    1        1.691   5.838   0.950  0.00  0.00    +0.410 HD
ATOM      9  C   LIG    1        1.382   3.904   1.431  0.00  0.00    +0.520 C 
ATOM     10  O   LIG    1        1.286   3.118   2.349  0.00  0.00    -0.500 OA
BRANCH   7  15
ATOM     11  C   LIG    1        1.405   7.122   7.025  0.00  0.00    +0.090 C 
ATOM     12  C   LIG    1        1.443   6.616   5.606  0.00  0.00    -0.100 A 
ATOM     13  C   LIG    1        1.986   5.375   5.330  0.00  0.00    +0.030 A 
ATOM     14  C   LIG    1        2.023   4.909   4.030  0.00  0.00    +0.030 A 
ATOM     15  C   LIG    1        1.512   5.688   3.000  0.00  0.00    +0.130 A 
ATOM     16  C   LIG    1        0.972   6.936   3.280  0.00  0.00    -0.010 A 
ATOM     17  C   LIG    1        0.933   7.394   4.582  0.00  0.00    +0.030 A 
ENDBRANCH   7  15
ENDBRANCH   6   9
ENDBRANCH   1   6
BRANCH   3  18
ATOM     18  C   LIG    1       -1.258  -0.830  -0.006  0.00  0.00    +0.210 C 
BRANCH  18  19
ATOM     19  S   LIG    1       -1.766  -1.154  -1.713  0.00  0.00    +0.030 S 
BRANCH  19  20
ATOM     20  C   LIG    1       -3.217  -2.111  -1.425  0.00  0.00    +0.160 A 
ATOM     21  N   LIG    1       -3.713  -2.445  -0.256  0.00  0.00    -0.290 NA
ATOM     22  N   LIG    1       -4.778  -3.146  -0.416  0.00  0.00    -0.280 NA
ATOM     23  C   LIG    1       -5.026  -3.302  -1.685  0.00  0.00    +0.200 A 
ATOM     24  C   LIG    1       -6.183  -4.060  -2.283  0.00  0.00    +0.200 C 
ATOM     25  N   LIG    1       -4.043  -2.643  -2.376  0.00  0.00    -0.420 N 
BRANCH  25  26
ATOM     26  C   LIG    1       -3.910  -2.539  -3.768  0.00  0.00    +0.110 A 
ATOM     27  C   LIG    1       -3.668  -3.673  -4.531  0.00  0.00    +0.020 A 
ATOM     28  C   LIG    1       -3.538  -3.567  -5.902  0.00  0.00    +0.040 A 
ATOM     29  C   LIG    1       -3.648  -2.332  -6.515  0.00  0.00    +0.030 A 
ATOM     30  C   LIG    1       -3.890  -1.201  -5.758  0.00  0.00    -0.070 A 
ATOM     31  C   LIG    1       -4.011   0.143  -6.429  0.00  0.00    +0.100 C 
ATOM     32  C   LIG    1       -4.027  -1.301  -4.387  0.00  0.00    +0.030 A 
ENDBRANCH  25  26
ENDBRANCH  19  20
ENDBRANCH  18  19
ENDBRANCH   3  18
TORSDOF 7
