REMARK  Name = ZINCrH000004r3iq.0
REMARK                            x       y       z     vdW  Elec       q    Type
REMARK                         _______ _______ _______ _____ _____    ______ ____
ROOT
ATOM      1  C   LIG    1        1.147   1.655   0.000  0.00  0.00    +0.520 C 
ATOM      2  N   LIG    1       -0.011   0.966   0.007  0.00  0.00    -0.710 N 
ATOM      3  H   LIG    1        0.002  -0.004   0.002  0.00  0.00    +0.410 HD
ATOM      4  O   LIG    1        1.130   2.868   0.007  0.00  0.00    -0.540 OA
ENDROOT
BRANCH   1   5
ATOM      5  C   LIG    1        2.462   0.920  -0.017  0.00  0.00    +0.080 C 
BRANCH   5   6
ATOM      6  C   LIG    1        3.611   1.930  -0.022  0.00  0.00    +0.070 C 
BRANCH   6   7
ATOM      7  C   LIG    1        4.926   1.194  -0.039  0.00  0.00    +0.430 C 
ATOM      8  O   LIG    1        4.943  -0.020  -0.045  0.00  0.00    -0.450 OA
BRANCH   7  13
ATOM      9  C   LIG    1        8.908   4.770  -0.056  0.00  0.00    +0.140 C 
ATOM     10  C   LIG    1        7.987   3.576  -0.054  0.00  0.00    -0.180 A 
ATOM     11  C   LIG    1        8.399   2.301  -0.065  0.00  0.00    -0.020 A 
ATOM     12  C   LIG    1        7.396   1.365  -0.056  0.00  0.00    +0.120 A 
ATOM     13  C   LIG    1        6.140   1.917  -0.046  0.00  0.00    -0.320 A 
ATOM     14  S   LIG    1        6.284   3.669  -0.038  0.00  0.00    +0.230 S 
ENDBRANCH   7  13
ENDBRANCH   6   7
ENDBRANCH   5   6
ENDBRANCH   1   5
BRANCH   2  15
ATOM     15  C   LIG    1       -1.290   1.681   0.017  0.00  0.00    +0.390 C 
BRANCH  15  16
ATOM     16  C   LIG    1       -2.354   0.799   0.618  0.00  0.00    -0.070 A 
ATOM     17  C   LIG    1       -2.387  -0.549   0.313  0.00  0.00    +0.040 A 
ATOM     18  C   LIG    1       -3.360  -1.360   0.868  0.00  0.00    +0.060 A 
ATOM     19  C   LIG    1       -4.307  -0.822   1.718  0.00  0.00    -0.010 A 
ATOM     20  C   LIG    1       -4.277   0.529   2.020  0.00  0.00    +0.100 A 
ATOM     21  F   LIG    1       -5.202   1.056   2.853  0.00  0.00    -0.140 F 
ATOM     22  C   LIG    1       -3.300   1.339   1.469  0.00  0.00    +0.000 A 
ENDBRANCH  15  16
BRANCH  15  23
ATOM     23  C   LIG    1       -1.674   2.042  -1.394  0.00  0.00    +0.190 A 
ATOM     24  N   LIG    1       -1.607   1.248  -2.428  0.00  0.00    -0.470 NA
ATOM     25  C   LIG    1       -2.029   1.905  -3.518  0.00  0.00    +0.140 A 
ATOM     26  C   LIG    1       -2.370   3.153  -3.147  0.00  0.00    +0.130 A 
ATOM     27  N   LIG    1       -2.151   3.239  -1.799  0.00  0.00    -0.450 N 
ATOM     28  C   LIG    1       -2.385   4.412  -0.953  0.00  0.00    +0.320 C 
ENDBRANCH  15  23
ENDBRANCH   2  15
TORSDOF 7
