REMARK  Name = ZINCpk00001AZiEc.0
REMARK                            x       y       z     vdW  Elec       q    Type
REMARK                         _______ _______ _______ _____ _____    ______ ____
ROOT
ATOM      1  C   LIG    1        2.510   1.161  -0.016  0.00  0.00    +0.350 C 
ENDROOT
BRANCH   1   2
ATOM      2  C   LIG    1        1.208   1.919   0.001  0.00  0.00    -0.210 A 
ATOM      3  C   LIG    1        1.215   3.275   0.008  0.00  0.00    +0.170 A 
ATOM      4  C   LIG    1       -0.067   3.982   0.024  0.00  0.00    -0.150 A 
ATOM      5  C   LIG    1       -0.122   5.379   0.032  0.00  0.00    +0.130 A 
ATOM      6  C   LIG    1       -1.333   6.009   0.046  0.00  0.00    -0.030 A 
ATOM      7  C   LIG    1       -2.513   5.273   0.054  0.00  0.00    +0.160 A 
ATOM      8  C   LIG    1       -2.481   3.892   0.046  0.00  0.00    -0.060 A 
ATOM      9  F   LIG    1       -3.702   5.915   0.069  0.00  0.00    -0.130 F 
ATOM     10  C   LIG    1       -1.259   3.231   0.031  0.00  0.00    +0.220 A 
ATOM     11  N   LIG    1       -1.197   1.854   0.018  0.00  0.00    -0.630 N 
ATOM     12  H   LIG    1       -2.019   1.339   0.019  0.00  0.00    +0.420 HD
ATOM     13  C   LIG    1       -0.015   1.215   0.009  0.00  0.00    +0.540 A 
ATOM     14  O   LIG    1        0.002  -0.004   0.002  0.00  0.00    -0.520 OA
ENDBRANCH   1   2
BRANCH   1  16
ATOM     15  C   LIG    1        4.022   0.118   1.585  0.00  0.00    +0.510 C 
ATOM     16  N   LIG    1        2.885   0.804   1.354  0.00  0.00    -0.720 N 
ATOM     17  H   LIG    1        2.315   1.061   2.096  0.00  0.00    +0.400 HD
ATOM     18  O   LIG    1        4.735  -0.204   0.657  0.00  0.00    -0.520 OA
BRANCH  15  24
ATOM     19  C   LIG    1        6.856   0.231   2.746  0.00  0.00    +0.570 C 
ATOM     20  N   LIG    1        5.836  -0.596   3.048  0.00  0.00    -0.600 N 
ATOM     21  C   LIG    1        5.966  -1.998   3.485  0.00  0.00    +0.250 C 
ATOM     22  C   LIG    1        4.664  -2.291   4.271  0.00  0.00    +0.040 C 
ATOM     23  C   LIG    1        3.617  -1.495   3.447  0.00  0.00    +0.050 C 
ATOM     24  C   LIG    1        4.408  -0.250   2.994  0.00  0.00    +0.220 C 
ATOM     25  O   LIG    1        6.630   1.373   2.394  0.00  0.00    -0.540 OA
BRANCH  19  27
ATOM     26  C   LIG    1        9.251   0.568   2.546  0.00  0.00    +0.140 C 
ATOM     27  C   LIG    1        8.244  -0.248   2.843  0.00  0.00    -0.080 C 
ENDBRANCH  19  27
ENDBRANCH  15  24
ENDBRANCH   1  16
TORSDOF 4
