REMARK  Name = ZINCrH000004v6K4.0
REMARK                            x       y       z     vdW  Elec       q    Type
REMARK                         _______ _______ _______ _____ _____    ______ ____
ROOT
ATOM      1  C   LIG    1       -1.170   8.596  -0.774  0.00  0.00    +0.120 A 
ATOM      2  C   LIG    1       -1.848   7.746  -1.638  0.00  0.00    +0.010 A 
ATOM      3  C   LIG    1       -1.524   6.405  -1.681  0.00  0.00    +0.010 A 
ATOM      4  C   LIG    1       -0.521   5.905  -0.860  0.00  0.00    +0.100 A 
ATOM      5  C   LIG    1        0.152   6.755   0.008  0.00  0.00    -0.020 A 
ATOM      6  C   LIG    1       -0.167   8.097   0.047  0.00  0.00    +0.050 A 
ENDROOT
BRANCH   4   7
ATOM      7  N   LIG    1       -0.194   4.546  -0.904  0.00  0.00    -0.490 N 
ATOM      8  C   LIG    1        0.888   4.234   0.041  0.00  0.00    +0.200 C 
ATOM      9  C   LIG    1        1.270   2.758  -0.094  0.00  0.00    +0.190 C 
ATOM     10  N   LIG    1        0.089   1.923   0.168  0.00  0.00    -0.540 NA
ATOM     11  C   LIG    1       -0.993   2.235  -0.777  0.00  0.00    +0.200 C 
ATOM     12  C   LIG    1       -1.375   3.711  -0.642  0.00  0.00    +0.210 C 
BRANCH  10  13
ATOM     13  C   LIG    1        0.433   0.496   0.122  0.00  0.00    +0.220 C 
BRANCH  13  14
ATOM     14  C   LIG    1        1.150   0.102   1.415  0.00  0.00    +0.460 C 
ATOM     15  F   LIG    1        2.382   0.761   1.484  0.00  0.00    -0.180 F 
ATOM     16  F   LIG    1        1.359  -1.281   1.430  0.00  0.00    -0.180 F 
ATOM     17  F   LIG    1        0.364   0.467   2.513  0.00  0.00    -0.170 F 
ENDBRANCH  13  14
ENDBRANCH  10  13
ENDBRANCH   4   7
BRANCH   1  20
ATOM     18  O   LIG    1        0.605  10.521  -0.290  0.00  0.00    -0.510 OA
ATOM     19  C   LIG    1       -0.534  10.877  -0.523  0.00  0.00    +0.560 C 
ATOM     20  N   LIG    1       -1.498   9.957  -0.730  0.00  0.00    -0.670 N 
ATOM     21  H   LIG    1       -2.419  10.238  -0.848  0.00  0.00    +0.410 HD
BRANCH  19  22
ATOM     22  C   LIG    1       -0.862  12.316  -0.580  0.00  0.00    -0.150 A 
ATOM     23  C   LIG    1       -2.168  12.727  -0.854  0.00  0.00    +0.080 A 
ATOM     24  C   LIG    1       -2.469  14.071  -0.902  0.00  0.00    -0.010 A 
ATOM     25  C   LIG    1       -1.476  15.014  -0.689  0.00  0.00    +0.130 A 
ATOM     26  C   LIG    1       -0.176  14.612  -0.421  0.00  0.00    -0.010 A 
ATOM     27  F   LIG    1       -1.776  16.331  -0.742  0.00  0.00    -0.130 F 
ATOM     28  C   LIG    1        0.135  13.270  -0.366  0.00  0.00    +0.120 A 
ENDBRANCH  19  22
ENDBRANCH   1  20
TORSDOF 5
