REMARK  Name = ZINCrH000004rTf0.0
REMARK                            x       y       z     vdW  Elec       q    Type
REMARK                         _______ _______ _______ _____ _____    ______ ____
ROOT
ATOM      1  N   LIG    1       -0.018   1.461   0.010  0.00  0.00    -0.730 N 
ATOM      2  H   LIG    1       -0.864   1.934   0.017  0.00  0.00    +0.400 HD
ATOM      3  C   LIG    1        1.140   2.151   0.003  0.00  0.00    +0.630 C 
ATOM      4  O   LIG    1        2.201   1.557  -0.011  0.00  0.00    -0.540 OA
ENDROOT
BRANCH   3   5
ATOM      5  C   LIG    1        1.120   3.623   0.011  0.00  0.00    -0.590 A 
ATOM      6  C   LIG    1        1.099   4.450  -1.068  0.00  0.00    +0.260 A 
ATOM      7  O   LIG    1        1.085   5.721  -0.650  0.00  0.00    -0.280 OA
ATOM      8  C   LIG    1        1.097   5.794   0.689  0.00  0.00    +0.530 A 
ATOM      9  C   LIG    1        1.091   4.005  -2.508  0.00  0.00    +0.240 C 
ATOM     10  C   LIG    1        1.113   4.510   1.195  0.00  0.00    -0.330 A 
BRANCH   8  11
ATOM     11  N   LIG    1        1.089   6.963   1.438  0.00  0.00    -0.400 N 
ATOM     12  C   LIG    1        1.095   7.035   2.803  0.00  0.00    +0.160 A 
ATOM     13  C   LIG    1        1.086   8.336   3.156  0.00  0.00    +0.040 A 
ATOM     14  C   LIG    1        1.065   9.097   1.969  0.00  0.00    +0.020 A 
ATOM     15  C   LIG    1        1.067   8.234   0.934  0.00  0.00    +0.190 A 
ENDBRANCH   8  11
BRANCH  10  16
ATOM     16  C   LIG    1        1.123   4.120   2.573  0.00  0.00    +0.390 C 
ATOM     17  N   LIG    1        1.131   3.811   3.666  0.00  0.00    -0.230 NA
ENDBRANCH  10  16
ENDBRANCH   3   5
BRANCH   1  18
ATOM     18  C   LIG    1        0.002  -0.004   0.002  0.00  0.00    +0.260 C 
BRANCH  18  19
ATOM     19  C   LIG    1       -1.433  -0.534   0.013  0.00  0.00    +0.030 C 
BRANCH  19  20
ATOM     20  C   LIG    1       -1.413  -2.063   0.004  0.00  0.00    +0.200 C 
BRANCH  20  21
ATOM     21  O   LIG    1       -2.753  -2.558   0.015  0.00  0.00    -0.320 OA
BRANCH  21  27
ATOM     22  C   LIG    1       -5.730  -6.426   0.022  0.00  0.00    +0.090 C 
ATOM     23  C   LIG    1       -4.347  -5.829   0.012  0.00  0.00    -0.050 A 
ATOM     24  C   LIG    1       -3.238  -6.655  -0.003  0.00  0.00    -0.040 A 
ATOM     25  C   LIG    1       -1.967  -6.110  -0.011  0.00  0.00    +0.050 A 
ATOM     26  C   LIG    1       -1.802  -4.739  -0.012  0.00  0.00    -0.090 A 
ATOM     27  C   LIG    1       -2.913  -3.908   0.009  0.00  0.00    +0.130 A 
ATOM     28  C   LIG    1       -4.187  -4.457   0.018  0.00  0.00    -0.020 A 
ENDBRANCH  21  27
ENDBRANCH  20  21
ENDBRANCH  19  20
ENDBRANCH  18  19
ENDBRANCH   1  18
TORSDOF 8
