REMARK  Name = ZINCqH00000509hf.0
REMARK                            x       y       z     vdW  Elec       q    Type
REMARK                         _______ _______ _______ _____ _____    ______ ____
ROOT
ATOM      1  O   LIG    1       -0.016   1.338   0.009  0.00  0.00    -0.330 OA
ENDROOT
BRANCH   1   2
ATOM      2  C   LIG    1        0.002  -0.004   0.002  0.00  0.00    +0.470 C 
ATOM      3  O   LIG    1        1.056  -0.594  -0.011  0.00  0.00    -0.480 OA
BRANCH   2   4
ATOM      4  C   LIG    1       -1.293  -0.775   0.010  0.00  0.00    +0.270 C 
BRANCH   4   5
ATOM      5  O   LIG    1       -1.012  -2.176   0.000  0.00  0.00    -0.310 OA
BRANCH   5  10
ATOM      6  C   LIG    1       -5.432  -5.668   0.024  0.00  0.00    +0.090 C 
ATOM      7  C   LIG    1       -4.250  -4.734   0.017  0.00  0.00    -0.070 A 
ATOM      8  C   LIG    1       -3.720  -4.300  -1.184  0.00  0.00    +0.010 A 
ATOM      9  C   LIG    1       -2.636  -3.443  -1.192  0.00  0.00    -0.090 A 
ATOM     10  C   LIG    1       -2.079  -3.019   0.006  0.00  0.00    +0.080 A 
ATOM     11  C   LIG    1       -2.609  -3.461   1.209  0.00  0.00    -0.090 A 
ATOM     12  C   LIG    1       -2.003  -3.007   2.512  0.00  0.00    +0.090 C 
ATOM     13  C   LIG    1       -2.058  -2.970  -2.501  0.00  0.00    +0.100 C 
ATOM     14  C   LIG    1       -3.697  -4.312   1.212  0.00  0.00    +0.010 A 
ENDBRANCH   5  10
ENDBRANCH   4   5
ENDBRANCH   2   4
ENDBRANCH   1   2
BRANCH   1  15
ATOM     15  C   LIG    1        1.268   2.015   0.001  0.00  0.00    +0.250 C 
BRANCH  15  16
ATOM     16  C   LIG    1        1.051   3.506   0.011  0.00  0.00    +0.520 C 
ATOM     17  N   LIG    1        2.108   4.341   0.005  0.00  0.00    -0.720 N 
ATOM     18  H   LIG    1        3.010   3.983  -0.005  0.00  0.00    +0.400 HD
ATOM     19  O   LIG    1       -0.076   3.954   0.024  0.00  0.00    -0.510 OA
BRANCH  17  20
ATOM     20  C   LIG    1        1.897   5.791   0.015  0.00  0.00    +0.240 C 
ATOM     21  C   LIG    1        1.685   6.285  -1.417  0.00  0.00    +0.000 C 
ATOM     22  C   LIG    1        1.079   7.690  -1.388  0.00  0.00    +0.010 C 
ATOM     23  C   LIG    1       -0.036   7.743  -0.342  0.00  0.00    +0.010 C 
ATOM     24  C   LIG    1        0.385   8.663   0.806  0.00  0.00    +0.000 C 
ATOM     25  C   LIG    1        1.401   7.940   1.692  0.00  0.00    +0.000 C 
ATOM     26  C   LIG    1        2.763   7.920   0.995  0.00  0.00    +0.030 C 
ATOM     27  C   LIG    1        3.123   6.481   0.617  0.00  0.00    +0.010 C 
ENDBRANCH  17  20
ENDBRANCH  15  16
ENDBRANCH   1  15
TORSDOF 7
