REMARK  Name = ZINCvU0000000GYY.0
REMARK                            x       y       z     vdW  Elec       q    Type
REMARK                         _______ _______ _______ _____ _____    ______ ____
ROOT
ATOM      1  C   LIG    1        1.964  -1.759  -0.026  0.00  0.00    +0.270 C 
ATOM      2  N   LIG    1        1.116  -2.728  -0.023  0.00  0.00    -0.260 NA
ATOM      3  N   LIG    1        1.500  -4.065  -0.091  0.00  0.00    -0.330 N 
ATOM      4  C   LIG    1        2.732  -4.465  -0.557  0.00  0.00    +0.100 A 
ATOM      5  S   LIG    1        3.945  -3.304  -1.096  0.00  0.00    +0.080 S 
ATOM      6  N   LIG    1        2.769  -5.761  -0.507  0.00  0.00    -0.230 NA
ATOM      7  N   LIG    1        1.646  -6.205  -0.051  0.00  0.00    -0.260 NA
ATOM      8  C   LIG    1        0.839  -5.209   0.213  0.00  0.00    +0.240 A 
ATOM      9  C   LIG    1        3.457  -1.910  -0.047  0.00  0.00    +0.100 C 
ENDROOT
BRANCH   1  15
ATOM     10  C   LIG    1       -1.238   2.066   0.030  0.00  0.00    -0.080 A 
ATOM     11  C   LIG    1       -0.017   1.401   0.010  0.00  0.00    +0.090 A 
ATOM     12  N   LIG    1        1.293   1.832  -0.000  0.00  0.00    -0.570 N 
ATOM     13  H   LIG    1        1.570   2.761   0.002  0.00  0.00    +0.420 HD
ATOM     14  C   LIG    1        2.141   0.767  -0.014  0.00  0.00    +0.310 A 
ATOM     15  C   LIG    1        1.424  -0.391  -0.014  0.00  0.00    -0.160 A 
ATOM     16  C   LIG    1        0.002  -0.004   0.002  0.00  0.00    -0.060 A 
ATOM     17  C   LIG    1       -1.194  -0.718   0.010  0.00  0.00    +0.060 A 
ATOM     18  C   LIG    1       -2.393  -0.041   0.025  0.00  0.00    +0.000 A 
ATOM     19  C   LIG    1       -2.413   1.347   0.033  0.00  0.00    +0.030 A 
BRANCH  10  21
ATOM     20  C   LIG    1       -1.183   4.094  -1.396  0.00  0.00    +0.020 C 
ATOM     21  C   LIG    1       -1.276   3.573   0.039  0.00  0.00    +0.050 C 
ENDBRANCH  10  21
ENDBRANCH   1  15
BRANCH   9  22
ATOM     22  C   LIG    1        3.952  -2.151   1.355  0.00  0.00    -0.090 A 
ATOM     23  C   LIG    1        3.507  -3.251   2.066  0.00  0.00    +0.000 A 
ATOM     24  C   LIG    1        3.965  -3.475   3.351  0.00  0.00    +0.020 A 
ATOM     25  C   LIG    1        4.860  -2.594   3.929  0.00  0.00    +0.020 A 
ATOM     26  C   LIG    1        5.301  -1.492   3.221  0.00  0.00    +0.020 A 
ATOM     27  C   LIG    1        4.847  -1.271   1.934  0.00  0.00    +0.030 A 
ENDBRANCH   9  22
BRANCH   8  28
ATOM     28  C   LIG    1       -0.564  -5.314   0.753  0.00  0.00    +0.270 C 
ATOM     29  C   LIG    1       -1.520  -5.783  -0.361  0.00  0.00    +0.030 C 
ATOM     30  C   LIG    1       -2.138  -7.090   0.195  0.00  0.00    +0.020 C 
ATOM     31  C   LIG    1       -1.905  -6.936   1.719  0.00  0.00    +0.220 C 
ATOM     32  O   LIG    1       -0.612  -6.298   1.800  0.00  0.00    -0.360 OA
ENDBRANCH   8  28
TORSDOF 4
