REMARK  Name = ZINCpk00000e9W4U.0
REMARK                            x       y       z     vdW  Elec       q    Type
REMARK                         _______ _______ _______ _____ _____    ______ ____
ROOT
ATOM      1  C   LIG    1        3.711  -0.707  -0.039  0.00  0.00    -0.000 C 
ATOM      2  C   LIG    1        3.816  -1.593   1.204  0.00  0.00    +0.070 C 
ATOM      3  C   LIG    1        5.139  -2.366   1.165  0.00  0.00    +0.270 C 
ATOM      4  N   LIG    1        6.242  -1.407   1.013  0.00  0.00    -0.610 N 
ATOM      5  C   LIG    1        6.195  -0.447  -0.099  0.00  0.00    +0.300 C 
ATOM      6  C   LIG    1        7.277  -1.408   1.876  0.00  0.00    +0.520 C 
ATOM      7  O   LIG    1        8.181  -0.612   1.740  0.00  0.00    -0.540 OA
ATOM      8  C   LIG    1        4.861   0.303  -0.046  0.00  0.00    +0.060 C 
ENDROOT
BRANCH   1   9
ATOM      9  C   LIG    1        2.396   0.029  -0.022  0.00  0.00    -0.090 A 
ATOM     10  C   LIG    1        1.208  -0.679  -0.014  0.00  0.00    +0.030 A 
ATOM     11  C   LIG    1        0.002  -0.004   0.002  0.00  0.00    +0.010 A 
ATOM     12  C   LIG    1       -0.017   1.378   0.010  0.00  0.00    +0.010 A 
ATOM     13  C   LIG    1        1.171   2.086   0.002  0.00  0.00    +0.010 A 
ATOM     14  C   LIG    1        2.377   1.411  -0.014  0.00  0.00    +0.020 A 
ENDBRANCH   1   9
BRANCH   1  15
ATOM     15  C   LIG    1        3.790  -1.565  -1.276  0.00  0.00    +0.470 C 
ATOM     16  O   LIG    1        4.675  -1.387  -2.079  0.00  0.00    -0.490 OA
BRANCH  15  18
ATOM     17  C   LIG    1        3.015  -3.315  -2.696  0.00  0.00    +0.250 C 
ATOM     18  O   LIG    1        2.877  -2.527  -1.484  0.00  0.00    -0.350 OA
ENDBRANCH  15  18
ENDBRANCH   1  15
BRANCH   6  19
ATOM     19  C   LIG    1        7.310  -2.399   3.011  0.00  0.00    +0.060 C 
BRANCH  19  20
ATOM     20  C   LIG    1        8.582  -2.188   3.835  0.00  0.00    +0.360 C 
BRANCH  20  21
ATOM     21  N   LIG    1        8.614  -3.151   4.938  0.00  0.00    -0.380 N 
ATOM     22  C   LIG    1        9.598  -4.025   5.216  0.00  0.00    +0.480 A 
ATOM     23  N   LIG    1        9.249  -4.704   6.279  0.00  0.00    -0.550 NA
ATOM     24  C   LIG    1        8.052  -4.299   6.701  0.00  0.00    +0.420 A 
ATOM     25  N   LIG    1        7.622  -3.350   5.912  0.00  0.00    -0.320 NA
ENDBRANCH  20  21
ENDBRANCH  19  20
ENDBRANCH   6  19
TORSDOF 6
