REMARK  Name = ZINCvU0000000IrP.0
REMARK                            x       y       z     vdW  Elec       q    Type
REMARK                         _______ _______ _______ _____ _____    ______ ____
ROOT
ATOM      1  C   LIG    1        0.877  -4.701  -0.260  0.00  0.00    +0.100 C 
ENDROOT
BRANCH   1   3
ATOM      2  N   LIG    1        1.435  -7.102  -0.059  0.00  0.00    -0.590 N 
ATOM      3  C   LIG    1        1.229  -6.038  -0.860  0.00  0.00    +0.540 C 
ATOM      4  O   LIG    1        1.327  -6.156  -2.063  0.00  0.00    -0.530 OA
ATOM      5  C   LIG    1        1.317  -6.960   1.394  0.00  0.00    +0.300 C 
BRANCH   2   7
ATOM      6  C   LIG    1        0.713  -9.431  -0.255  0.00  0.00    +0.070 C 
ATOM      7  C   LIG    1        1.777  -8.402  -0.642  0.00  0.00    +0.340 C 
BRANCH   7   8
ATOM      8  C   LIG    1        3.120  -8.848  -0.122  0.00  0.00    +0.070 A 
ATOM      9  N   LIG    1        3.477  -8.776   1.104  0.00  0.00    -0.450 NA
ATOM     10  C   LIG    1        4.707  -9.216   1.428  0.00  0.00    +0.080 A 
ATOM     11  C   LIG    1        5.347  -9.257   2.683  0.00  0.00    +0.080 A 
ATOM     12  C   LIG    1        6.615  -9.742   2.795  0.00  0.00    +0.030 A 
ATOM     13  C   LIG    1        7.300 -10.204   1.680  0.00  0.00    +0.040 A 
ATOM     14  C   LIG    1        6.700 -10.176   0.441  0.00  0.00    +0.060 A 
ATOM     15  C   LIG    1        5.404  -9.683   0.307  0.00  0.00    -0.180 A 
ATOM     16  S   LIG    1        4.356  -9.506  -1.097  0.00  0.00    +0.120 S 
ENDBRANCH   7   8
ENDBRANCH   2   7
ENDBRANCH   1   3
BRANCH   1  17
ATOM     17  S   LIG    1        0.664  -3.483  -1.582  0.00  0.00    +0.090 S 
BRANCH  17  18
ATOM     18  C   LIG    1        0.271  -2.058  -0.625  0.00  0.00    +0.140 A 
ATOM     19  N   LIG    1        0.179  -1.996   0.683  0.00  0.00    -0.290 NA
ATOM     20  N   LIG    1       -0.125  -0.801   1.044  0.00  0.00    -0.270 NA
ATOM     21  C   LIG    1       -0.245  -0.035  -0.003  0.00  0.00    +0.200 A 
ATOM     22  N   LIG    1       -0.003  -0.808  -1.104  0.00  0.00    -0.430 N 
BRANCH  22  23
ATOM     23  C   LIG    1       -0.028  -0.385  -2.506  0.00  0.00    +0.200 C 
ATOM     24  C   LIG    1       -0.116  -1.478  -3.573  0.00  0.00    +0.070 C 
ATOM     25  C   LIG    1        1.194  -0.713  -3.366  0.00  0.00    +0.060 C 
ENDBRANCH  22  23
BRANCH  21  26
ATOM     26  C   LIG    1       -0.594   1.431  -0.001  0.00  0.00    +0.250 C 
BRANCH  26  27
ATOM     27  C   LIG    1        0.670   2.248   0.080  0.00  0.00    -0.190 A 
ATOM     28  C   LIG    1        1.378   2.676  -0.966  0.00  0.00    +0.010 A 
ATOM     29  C   LIG    1        2.504   3.414  -0.646  0.00  0.00    +0.000 A 
ATOM     30  C   LIG    1        2.716   3.578   0.660  0.00  0.00    -0.040 A 
ATOM     31  S   LIG    1        1.442   2.776   1.570  0.00  0.00    +0.130 S 
ENDBRANCH  26  27
ENDBRANCH  21  26
ENDBRANCH  17  18
ENDBRANCH   1  17
TORSDOF 8
