REMARK  Name = ZINCtV00000jXic7.0
REMARK                            x       y       z     vdW  Elec       q    Type
REMARK                         _______ _______ _______ _____ _____    ______ ____
ROOT
ATOM      1  O   LIG    1       -1.909   0.014   1.130  0.00  0.00    -0.490 OA
ATOM      2  C   LIG    1       -1.023  -0.633   0.608  0.00  0.00    +0.510 C 
ENDROOT
BRANCH   2   3
ATOM      3  C   LIG    1       -1.070  -2.112   0.640  0.00  0.00    -0.070 A 
ATOM      4  C   LIG    1       -2.122  -2.785   1.269  0.00  0.00    +0.080 A 
ATOM      5  C   LIG    1       -2.128  -4.167   1.269  0.00  0.00    +0.170 A 
ATOM      6  N   LIG    1       -1.156  -4.848   0.697  0.00  0.00    -0.410 NA
ATOM      7  C   LIG    1       -0.143  -4.254   0.098  0.00  0.00    +0.040 A 
ATOM      8  C   LIG    1       -0.059  -2.876   0.046  0.00  0.00    +0.090 A 
BRANCH   7   9
ATOM      9  C   LIG    1        0.938  -5.089  -0.537  0.00  0.00    +0.530 C 
ATOM     10  F   LIG    1        1.482  -4.398  -1.625  0.00  0.00    -0.170 F 
ATOM     11  F   LIG    1        0.394  -6.300  -0.979  0.00  0.00    -0.160 F 
ATOM     12  F   LIG    1        1.943  -5.344   0.402  0.00  0.00    -0.170 F 
ENDBRANCH   7   9
BRANCH   5  13
ATOM     13  C   LIG    1       -3.259  -4.904   1.938  0.00  0.00    +0.010 C 
ATOM     14  C   LIG    1       -4.145  -4.114   2.904  0.00  0.00    +0.040 C 
ATOM     15  C   LIG    1       -3.152  -5.144   3.446  0.00  0.00    +0.050 C 
ENDBRANCH   5  13
ENDBRANCH   2   3
BRANCH   2  16
ATOM     16  O   LIG    1        0.002  -0.004   0.002  0.00  0.00    -0.340 OA
BRANCH  16  17
ATOM     17  C   LIG    1       -0.018   1.448   0.010  0.00  0.00    +0.180 C 
ATOM     18  C   LIG    1       -0.699   1.974  -1.270  0.00  0.00    +0.020 C 
ATOM     19  C   LIG    1        0.111   3.242  -1.637  0.00  0.00    +0.030 C 
ATOM     20  C   LIG    1        1.563   2.834  -1.287  0.00  0.00    +0.020 C 
ATOM     21  C   LIG    1        1.421   1.994  -0.001  0.00  0.00    +0.010 C 
BRANCH  21  22
ATOM     22  C   LIG    1        2.421   0.837  -0.015  0.00  0.00    +0.090 C 
BRANCH  22  23
ATOM     23  C   LIG    1        3.822   1.382   0.098  0.00  0.00    -0.080 A 
ATOM     24  C   LIG    1        4.534   1.700  -1.043  0.00  0.00    +0.030 A 
ATOM     25  C   LIG    1        5.816   2.205  -0.940  0.00  0.00    +0.020 A 
ATOM     26  C   LIG    1        6.391   2.382   0.306  0.00  0.00    -0.040 A 
ATOM     27  C   LIG    1        5.680   2.058   1.448  0.00  0.00    +0.020 A 
ATOM     28 CL   LIG    1        8.005   3.009   0.437  0.00  0.00    -0.070 Cl
ATOM     29  C   LIG    1        4.396   1.558   1.343  0.00  0.00    +0.020 A 
ENDBRANCH  22  23
ENDBRANCH  21  22
ENDBRANCH  16  17
ENDBRANCH   2  16
TORSDOF 7
