REMARK  Name = ZINCrH000004lVCb.0
REMARK                            x       y       z     vdW  Elec       q    Type
REMARK                         _______ _______ _______ _____ _____    ______ ____
ROOT
ATOM      1  N   LIG    1       -4.167   8.096   1.383  0.00  0.00    -0.720 N 
ATOM      2  H   LIG    1       -3.779   8.564   0.627  0.00  0.00    +0.400 HD
ATOM      3  C   LIG    1       -3.812   6.822   1.640  0.00  0.00    +0.530 C 
ATOM      4  O   LIG    1       -4.298   6.237   2.586  0.00  0.00    -0.530 OA
ENDROOT
BRANCH   3   5
ATOM      5  C   LIG    1       -2.813   6.123   0.754  0.00  0.00    -0.030 C 
ATOM      6  C   LIG    1       -3.394   5.916  -0.670  0.00  0.00    +0.060 C 
ATOM      7  C   LIG    1       -2.597   4.679  -1.155  0.00  0.00    +0.200 C 
ATOM      8  N   LIG    1       -2.454   3.827   0.045  0.00  0.00    -0.490 N 
ATOM      9  C   LIG    1       -2.566   4.680   1.242  0.00  0.00    +0.240 C 
BRANCH   8  10
ATOM     10  C   LIG    1       -1.236   3.141   0.030  0.00  0.00    +0.050 A 
ATOM     11  C   LIG    1       -0.041   3.846   0.022  0.00  0.00    +0.010 A 
ATOM     12  C   LIG    1        1.162   3.165   0.007  0.00  0.00    +0.010 A 
ATOM     13  C   LIG    1        1.176   1.783   0.000  0.00  0.00    +0.040 A 
ATOM     14  C   LIG    1       -0.013   1.076   0.008  0.00  0.00    -0.010 A 
ATOM     15  C   LIG    1       -1.219   1.750   0.017  0.00  0.00    +0.130 A 
ATOM     16  F   LIG    1       -2.380   1.060   0.019  0.00  0.00    -0.130 F 
ENDBRANCH   8  10
ENDBRANCH   3   5
BRANCH   1  17
ATOM     17  C   LIG    1       -5.138   8.775   2.244  0.00  0.00    +0.330 C 
BRANCH  17  21
ATOM     18  C   LIG    1       -5.759  12.762   0.826  0.00  0.00    +0.120 A 
ATOM     19  C   LIG    1       -4.594  12.439   1.502  0.00  0.00    +0.000 A 
ATOM     20  C   LIG    1       -4.398  11.149   1.965  0.00  0.00    -0.080 A 
ATOM     21  C   LIG    1       -5.358  10.179   1.744  0.00  0.00    -0.080 A 
ATOM     22  C   LIG    1       -6.523  10.496   1.069  0.00  0.00    +0.000 A 
ATOM     23 BR   LIG    1       -2.811  10.711   2.894  0.00  0.00    -0.030 Br
ATOM     24  C   LIG    1       -6.728  11.786   0.608  0.00  0.00    +0.120 A 
BRANCH  18  26
ATOM     25  C   LIG    1       -4.918  14.978   0.634  0.00  0.00    +0.250 C 
ATOM     26  O   LIG    1       -5.955  14.030   0.375  0.00  0.00    -0.300 OA
ENDBRANCH  18  26
BRANCH  24  27
ATOM     27  O   LIG    1       -7.873  12.099  -0.055  0.00  0.00    -0.300 OA
ATOM     28  C   LIG    1       -8.822  11.048  -0.242  0.00  0.00    +0.250 C 
ENDBRANCH  24  27
ENDBRANCH  17  21
ENDBRANCH   1  17
TORSDOF 6
