REMARK  Name = ZINCtV00001bB3xH.0
REMARK                            x       y       z     vdW  Elec       q    Type
REMARK                         _______ _______ _______ _____ _____    ______ ____
ROOT
ATOM      1  O   LIG    1       -2.973   6.671  -0.180  0.00  0.00    -0.540 OA
ATOM      2  C   LIG    1       -1.762   6.766  -0.095  0.00  0.00    +0.560 C 
ATOM      3  N   LIG    1       -1.196   7.963   0.157  0.00  0.00    -0.600 N 
ENDROOT
BRANCH   3   4
ATOM      4  C   LIG    1        0.262   8.101   0.145  0.00  0.00    +0.230 C 
ATOM      5  C   LIG    1        0.804   7.665  -1.218  0.00  0.00    +0.000 C 
ATOM      6  C   LIG    1        2.328   7.808  -1.231  0.00  0.00    +0.010 C 
ATOM      7  C   LIG    1        2.932   6.927  -0.136  0.00  0.00    +0.010 C 
ATOM      8  C   LIG    1        2.390   7.363   1.227  0.00  0.00    +0.010 C 
ATOM      9  C   LIG    1        0.867   7.220   1.240  0.00  0.00    +0.000 C 
ENDBRANCH   3   4
BRANCH   3  10
ATOM     10  C   LIG    1       -2.039   9.127   0.442  0.00  0.00    +0.240 C 
ATOM     11  C   LIG    1       -2.886   8.850   1.686  0.00  0.00    +0.010 C 
ATOM     12  C   LIG    1       -3.767  10.065   1.984  0.00  0.00    +0.010 C 
ATOM     13  C   LIG    1       -4.686  10.334   0.790  0.00  0.00    +0.000 C 
ATOM     14  C   LIG    1       -3.839  10.611  -0.453  0.00  0.00    +0.010 C 
ATOM     15  C   LIG    1       -2.958   9.396  -0.751  0.00  0.00    +0.010 C 
ENDBRANCH   3  10
BRANCH   2  16
ATOM     16  C   LIG    1       -0.950   5.620  -0.259  0.00  0.00    -0.080 C 
ATOM     17  C   LIG    1       -1.522   4.397  -0.405  0.00  0.00    +0.170 C 
BRANCH  17  18
ATOM     18  C   LIG    1       -0.710   3.252  -0.570  0.00  0.00    -0.000 A 
ATOM     19  C   LIG    1       -1.161   1.956  -0.733  0.00  0.00    +0.010 A 
ATOM     20  C   LIG    1       -0.029   1.146  -0.855  0.00  0.00    -0.030 A 
ATOM     21  C   LIG    1        1.068   1.974  -0.771  0.00  0.00    +0.050 A 
ATOM     22  O   LIG    1        0.639   3.237  -0.600  0.00  0.00    -0.160 OA
BRANCH  21  23
ATOM     23  C   LIG    1        2.478   1.547  -0.856  0.00  0.00    -0.030 A 
ATOM     24  C   LIG    1        2.793   0.197  -1.031  0.00  0.00    +0.080 A 
ATOM     25  C   LIG    1        4.112  -0.196  -1.115  0.00  0.00    -0.010 A 
ATOM     26  C   LIG    1        5.125   0.745  -1.015  0.00  0.00    +0.110 A 
ATOM     27  C   LIG    1        4.819   2.085  -0.836  0.00  0.00    -0.010 A 
ATOM     28  F   LIG    1        6.416   0.354  -1.092  0.00  0.00    -0.130 F 
ATOM     29  C   LIG    1        3.504   2.490  -0.756  0.00  0.00    +0.070 A 
ENDBRANCH  21  23
ENDBRANCH  17  18
ENDBRANCH   2  16
TORSDOF 5
