REMARK  Name = ZINCkj000005eUev.1
REMARK                            x       y       z     vdW  Elec       q    Type
REMARK                         _______ _______ _______ _____ _____    ______ ____
ROOT
ATOM      1  C   LIG    1       -0.823   2.083   3.669  0.00  0.00    +0.200 C 
ATOM      2  C   LIG    1       -2.294   1.660   3.669  0.00  0.00    +0.100 C 
ATOM      3  C   LIG    1       -2.381   0.135   3.557  0.00  0.00    +0.040 C 
ATOM      4  C   LIG    1       -1.595  -0.497   4.709  0.00  0.00    +0.070 C 
ATOM      5  C   LIG    1       -0.150   0.005   4.671  0.00  0.00    +0.260 C 
ATOM      6  N   LIG    1       -0.133   1.466   4.809  0.00  0.00    -0.370 N 
ATOM      7  H   LIG    1       -0.600   1.727   5.665  0.00  0.00    +0.430 HD
ENDROOT
BRANCH   1   8
ATOM      8  C   LIG    1       -0.172   1.634   2.386  0.00  0.00    +0.470 C 
ATOM      9  O   LIG    1        0.804   0.923   2.421  0.00  0.00    -0.490 OA
BRANCH   8  10
ATOM     10  O   LIG    1       -0.677   2.025   1.205  0.00  0.00    -0.320 OA
BRANCH  10  12
ATOM     11  C   LIG    1       -0.019   0.025  -0.019  0.00  0.00    +0.040 C 
ATOM     12  C   LIG    1        0.002   1.554   0.011  0.00  0.00    +0.120 C 
ATOM     13  C   LIG    1       -0.712   2.099  -1.228  0.00  0.00    +0.080 C 
ATOM     14  C   LIG    1        1.451   2.044   0.021  0.00  0.00    +0.040 C 
ENDBRANCH  10  12
ENDBRANCH   8  10
ENDBRANCH   1   8
BRANCH   6  15
ATOM     15  C   LIG    1        1.258   1.935   4.850  0.00  0.00    +0.280 C 
BRANCH  15  16
ATOM     16  C   LIG    1        1.943   1.392   6.106  0.00  0.00    -0.010 C 
ATOM     17  C   LIG    1        1.372   2.058   7.378  0.00  0.00    +0.260 C 
ATOM     18  N   LIG    1        2.516   2.211   8.285  0.00  0.00    -0.730 N 
ATOM     19  H   LIG    1        2.440   2.377   9.238  0.00  0.00    +0.420 HD
ATOM     20  C   LIG    1        3.682   2.091   7.627  0.00  0.00    +0.520 C 
ATOM     21  O   LIG    1        4.779   2.183   8.135  0.00  0.00    -0.500 OA
ATOM     22  C   LIG    1        3.426   1.827   6.159  0.00  0.00    +0.100 C 
ENDBRANCH  15  16
ENDBRANCH   6  15
TORSDOF 5
