REMARK  Name = ZINCkj000005eUev.0
REMARK                            x       y       z     vdW  Elec       q    Type
REMARK                         _______ _______ _______ _____ _____    ______ ____
ROOT
ATOM      1  C   LIG    1       -0.217  -0.049   0.081  0.00  0.00    +0.200 C 
ATOM      2  C   LIG    1       -0.377   1.172   0.990  0.00  0.00    +0.080 C 
ATOM      3  C   LIG    1        0.990   1.832   1.193  0.00  0.00    +0.060 C 
ATOM      4  C   LIG    1        1.962   0.800   1.773  0.00  0.00    +0.060 C 
ATOM      5  C   LIG    1        2.035  -0.407   0.835  0.00  0.00    +0.260 C 
ATOM      6  N   LIG    1        0.703  -1.009   0.702  0.00  0.00    -0.370 N 
ATOM      7  H   LIG    1        0.358  -1.262   1.616  0.00  0.00    +0.430 HD
ENDROOT
BRANCH   1   8
ATOM      8  C   LIG    1       -1.560  -0.702  -0.122  0.00  0.00    +0.460 C 
ATOM      9  O   LIG    1       -1.922  -1.584   0.621  0.00  0.00    -0.480 OA
BRANCH   8  10
ATOM     10  O   LIG    1       -2.355  -0.305  -1.129  0.00  0.00    -0.330 OA
BRANCH  10  12
ATOM     11  C   LIG    1       -4.454  -0.776   0.011  0.00  0.00    +0.040 C 
ATOM     12  C   LIG    1       -3.634  -0.979  -1.264  0.00  0.00    +0.120 C 
ATOM     13  C   LIG    1       -3.402  -2.474  -1.489  0.00  0.00    +0.050 C 
ATOM     14  C   LIG    1       -4.394  -0.395  -2.457  0.00  0.00    +0.080 C 
ENDBRANCH  10  12
ENDBRANCH   8  10
ENDBRANCH   1   8
BRANCH   6  15
ATOM     15  C   LIG    1        0.792  -2.212  -0.136  0.00  0.00    +0.270 C 
BRANCH  15  16
ATOM     16  C   LIG    1        1.575  -3.296   0.610  0.00  0.00    -0.010 C 
ATOM     17  C   LIG    1        3.088  -2.986   0.606  0.00  0.00    +0.260 C 
ATOM     18  N   LIG    1        3.753  -4.289   0.482  0.00  0.00    -0.730 N 
ATOM     19  H   LIG    1        4.689  -4.448   0.685  0.00  0.00    +0.420 HD
ATOM     20  C   LIG    1        2.900  -5.234   0.051  0.00  0.00    +0.520 C 
ATOM     21  O   LIG    1        3.191  -6.396  -0.144  0.00  0.00    -0.500 OA
ATOM     22  C   LIG    1        1.525  -4.639  -0.155  0.00  0.00    +0.090 C 
ENDBRANCH  15  16
ENDBRANCH   6  15
TORSDOF 5
