REMARK  Name = ZINCpe00000RbxQO.0
REMARK                            x       y       z     vdW  Elec       q    Type
REMARK                         _______ _______ _______ _____ _____    ______ ____
ROOT
ATOM      1  C   LIG    1       -1.738   1.620  -3.120  0.00  0.00    +0.520 A 
ATOM      2  N   LIG    1       -1.874   2.921  -3.329  0.00  0.00    -0.570 NA
ATOM      3  C   LIG    1       -1.411   3.804  -2.457  0.00  0.00    +0.360 A 
ATOM      4  C   LIG    1       -0.777   3.356  -1.315  0.00  0.00    -0.110 A 
ATOM      5  C   LIG    1       -0.647   1.979  -1.121  0.00  0.00    +0.370 A 
ATOM      6  N   LIG    1       -1.131   1.150  -2.039  0.00  0.00    -0.560 NA
ENDROOT
BRANCH   5   7
ATOM      7  N   LIG    1       -0.018   1.485   0.010  0.00  0.00    -0.440 N 
ATOM      8  C   LIG    1        1.435   1.811  -0.002  0.00  0.00    +0.260 C 
ATOM      9  C   LIG    1        2.063   0.727   0.850  0.00  0.00    -0.110 A 
ATOM     10  C   LIG    1        3.249   0.672   1.554  0.00  0.00    +0.040 A 
ATOM     11  C   LIG    1        3.579  -0.469   2.262  0.00  0.00    +0.010 A 
ATOM     12  C   LIG    1        2.723  -1.554   2.264  0.00  0.00    +0.020 A 
ATOM     13  C   LIG    1        1.534  -1.500   1.558  0.00  0.00    +0.030 A 
ATOM     14  C   LIG    1        1.204  -0.362   0.853  0.00  0.00    -0.100 A 
ATOM     15  C   LIG    1        0.002  -0.004   0.002  0.00  0.00    +0.270 C 
ENDBRANCH   5   7
BRANCH   1  20
ATOM     16  C   LIG    1       -3.528   0.430  -6.114  0.00  0.00    +0.120 C 
ATOM     17  C   LIG    1       -2.472  -0.549  -6.633  0.00  0.00    +0.070 C 
ATOM     18  C   LIG    1       -1.800  -1.241  -5.443  0.00  0.00    +0.060 C 
ATOM     19  C   LIG    1       -1.185  -0.183  -4.525  0.00  0.00    +0.210 C 
ATOM     20  N   LIG    1       -2.236   0.729  -4.055  0.00  0.00    -0.440 N 
ATOM     21  C   LIG    1       -2.863   1.440  -5.176  0.00  0.00    +0.220 C 
BRANCH  16  25
ATOM     22  N   LIG    1       -5.393   1.673  -7.161  0.00  0.00    -0.850 N 
ATOM     23  H   LIG    1       -5.795   2.141  -7.909  0.00  0.00    +0.410 HD
ATOM     24  H   LIG    1       -5.884   1.574  -6.330  0.00  0.00    +0.400 HD
ATOM     25  C   LIG    1       -4.153   1.158  -7.276  0.00  0.00    +0.500 C 
ATOM     26  O   LIG    1       -3.539   1.282  -8.315  0.00  0.00    -0.530 OA
ENDBRANCH  16  25
BRANCH  16  27
ATOM     27  O   LIG    1       -4.537  -0.289  -5.403  0.00  0.00    -0.530 OA
ATOM     28  H   LIG    1       -5.239   0.271  -5.043  0.00  0.00    +0.370 HD
ENDBRANCH  16  27
ENDBRANCH   1  20
TORSDOF 4
