REMARK  Name = ZINCqH0000050hlJ.0
REMARK                            x       y       z     vdW  Elec       q    Type
REMARK                         _______ _______ _______ _____ _____    ______ ____
ROOT
ATOM      1  C   LIG    1        7.318  -1.120  -0.076  0.00  0.00    +0.560 C 
ATOM      2  O   LIG    1        7.862  -0.033  -0.076  0.00  0.00    -0.490 OA
ENDROOT
BRANCH   1   5
ATOM      3  C   LIG    1        3.696  -0.686  -0.037  0.00  0.00    +0.060 A 
ATOM      4  C   LIG    1        4.941  -0.123  -0.051  0.00  0.00    +0.020 A 
ATOM      5  C   LIG    1        5.845  -1.208  -0.061  0.00  0.00    -0.000 A 
ATOM      6  N   LIG    1        5.128  -2.316  -0.060  0.00  0.00    -0.210 NA
ATOM      7  N   LIG    1        3.874  -2.038  -0.046  0.00  0.00    -0.370 N 
ATOM      8  H   LIG    1        3.159  -2.694  -0.042  0.00  0.00    +0.450 HD
BRANCH   3  13
ATOM      9  C   LIG    1       -1.334   2.112   0.020  0.00  0.00    +0.090 C 
ATOM     10  C   LIG    1       -0.017   1.379   0.010  0.00  0.00    -0.070 A 
ATOM     11  C   LIG    1        1.168   2.093   0.002  0.00  0.00    +0.020 A 
ATOM     12  C   LIG    1        2.377   1.428  -0.013  0.00  0.00    +0.040 A 
ATOM     13  C   LIG    1        2.403   0.033  -0.020  0.00  0.00    -0.030 A 
ATOM     14  C   LIG    1        1.205  -0.680  -0.013  0.00  0.00    +0.010 A 
ATOM     15  C   LIG    1        0.002  -0.004   0.002  0.00  0.00    +0.020 A 
ENDBRANCH   3  13
ENDBRANCH   1   5
BRANCH   1  16
ATOM     16  O   LIG    1        8.061  -2.244  -0.090  0.00  0.00    -0.320 OA
BRANCH  16  17
ATOM     17  C   LIG    1        9.503  -2.082  -0.104  0.00  0.00    +0.240 C 
BRANCH  17  18
ATOM     18  C   LIG    1       10.162  -3.437  -0.119  0.00  0.00    +0.390 C 
ATOM     19  O   LIG    1        9.482  -4.441  -0.117  0.00  0.00    -0.410 OA
BRANCH  18  20
ATOM     20  C   LIG    1       11.626  -3.542  -0.135  0.00  0.00    -0.220 A 
ATOM     21  C   LIG    1       12.414  -2.385  -0.142  0.00  0.00    +0.140 A 
ATOM     22  C   LIG    1       13.787  -2.490  -0.153  0.00  0.00    -0.020 A 
ATOM     23  C   LIG    1       14.392  -3.739  -0.166  0.00  0.00    +0.170 A 
ATOM     24  C   LIG    1       13.620  -4.891  -0.164  0.00  0.00    -0.050 A 
ATOM     25  F   LIG    1       15.739  -3.833  -0.181  0.00  0.00    -0.120 F 
ATOM     26  C   LIG    1       12.242  -4.801  -0.148  0.00  0.00    +0.200 A 
ATOM     27  F   LIG    1       11.491  -5.924  -0.147  0.00  0.00    -0.100 F 
ENDBRANCH  18  20
ENDBRANCH  17  18
ENDBRANCH  16  17
ENDBRANCH   1  16
TORSDOF 6
