REMARK  Name = ZINCrD0000073j4Y.0
REMARK                            x       y       z     vdW  Elec       q    Type
REMARK                         _______ _______ _______ _____ _____    ______ ____
ROOT
ATOM      1  C   LIG    1       -1.267  -0.763   0.011  0.00  0.00    +0.570 C 
ATOM      2  N   LIG    1       -1.247  -2.110   0.003  0.00  0.00    -0.720 N 
ATOM      3  H   LIG    1       -0.399  -2.583  -0.008  0.00  0.00    +0.410 HD
ATOM      4  O   LIG    1       -2.329  -0.171   0.024  0.00  0.00    -0.520 OA
ENDROOT
BRANCH   1   9
ATOM      5  C   LIG    1        2.408   0.033  -0.021  0.00  0.00    +0.160 A 
ATOM      6  C   LIG    1        2.385   1.421  -0.013  0.00  0.00    -0.130 A 
ATOM      7  C   LIG    1        1.174   2.098   0.002  0.00  0.00    +0.160 A 
ATOM      8  C   LIG    1       -0.017   1.391   0.010  0.00  0.00    +0.020 A 
ATOM      9  C   LIG    1        0.002  -0.004   0.002  0.00  0.00    -0.060 A 
ATOM     10  C   LIG    1        1.222  -0.681  -0.013  0.00  0.00    -0.020 A 
BRANCH   5  12
ATOM     11  C   LIG    1        4.782   0.174  -0.043  0.00  0.00    +0.250 C 
ATOM     12  O   LIG    1        3.597  -0.625  -0.036  0.00  0.00    -0.310 OA
ENDBRANCH   5  12
BRANCH   7  13
ATOM     13  O   LIG    1        1.157   3.457   0.009  0.00  0.00    -0.310 OA
ATOM     14  C   LIG    1        2.422   4.122   0.001  0.00  0.00    +0.250 C 
ENDBRANCH   7  13
ENDBRANCH   1   9
BRANCH   2  15
ATOM     15  C   LIG    1       -2.504  -2.862   0.012  0.00  0.00    +0.280 C 
BRANCH  15  16
ATOM     16  C   LIG    1       -2.202  -4.362   0.001  0.00  0.00    +0.200 C 
BRANCH  16  17
ATOM     17  C   LIG    1       -3.495  -5.135   0.009  0.00  0.00    +0.190 A 
ATOM     18  N   LIG    1       -4.176  -5.524  -1.040  0.00  0.00    -0.460 NA
ATOM     19  C   LIG    1       -5.253  -6.179  -0.551  0.00  0.00    +0.210 A 
ATOM     20  N   LIG    1       -5.168  -6.143   0.753  0.00  0.00    -0.370 NA
ATOM     21  O   LIG    1       -4.166  -5.548   1.089  0.00  0.00    +0.090 OA
BRANCH  19  22
ATOM     22  C   LIG    1       -6.333  -6.815  -1.346  0.00  0.00    -0.010 A 
ATOM     23  C   LIG    1       -7.391  -7.454  -0.703  0.00  0.00    +0.060 A 
ATOM     24  C   LIG    1       -8.394  -8.043  -1.447  0.00  0.00    +0.030 A 
ATOM     25  C   LIG    1       -8.349  -8.001  -2.829  0.00  0.00    +0.050 A 
ATOM     26  C   LIG    1       -7.301  -7.367  -3.473  0.00  0.00    -0.040 A 
ATOM     27 CL   LIG    1       -7.253  -7.318  -5.208  0.00  0.00    -0.060 Cl
ATOM     28  C   LIG    1       -6.296  -6.770  -2.738  0.00  0.00    +0.080 A 
ENDBRANCH  19  22
ENDBRANCH  16  17
ENDBRANCH  15  16
ENDBRANCH   2  15
TORSDOF 7
