REMARK  Name = ZINCrD00000l32vo.0
REMARK                            x       y       z     vdW  Elec       q    Type
REMARK                         _______ _______ _______ _____ _____    ______ ____
ROOT
ATOM      1  O   LIG    1       -3.504   2.501   0.033  0.00  0.00    -0.340 OA
ENDROOT
BRANCH   1   2
ATOM      2  C   LIG    1       -4.835   1.983   0.038  0.00  0.00    +0.220 C 
BRANCH   2  12
ATOM      3  C   LIG    1      -10.333   3.446  -1.185  0.00  0.00    +0.060 C 
ATOM      4  C   LIG    1       -9.516   3.116   0.067  0.00  0.00    +0.040 C 
ATOM      5  C   LIG    1       -8.192   3.896   0.065  0.00  0.00    +0.290 C 
ATOM      6  N   LIG    1       -7.143   2.873   0.054  0.00  0.00    -0.550 N 
ATOM      7  C   LIG    1       -7.717   1.598   0.044  0.00  0.00    +0.140 A 
ATOM      8  C   LIG    1       -7.096   0.348   0.039  0.00  0.00    -0.040 A 
ATOM      9  C   LIG    1       -7.853  -0.804   0.036  0.00  0.00    +0.050 A 
ATOM     10  C   LIG    1       -9.233  -0.730   0.043  0.00  0.00    -0.010 A 
ATOM     11  C   LIG    1       -9.856   0.504   0.053  0.00  0.00    +0.060 A 
ATOM     12  C   LIG    1       -5.819   3.125   0.049  0.00  0.00    +0.530 C 
ATOM     13  O   LIG    1       -5.419   4.270   0.052  0.00  0.00    -0.480 OA
ATOM     14  C   LIG    1       -9.101   1.662   0.057  0.00  0.00    -0.130 A 
ENDBRANCH   2  12
ENDBRANCH   1   2
BRANCH   1  15
ATOM     15  C   LIG    1       -2.488   1.496   0.023  0.00  0.00    +0.220 C 
BRANCH  15  16
ATOM     16  C   LIG    1       -1.132   2.152   0.019  0.00  0.00    +0.530 C 
ATOM     17  N   LIG    1       -0.017   1.394   0.010  0.00  0.00    -0.550 N 
ATOM     18  C   LIG    1        1.353   1.915  -0.001  0.00  0.00    +0.290 C 
ATOM     19  C   LIG    1        2.257   0.672  -0.016  0.00  0.00    +0.040 C 
ATOM     20  C   LIG    1        1.297  -0.497  -0.013  0.00  0.00    -0.130 A 
ATOM     21  C   LIG    1        1.529  -1.859  -0.022  0.00  0.00    +0.060 A 
ATOM     22  C   LIG    1        0.466  -2.744  -0.017  0.00  0.00    -0.010 A 
ATOM     23  C   LIG    1       -0.830  -2.262  -0.002  0.00  0.00    +0.050 A 
ATOM     24  C   LIG    1       -1.065  -0.904   0.007  0.00  0.00    -0.040 A 
ATOM     25  C   LIG    1        3.117   0.653  -1.281  0.00  0.00    +0.060 C 
ATOM     26  C   LIG    1        0.002  -0.004   0.002  0.00  0.00    +0.140 A 
ATOM     27  O   LIG    1       -1.043   3.361   0.025  0.00  0.00    -0.480 OA
ENDBRANCH  15  16
ENDBRANCH   1  15
TORSDOF 4
