REMARK  Name = ZINCrH00000tj0Ou.0
REMARK                            x       y       z     vdW  Elec       q    Type
REMARK                         _______ _______ _______ _____ _____    ______ ____
ROOT
ATOM      1  C   LIG    1       -1.477   3.669  -2.426  0.00  0.00    +0.030 C 
ATOM      2  C   LIG    1       -0.971   3.106  -1.096  0.00  0.00    -0.010 C 
ATOM      3  C   LIG    1       -0.757   1.595  -1.227  0.00  0.00    +0.020 C 
ATOM      4  C   LIG    1       -0.013   1.086   0.008  0.00  0.00    +0.110 C 
ATOM      5  C   LIG    1       -0.730   1.579   1.258  0.00  0.00    -0.030 A 
ATOM      6  C   LIG    1       -1.612   2.589   1.243  0.00  0.00    -0.200 A 
ATOM      7  S   LIG    1       -2.253   2.899   2.851  0.00  0.00    +0.180 S 
ATOM      8  C   LIG    1       -1.299   1.620   3.554  0.00  0.00    +0.050 A 
ATOM      9  N   LIG    1       -1.230   1.194   4.864  0.00  0.00    -0.580 N 
ATOM     10  H   LIG    1       -1.759   1.617   5.559  0.00  0.00    +0.430 HD
ATOM     11  C   LIG    1       -0.399   0.166   5.144  0.00  0.00    +0.440 A 
ATOM     12  N   LIG    1        0.338  -0.445   4.263  0.00  0.00    -0.560 NA
ATOM     13  C   LIG    1        0.353  -0.114   2.953  0.00  0.00    +0.550 A 
ATOM     14  O   LIG    1        1.052  -0.699   2.141  0.00  0.00    -0.470 OA
ATOM     15  C   LIG    1       -0.535   1.006   2.568  0.00  0.00    -0.220 A 
ATOM     16  C   LIG    1       -2.006   3.366   0.000  0.00  0.00    +0.120 C 
ENDROOT
BRANCH  11  17
ATOM     17  C   LIG    1       -0.320  -0.303   6.573  0.00  0.00    +0.350 C 
BRANCH  17  18
ATOM     18  O   LIG    1        0.620  -1.406   6.669  0.00  0.00    -0.310 OA
BRANCH  18  19
ATOM     19  C   LIG    1        0.808  -1.946   7.889  0.00  0.00    +0.520 C 
ATOM     20  O   LIG    1        0.203  -1.506   8.847  0.00  0.00    -0.480 OA
BRANCH  19  21
ATOM     21  C   LIG    1        1.747  -3.069   8.062  0.00  0.00    -0.180 A 
ATOM     22  C   LIG    1        3.095  -2.821   8.347  0.00  0.00    +0.170 A 
ATOM     23  C   LIG    1        3.967  -3.880   8.512  0.00  0.00    +0.000 A 
ATOM     24  C   LIG    1        3.514  -5.181   8.386  0.00  0.00    +0.130 A 
ATOM     25  C   LIG    1        2.185  -5.435   8.100  0.00  0.00    +0.000 A 
ATOM     26  F   LIG    1        3.541  -1.552   8.465  0.00  0.00    -0.120 F 
ATOM     27  C   LIG    1        1.297  -4.388   7.937  0.00  0.00    +0.170 A 
ATOM     28  F   LIG    1       -0.000  -4.638   7.657  0.00  0.00    -0.120 F 
ENDBRANCH  19  21
ENDBRANCH  18  19
ENDBRANCH  17  18
ENDBRANCH  11  17
TORSDOF 4
