REMARK  Name = ZINCpk00000eaVjL.0
REMARK                            x       y       z     vdW  Elec       q    Type
REMARK                         _______ _______ _______ _____ _____    ______ ____
ROOT
ATOM      1  C   LIG    1        1.148   0.190   4.286  0.00  0.00    +0.510 C 
ATOM      2  N   LIG    1        0.538   0.282   3.088  0.00  0.00    -0.730 N 
ATOM      3  H   LIG    1        0.052  -0.478   2.731  0.00  0.00    +0.400 HD
ATOM      4  O   LIG    1        1.755   1.140   4.733  0.00  0.00    -0.520 OA
ENDROOT
BRANCH   2   5
ATOM      5  C   LIG    1        0.609   1.531   2.325  0.00  0.00    +0.260 C 
ATOM      6  C   LIG    1       -0.581   1.620   1.346  0.00  0.00    +0.050 C 
ATOM      7  C   LIG    1       -0.013   1.086   0.008  0.00  0.00    -0.020 C 
ATOM      8  C   LIG    1        1.428   1.654  -0.003  0.00  0.00    +0.020 C 
ATOM      9  C   LIG    1        1.886   1.553   1.467  0.00  0.00    +0.150 C 
BRANCH   9  10
ATOM     10  O   LIG    1        2.687   2.685   1.810  0.00  0.00    -0.560 OA
ATOM     11  H   LIG    1        3.497   2.766   1.288  0.00  0.00    +0.380 HD
ENDBRANCH   9  10
BRANCH   7  12
ATOM     12  C   LIG    1       -0.816   1.622  -1.179  0.00  0.00    +0.330 C 
BRANCH  12  13
ATOM     13  N   LIG    1       -0.288   1.054  -2.422  0.00  0.00    -0.370 N 
ATOM     14  C   LIG    1       -0.996   0.372  -3.347  0.00  0.00    +0.220 A 
ATOM     15  C   LIG    1       -0.147   0.023  -4.341  0.00  0.00    -0.120 A 
ATOM     16  C   LIG    1        1.125   0.499  -4.008  0.00  0.00    +0.220 A 
ATOM     17  N   LIG    1        1.042   1.117  -2.857  0.00  0.00    -0.290 NA
ENDBRANCH  12  13
ENDBRANCH   7  12
ENDBRANCH   2   5
BRANCH   1  18
ATOM     18  C   LIG    1        1.075  -1.095   5.071  0.00  0.00    +0.060 C 
BRANCH  18  19
ATOM     19  C   LIG    1        1.845  -0.934   6.384  0.00  0.00    +0.040 C 
BRANCH  19  20
ATOM     20  C   LIG    1        1.771  -2.238   7.181  0.00  0.00    +0.320 C 
BRANCH  20  27
ATOM     21  C   LIG    1        4.777  -2.873   7.592  0.00  0.00    +0.150 C 
ATOM     22  C   LIG    1        3.815  -2.357   8.631  0.00  0.00    +0.080 A 
ATOM     23  C   LIG    1        4.109  -2.080   9.922  0.00  0.00    -0.120 A 
ATOM     24  C   LIG    1        2.938  -1.631  10.543  0.00  0.00    +0.070 A 
ATOM     25  N   LIG    1        1.978  -1.634   9.654  0.00  0.00    -0.300 NA
ATOM     26  C   LIG    1        2.806  -1.217  11.986  0.00  0.00    +0.160 C 
ATOM     27  N   LIG    1        2.508  -2.084   8.438  0.00  0.00    -0.370 N 
ENDBRANCH  20  27
ENDBRANCH  19  20
ENDBRANCH  18  19
ENDBRANCH   1  18
TORSDOF 8
