REMARK  Name = ZINCvU0000000BOg.0
REMARK                            x       y       z     vdW  Elec       q    Type
REMARK                         _______ _______ _______ _____ _____    ______ ____
ROOT
ATOM      1  C   LIG    1        4.248  -1.874  -7.491  0.00  0.00    +0.520 C 
ATOM      2  O   LIG    1        4.349  -0.664  -7.534  0.00  0.00    -0.480 OA
ENDROOT
BRANCH   1  11
ATOM      3  C   LIG    1        6.723  -3.950  -9.431  0.00  0.00    +0.170 A 
ATOM      4  N   LIG    1        6.049  -4.264 -10.509  0.00  0.00    -0.450 NA
ATOM      5  C   LIG    1        4.792  -3.854 -10.698  0.00  0.00    +0.130 A 
ATOM      6  C   LIG    1        4.084  -4.202 -11.862  0.00  0.00    +0.060 A 
ATOM      7  C   LIG    1        2.797  -3.786 -12.020  0.00  0.00    +0.040 A 
ATOM      8  C   LIG    1        2.173  -3.001 -11.054  0.00  0.00    +0.030 A 
ATOM      9  C   LIG    1        2.830  -2.639  -9.916  0.00  0.00    +0.010 A 
ATOM     10  C   LIG    1        4.150  -3.060  -9.715  0.00  0.00    -0.070 A 
ATOM     11  C   LIG    1        4.868  -2.705  -8.544  0.00  0.00    -0.050 A 
ATOM     12  C   LIG    1        6.171  -3.169  -8.418  0.00  0.00    -0.080 A 
BRANCH  12  13
ATOM     13  C   LIG    1        6.982  -2.830  -7.194  0.00  0.00    +0.070 C 
ATOM     14  C   LIG    1        7.760  -1.536  -7.440  0.00  0.00    +0.040 C 
ENDBRANCH  12  13
BRANCH   3  15
ATOM     15  C   LIG    1        8.138  -4.447  -9.283  0.00  0.00    +0.100 C 
BRANCH  15  17
ATOM     16  C   LIG    1        9.555  -6.370  -8.549  0.00  0.00    +0.030 C 
ATOM     17  C   LIG    1        8.128  -5.823  -8.612  0.00  0.00    +0.010 C 
ENDBRANCH  15  17
ENDBRANCH   3  15
ENDBRANCH   1  11
BRANCH   1  18
ATOM     18  O   LIG    1        3.572  -2.458  -6.483  0.00  0.00    -0.330 OA
BRANCH  18  19
ATOM     19  C   LIG    1        2.990  -1.580  -5.483  0.00  0.00    +0.240 C 
BRANCH  19  20
ATOM     20  C   LIG    1        2.278  -2.406  -4.443  0.00  0.00    +0.400 C 
ATOM     21  O   LIG    1        2.263  -3.615  -4.534  0.00  0.00    -0.420 OA
BRANCH  20  22
ATOM     22  C   LIG    1        1.602  -1.746  -3.318  0.00  0.00    -0.200 A 
ATOM     23  C   LIG    1        0.940  -2.511  -2.349  0.00  0.00    +0.130 A 
ATOM     24  C   LIG    1        0.311  -1.890  -1.302  0.00  0.00    +0.000 A 
ATOM     25  C   LIG    1        0.329  -0.503  -1.200  0.00  0.00    +0.140 A 
ATOM     26  C   LIG    1        0.980   0.261  -2.162  0.00  0.00    -0.060 A 
ATOM     27  C   LIG    1        1.618  -0.350  -3.210  0.00  0.00    +0.110 A 
BRANCH  25  28
ATOM     28  O   LIG    1       -0.296   0.106  -0.161  0.00  0.00    -0.320 OA
BRANCH  28  29
ATOM     29  C   LIG    1       -0.239   1.534  -0.117  0.00  0.00    +0.600 C 
ATOM     30  F   LIG    1       -0.829   2.060  -1.271  0.00  0.00    -0.190 F 
ATOM     31  F   LIG    1        1.096   1.945  -0.046  0.00  0.00    -0.200 F 
ENDBRANCH  28  29
ENDBRANCH  25  28
ENDBRANCH  20  22
ENDBRANCH  19  20
ENDBRANCH  18  19
ENDBRANCH   1  18
TORSDOF 10
