REMARK  Name = ZINCqH00000017t6.0
REMARK                            x       y       z     vdW  Elec       q    Type
REMARK                         _______ _______ _______ _____ _____    ______ ____
ROOT
ATOM      1  C   LIG    1       -1.219   1.641   0.017  0.00  0.00    +0.590 A 
ATOM      2  N   LIG    1       -1.218   2.966   0.029  0.00  0.00    -0.580 NA
ATOM      3  C   LIG    1       -2.354   3.648   0.033  0.00  0.00    +0.370 A 
ATOM      4  C   LIG    1       -3.553   2.963   0.035  0.00  0.00    -0.140 A 
ATOM      5  C   LIG    1       -3.523   1.567   0.027  0.00  0.00    +0.380 A 
ATOM      6  N   LIG    1       -2.347   0.947   0.018  0.00  0.00    -0.600 NA
ENDROOT
BRANCH   5   7
ATOM      7  N   LIG    1       -4.701   0.838   0.029  0.00  0.00    -0.440 N 
ATOM      8  C   LIG    1       -5.429   1.004   1.318  0.00  0.00    +0.260 C 
ATOM      9  C   LIG    1       -6.255  -0.260   1.441  0.00  0.00    -0.110 A 
ATOM     10  C   LIG    1       -7.405  -0.551   2.145  0.00  0.00    +0.040 A 
ATOM     11  C   LIG    1       -7.956  -1.817   2.075  0.00  0.00    +0.010 A 
ATOM     12  C   LIG    1       -7.356  -2.791   1.299  0.00  0.00    +0.020 A 
ATOM     13  C   LIG    1       -6.202  -2.500   0.593  0.00  0.00    +0.020 A 
ATOM     14  C   LIG    1       -5.652  -1.237   0.663  0.00  0.00    -0.100 A 
ATOM     15  C   LIG    1       -4.424  -0.625   0.021  0.00  0.00    +0.270 C 
ENDBRANCH   5   7
BRANCH   1  16
ATOM     16  N   LIG    1       -0.011   0.966   0.007  0.00  0.00    -0.700 N 
ATOM     17  H   LIG    1        0.002  -0.004   0.002  0.00  0.00    +0.410 HD
BRANCH  16  18
ATOM     18  C   LIG    1        1.248   1.716  -0.001  0.00  0.00    +0.290 C 
BRANCH  18  20
ATOM     19  C   LIG    1        2.367  -0.150   1.228  0.00  0.00    +0.050 C 
ATOM     20  C   LIG    1        2.424   0.737  -0.017  0.00  0.00    -0.040 C 
ATOM     21  C   LIG    1        2.343  -0.137  -1.270  0.00  0.00    +0.050 C 
BRANCH  20  22
ATOM     22  C   LIG    1        3.719   1.508  -0.025  0.00  0.00    -0.020 A 
ATOM     23  C   LIG    1        3.719   2.895  -0.024  0.00  0.00    -0.030 A 
ATOM     24  C   LIG    1        4.926   3.568  -0.027  0.00  0.00    +0.260 A 
ATOM     25  N   LIG    1        6.067   2.907  -0.042  0.00  0.00    -0.490 NA
ATOM     26  C   LIG    1        6.104   1.589  -0.048  0.00  0.00    +0.260 A 
ATOM     27  C   LIG    1        4.938   0.848  -0.041  0.00  0.00    -0.040 A 
ENDBRANCH  20  22
ENDBRANCH  18  20
ENDBRANCH  16  18
ENDBRANCH   1  16
TORSDOF 5
