REMARK  Name = ZINCrD00000734xF.0
REMARK                            x       y       z     vdW  Elec       q    Type
REMARK                         _______ _______ _______ _____ _____    ______ ____
ROOT
ATOM      1  C   LIG    1        3.706   5.927   0.266  0.00  0.00    +0.250 C 
ENDROOT
BRANCH   1   2
ATOM      2  C   LIG    1        3.496   7.410   0.437  0.00  0.00    +0.430 C 
ATOM      3  O   LIG    1        2.371   7.857   0.526  0.00  0.00    -0.450 OA
BRANCH   2   7
ATOM      4  N   LIG    1        5.895  10.127   0.653  0.00  0.00    -0.430 N 
ATOM      5  C   LIG    1        6.764   9.085   0.507  0.00  0.00    +0.010 A 
ATOM      6  C   LIG    1        6.067   7.941   0.405  0.00  0.00    +0.000 A 
ATOM      7  C   LIG    1        4.649   8.311   0.496  0.00  0.00    -0.270 A 
ATOM      8  C   LIG    1        8.266   9.199   0.467  0.00  0.00    +0.130 C 
ATOM      9  C   LIG    1        4.625   9.685   0.642  0.00  0.00    +0.120 A 
ATOM     10  C   LIG    1        3.390  10.539   0.772  0.00  0.00    +0.150 C 
BRANCH   4  11
ATOM     11  C   LIG    1        6.290  11.531   0.794  0.00  0.00    +0.310 C 
BRANCH  11  12
ATOM     12  C   LIG    1        6.377  12.178  -0.589  0.00  0.00    +0.170 C 
BRANCH  12  14
ATOM     13  C   LIG    1        6.873  14.248  -1.692  0.00  0.00    +0.220 C 
ATOM     14  O   LIG    1        6.762  13.547  -0.451  0.00  0.00    -0.390 OA
ENDBRANCH  12  14
ENDBRANCH  11  12
ENDBRANCH   4  11
ENDBRANCH   2   7
ENDBRANCH   1   2
BRANCH   1  15
ATOM     15  O   LIG    1        2.419   5.256   0.237  0.00  0.00    -0.330 OA
BRANCH  15  16
ATOM     16  C   LIG    1        2.431   3.917   0.090  0.00  0.00    +0.510 C 
ATOM     17  O   LIG    1        3.487   3.326  -0.012  0.00  0.00    -0.450 OA
BRANCH  16  18
ATOM     18  C   LIG    1        1.159   3.167   0.052  0.00  0.00    -0.030 A 
ATOM     19  C   LIG    1        0.240   3.291   1.096  0.00  0.00    +0.110 A 
ATOM     20  C   LIG    1       -0.947   2.587   1.053  0.00  0.00    +0.000 A 
ATOM     21  C   LIG    1       -1.229   1.764  -0.024  0.00  0.00    +0.090 A 
ATOM     22  C   LIG    1       -0.320   1.634  -1.059  0.00  0.00    +0.130 A 
ATOM     23 CL   LIG    1       -2.091   2.739   2.350  0.00  0.00    -0.020 Cl
ATOM     24  C   LIG    1        0.869   2.331  -1.029  0.00  0.00    -0.000 A 
BRANCH  24  25
ATOM     25  N   LIG    1        1.838   2.194  -2.140  0.00  0.00    +0.020 N 
ATOM     26  O   LIG    1        2.831   2.898  -2.173  0.00  0.00    -0.130 OA
ATOM     27  O   LIG    1        1.641   1.377  -3.022  0.00  0.00    -0.140 OA
ENDBRANCH  24  25
ENDBRANCH  16  18
ENDBRANCH  15  16
ENDBRANCH   1  15
TORSDOF 9
