REMARK  Name = ZINCkj000005hbvK.0
REMARK                            x       y       z     vdW  Elec       q    Type
REMARK                         _______ _______ _______ _____ _____    ______ ____
ROOT
ATOM      1  C   LIG    1       -1.198   2.114   0.034  0.00  0.00    +0.570 C 
ATOM      2  N   LIG    1       -0.024   1.453   0.021  0.00  0.00    -0.760 N 
ATOM      3  H   LIG    1        0.811   1.947   0.008  0.00  0.00    +0.390 HD
ATOM      4  O   LIG    1       -2.244   1.494   0.045  0.00  0.00    -0.460 OA
ENDROOT
BRANCH   1  11
ATOM      5  C   LIG    1       -2.427   4.290  -0.075  0.00  0.00    +0.380 A 
ATOM      6  N   LIG    1       -2.437   5.614  -0.070  0.00  0.00    -0.500 NA
ATOM      7  C   LIG    1       -1.325   6.316   0.025  0.00  0.00    +0.370 A 
ATOM      8  C   LIG    1       -0.092   5.696   0.130  0.00  0.00    -0.160 A 
ATOM      9  C   LIG    1       -0.022   4.314   0.136  0.00  0.00    +0.130 A 
ATOM     10 BR   LIG    1        1.486   6.730   0.266  0.00  0.00    -0.010 Br
ATOM     11  C   LIG    1       -1.215   3.588   0.033  0.00  0.00    -0.170 A 
BRANCH   5  13
ATOM     12  C   LIG    1       -4.563   4.003   0.864  0.00  0.00    +0.230 C 
ATOM     13  N   LIG    1       -3.618   3.594  -0.183  0.00  0.00    -0.480 N 
ATOM     14  C   LIG    1       -4.206   3.762  -1.519  0.00  0.00    +0.240 C 
ENDBRANCH   5  13
ENDBRANCH   1  11
BRANCH   2  15
ATOM     15  C   LIG    1       -0.008  -0.012   0.022  0.00  0.00    +0.320 C 
BRANCH  15  16
ATOM     16  C   LIG    1        1.440  -0.506  -0.001  0.00  0.00    +0.180 C 
ATOM     17  C   LIG    1        1.475  -2.038   0.182  0.00  0.00    +0.090 C 
ATOM     18  C   LIG    1        2.719  -2.254   1.083  0.00  0.00    +0.210 C 
ATOM     19  C   LIG    1        2.662  -1.008   2.001  0.00  0.00    +0.260 C 
ATOM     20  F   LIG    1        2.599  -3.432   1.830  0.00  0.00    -0.170 F 
ATOM     21  N   LIG    1        2.189   0.085   1.124  0.00  0.00    -0.520 N 
ATOM     22  H   LIG    1        1.586   0.703   1.646  0.00  0.00    +0.430 HD
ATOM     23  H   LIG    1        2.980   0.603   0.770  0.00  0.00    +0.440 HD
ENDBRANCH  15  16
ENDBRANCH   2  15
TORSDOF 4
