REMARK  Name = ZINCrH000004v5b8.0
REMARK                            x       y       z     vdW  Elec       q    Type
REMARK                         _______ _______ _______ _____ _____    ______ ____
ROOT
ATOM      1  O   LIG    1        1.387  -0.864   0.088  0.00  0.00    -0.480 OA
ATOM      2  C   LIG    1        2.426  -0.239   0.081  0.00  0.00    +0.510 C 
ATOM      3  N   LIG    1        2.402   1.105  -0.014  0.00  0.00    -0.660 N 
ATOM      4  H   LIG    1        3.233   1.600  -0.097  0.00  0.00    +0.420 HD
ENDROOT
BRANCH   3   5
ATOM      5  C   LIG    1        1.180   1.787   0.006  0.00  0.00    +0.140 A 
ATOM      6  C   LIG    1        0.124   1.299   0.763  0.00  0.00    +0.090 A 
ATOM      7  C   LIG    1       -1.083   1.971   0.778  0.00  0.00    +0.070 A 
ATOM      8  C   LIG    1       -1.236   3.136   0.047  0.00  0.00    -0.000 A 
ATOM      9  C   LIG    1       -0.184   3.625  -0.709  0.00  0.00    -0.160 A 
ATOM     10 CL   LIG    1       -2.752   3.982   0.072  0.00  0.00    -0.030 Cl
ATOM     11  C   LIG    1        1.022   2.954  -0.731  0.00  0.00    +0.070 A 
BRANCH   9  12
ATOM     12  C   LIG    1       -0.357   4.891  -1.508  0.00  0.00    +0.510 C 
ATOM     13  F   LIG    1       -0.674   5.946  -0.647  0.00  0.00    -0.170 F 
ATOM     14  F   LIG    1       -1.389   4.719  -2.437  0.00  0.00    -0.170 F 
ATOM     15  F   LIG    1        0.834   5.182  -2.183  0.00  0.00    -0.170 F 
ENDBRANCH   9  12
ENDBRANCH   3   5
BRANCH   2  16
ATOM     16  C   LIG    1        3.743  -0.964   0.179  0.00  0.00    +0.290 C 
BRANCH  16  17
ATOM     17  N   LIG    1        4.547  -0.680  -1.012  0.00  0.00    -0.310 N 
ATOM     18  C   LIG    1        4.087  -0.508  -2.265  0.00  0.00    +0.390 A 
ATOM     19  N   LIG    1        5.132  -0.272  -3.020  0.00  0.00    -0.290 NA
ATOM     20  N   LIG    1        6.180  -0.307  -2.272  0.00  0.00    -0.070 NA
ATOM     21  N   LIG    1        5.830  -0.553  -1.058  0.00  0.00    -0.070 NA
ENDBRANCH  16  17
BRANCH  16  22
ATOM     22  C   LIG    1        3.490  -2.470   0.276  0.00  0.00    +0.130 C 
BRANCH  22  23
ATOM     23  C   LIG    1        4.797  -3.186   0.497  0.00  0.00    -0.100 A 
ATOM     24  C   LIG    1        5.540  -3.620  -0.585  0.00  0.00    +0.010 A 
ATOM     25  C   LIG    1        6.741  -4.273  -0.382  0.00  0.00    +0.010 A 
ATOM     26  C   LIG    1        7.195  -4.501   0.903  0.00  0.00    +0.010 A 
ATOM     27  C   LIG    1        6.450  -4.071   1.986  0.00  0.00    +0.010 A 
ATOM     28  C   LIG    1        5.252  -3.414   1.783  0.00  0.00    +0.010 A 
ENDBRANCH  22  23
ENDBRANCH  16  22
ENDBRANCH   2  16
TORSDOF 6
