REMARK  Name = ZINCqH0000034znz.0
REMARK                            x       y       z     vdW  Elec       q    Type
REMARK                         _______ _______ _______ _____ _____    ______ ____
ROOT
ATOM      1  N   LIG    1       -1.318   5.540   4.598  0.00  0.00    -0.690 NA
ATOM      2  C   LIG    1       -1.237   4.837   3.473  0.00  0.00    +0.500 A 
ATOM      3  C   LIG    1       -1.803   3.565   3.237  0.00  0.00    -0.120 A 
ATOM      4  C   LIG    1       -1.501   3.195   1.975  0.00  0.00    +0.350 A 
ATOM      5  N   LIG    1       -0.755   4.177   1.392  0.00  0.00    -0.380 N 
ATOM      6  N   LIG    1       -0.586   5.212   2.322  0.00  0.00    -0.480 N 
ATOM      7  H   LIG    1       -0.101   6.040   2.179  0.00  0.00    +0.440 HD
ENDROOT
BRANCH   1  10
ATOM      8  C   LIG    1       -1.426   7.075   6.879  0.00  0.00    +0.280 C 
ATOM      9  N   LIG    1       -2.071   5.762   6.788  0.00  0.00    -0.610 N 
ATOM     10  C   LIG    1       -1.988   5.049   5.647  0.00  0.00    +0.690 C 
ATOM     11  O   LIG    1       -2.524   3.958   5.571  0.00  0.00    -0.620 OA
BRANCH   9  12
ATOM     12  C   LIG    1       -2.804   5.225   7.936  0.00  0.00    +0.290 C 
BRANCH  12  13
ATOM     13  C   LIG    1       -1.851   4.412   8.815  0.00  0.00    -0.040 C 
ATOM     14  C   LIG    1       -1.699   2.948   8.367  0.00  0.00    +0.030 C 
ATOM     15  C   LIG    1       -1.715   2.574   9.861  0.00  0.00    -0.010 C 
ATOM     16  C   LIG    1       -2.506   3.871  10.097  0.00  0.00    +0.010 C 
ENDBRANCH  12  13
ENDBRANCH   9  12
ENDBRANCH   1  10
BRANCH   5  17
ATOM     17  C   LIG    1       -0.225   4.156   0.026  0.00  0.00    +0.410 C 
BRANCH  17  18
ATOM     18  C   LIG    1        1.092   3.423   0.009  0.00  0.00    -0.110 A 
ATOM     19  C   LIG    1        2.261   4.119   0.002  0.00  0.00    +0.060 A 
ATOM     20  C   LIG    1        3.489   3.461  -0.013  0.00  0.00    +0.010 A 
ATOM     21  C   LIG    1        3.554   2.102  -0.021  0.00  0.00    +0.050 A 
ATOM     22  C   LIG    1        2.367   1.351  -0.013  0.00  0.00    -0.110 A 
ATOM     23  C   LIG    1        2.390  -0.057  -0.021  0.00  0.00    +0.090 A 
ATOM     24  C   LIG    1        1.196  -0.721  -0.013  0.00  0.00    -0.030 A 
ATOM     25  C   LIG    1        0.002  -0.004   0.002  0.00  0.00    +0.300 A 
ATOM     26  N   LIG    1       -0.016   1.307   0.009  0.00  0.00    -0.480 NA
ATOM     27  C   LIG    1        1.117   2.017   0.002  0.00  0.00    +0.150 A 
ENDBRANCH  17  18
ENDBRANCH   5  17
TORSDOF 5
