REMARK  Name = ZINCrD0000072QM5.0
REMARK                            x       y       z     vdW  Elec       q    Type
REMARK                         _______ _______ _______ _____ _____    ______ ____
ROOT
ATOM      1  C   LIG    1        1.239  -0.675  -0.013  0.00  0.00    +0.460 A 
ATOM      2  N   LIG    1        2.367   0.011  -0.009  0.00  0.00    -0.540 NA
ATOM      3  C   LIG    1        2.360   1.351  -0.002  0.00  0.00    +0.310 A 
ATOM      4  C   LIG    1        3.380   2.294   0.004  0.00  0.00    -0.260 A 
ATOM      5  C   LIG    1        2.791   3.550   0.011  0.00  0.00    +0.290 A 
ATOM      6  N   LIG    1        1.485   3.410   0.010  0.00  0.00    -0.320 NA
ATOM      7  C   LIG    1        4.859   2.004   0.002  0.00  0.00    +0.120 C 
ATOM      8  N   LIG    1        1.177   2.045   0.002  0.00  0.00    -0.330 N 
ATOM      9  C   LIG    1       -0.017   1.361  -0.003  0.00  0.00    +0.270 A 
ATOM     10  C   LIG    1        0.002  -0.004  -0.010  0.00  0.00    -0.090 A 
ENDROOT
BRANCH   1  15
ATOM     11  C   LIG    1        0.185  -3.834   1.253  0.00  0.00    +0.020 C 
ATOM     12  C   LIG    1        1.442  -4.680   1.031  0.00  0.00    +0.060 C 
ATOM     13  C   LIG    1        2.673  -3.771   1.010  0.00  0.00    -0.030 C 
ATOM     14  C   LIG    1        2.549  -2.776  -0.148  0.00  0.00    +0.300 C 
ATOM     15  N   LIG    1        1.273  -2.060  -0.021  0.00  0.00    -0.590 N 
ATOM     16  C   LIG    1        3.932  -4.620   0.822  0.00  0.00    +0.040 C 
ATOM     17  C   LIG    1        0.034  -2.840   0.103  0.00  0.00    +0.310 C 
BRANCH  11  18
ATOM     18  C   LIG    1       -1.023  -4.733   1.306  0.00  0.00    +0.470 C 
ATOM     19  O   LIG    1       -0.894  -5.927   1.179  0.00  0.00    -0.500 OA
BRANCH  18  21
ATOM     20  C   LIG    1       -3.362  -5.131   1.534  0.00  0.00    +0.260 C 
ATOM     21  O   LIG    1       -2.243  -4.206   1.494  0.00  0.00    -0.360 OA
ENDBRANCH  18  21
ENDBRANCH  11  18
ENDBRANCH   1  15
BRANCH   9  22
ATOM     22  C   LIG    1       -1.300   2.094  -0.005  0.00  0.00    -0.070 A 
ATOM     23  C   LIG    1       -1.647   2.896  -1.095  0.00  0.00    +0.050 A 
ATOM     24  C   LIG    1       -2.849   3.573  -1.093  0.00  0.00    +0.010 A 
ATOM     25  C   LIG    1       -3.705   3.467  -0.011  0.00  0.00    +0.030 A 
ATOM     26  C   LIG    1       -3.364   2.679   1.074  0.00  0.00    +0.010 A 
ATOM     27  C   LIG    1       -2.168   1.993   1.083  0.00  0.00    +0.050 A 
ENDBRANCH   9  22
TORSDOF 4
