REMARK  Name = ZINCtV000002POMX.0
REMARK                            x       y       z     vdW  Elec       q    Type
REMARK                         _______ _______ _______ _____ _____    ______ ____
ROOT
ATOM      1  O   LIG    1        5.590  -1.590  -6.206  0.00  0.00    -0.470 OA
ATOM      2  C   LIG    1        6.236  -1.931  -5.228  0.00  0.00    +0.540 A 
ATOM      3  N   LIG    1        5.779  -1.691  -3.988  0.00  0.00    -0.550 NA
ATOM      4  C   LIG    1        6.457  -2.049  -2.933  0.00  0.00    +0.460 A 
ATOM      5  N   LIG    1        7.645  -2.668  -3.013  0.00  0.00    -0.590 N 
ATOM      6  H   LIG    1        8.112  -2.910  -2.199  0.00  0.00    +0.420 HD
ATOM      7  C   LIG    1        8.210  -2.970  -4.234  0.00  0.00    +0.060 A 
ATOM      8  S   LIG    1        9.722  -3.766  -4.643  0.00  0.00    +0.190 S 
ATOM      9  C   LIG    1        9.421  -3.607  -6.363  0.00  0.00    -0.040 A 
ATOM     10  C   LIG    1        8.259  -2.995  -6.592  0.00  0.00    +0.010 A 
ATOM     11  C   LIG    1        7.534  -2.614  -5.388  0.00  0.00    -0.220 A 
ENDROOT
BRANCH  10  12
ATOM     12  C   LIG    1        7.748  -2.725  -7.957  0.00  0.00    -0.040 A 
ATOM     13  C   LIG    1        6.446  -3.088  -8.301  0.00  0.00    +0.060 A 
ATOM     14  C   LIG    1        5.974  -2.829  -9.571  0.00  0.00    +0.000 A 
ATOM     15  C   LIG    1        6.793  -2.221 -10.506  0.00  0.00    +0.010 A 
ATOM     16  C   LIG    1        8.086  -1.864 -10.172  0.00  0.00    -0.010 A 
ATOM     17  C   LIG    1        8.568  -2.112  -8.903  0.00  0.00    +0.020 A 
ENDBRANCH  10  12
BRANCH   4  18
ATOM     18  C   LIG    1        5.887  -1.750  -1.571  0.00  0.00    +0.160 C 
BRANCH  18  19
ATOM     19  S   LIG    1        4.290  -0.909  -1.755  0.00  0.00    -0.120 S 
BRANCH  19  20
ATOM     20  C   LIG    1        3.771  -0.637  -0.038  0.00  0.00    +0.100 C 
BRANCH  20  21
ATOM     21  C   LIG    1        2.438   0.065  -0.021  0.00  0.00    -0.060 A 
ATOM     22  C   LIG    1        2.380   1.424  -0.013  0.00  0.00    +0.040 A 
ATOM     23  C   LIG    1        1.156   2.091   0.002  0.00  0.00    +0.010 A 
ATOM     24  C   LIG    1       -0.017   1.401   0.010  0.00  0.00    +0.030 A 
ATOM     25  C   LIG    1        0.002  -0.004   0.002  0.00  0.00    -0.050 A 
ATOM     26  C   LIG    1       -1.188  -0.750   0.010  0.00  0.00    +0.030 A 
ATOM     27  C   LIG    1       -1.131  -2.110   0.003  0.00  0.00    +0.000 A 
ATOM     28  C   LIG    1        0.093  -2.776  -0.013  0.00  0.00    +0.010 A 
ATOM     29  C   LIG    1        1.266  -2.087  -0.021  0.00  0.00    +0.020 A 
ATOM     30  C   LIG    1        1.247  -0.682  -0.013  0.00  0.00    -0.040 A 
ENDBRANCH  20  21
ENDBRANCH  19  20
ENDBRANCH  18  19
ENDBRANCH   4  18
TORSDOF 5
