REMARK  Name = ZINCpk000000nSVp.0
REMARK                            x       y       z     vdW  Elec       q    Type
REMARK                         _______ _______ _______ _____ _____    ______ ____
ROOT
ATOM      1  C   LIG    1        1.317  -0.740  -0.015  0.00  0.00    +0.180 C 
ATOM      2  C   LIG    1        2.109  -0.457  -1.293  0.00  0.00    +0.030 C 
ENDROOT
BRANCH   1   3
ATOM      3  N   LIG    1        1.072  -2.183   0.101  0.00  0.00    -0.520 NA
ATOM      4  C   LIG    1        2.286  -2.891   0.531  0.00  0.00    +0.200 C 
ATOM      5  C   LIG    1        1.969  -4.377   0.716  0.00  0.00    +0.220 C 
ATOM      6  N   LIG    1        1.462  -4.928  -0.549  0.00  0.00    -0.460 N 
ATOM      7  C   LIG    1        0.249  -4.220  -0.980  0.00  0.00    +0.240 C 
ATOM      8  C   LIG    1        0.566  -2.734  -1.164  0.00  0.00    +0.210 C 
BRANCH   6   9
ATOM      9  C   LIG    1        1.232  -6.288  -0.440  0.00  0.00    +0.490 A 
ATOM     10  N   LIG    1        0.025  -6.763  -0.712  0.00  0.00    -0.550 NA
ATOM     11  C   LIG    1       -0.228  -8.059  -0.624  0.00  0.00    +0.340 A 
ATOM     12  C   LIG    1        0.785  -8.919  -0.230  0.00  0.00    -0.110 A 
ATOM     13  C   LIG    1        2.034  -8.388   0.052  0.00  0.00    +0.340 A 
ATOM     14  N   LIG    1        2.221  -7.084  -0.061  0.00  0.00    -0.530 NA
ENDBRANCH   6   9
ENDBRANCH   1   3
BRANCH   1  17
ATOM     15  N   LIG    1       -0.040   1.324   0.128  0.00  0.00    -0.650 N 
ATOM     16  H   LIG    1        0.780   1.813   0.302  0.00  0.00    +0.410 HD
ATOM     17  C   LIG    1        0.000  -0.009  -0.067  0.00  0.00    +0.530 C 
ATOM     18  O   LIG    1       -1.024  -0.621  -0.285  0.00  0.00    -0.480 OA
BRANCH  15  23
ATOM     19  N   LIG    1       -1.443   3.328   0.255  0.00  0.00    -0.380 N 
ATOM     20  N   LIG    1       -2.811   3.595   0.115  0.00  0.00    -0.290 NA
ATOM     21  C   LIG    1       -3.428   2.468  -0.134  0.00  0.00    +0.250 A 
ATOM     22  C   LIG    1       -2.477   1.444  -0.166  0.00  0.00    -0.110 A 
ATOM     23  C   LIG    1       -1.258   2.001   0.073  0.00  0.00    +0.300 A 
BRANCH  19  25
ATOM     24  C   LIG    1       -0.371   5.368  -0.565  0.00  0.00    +0.050 C 
ATOM     25  C   LIG    1       -0.398   4.313   0.543  0.00  0.00    +0.250 C 
ATOM     26  C   LIG    1       -0.691   4.989   1.884  0.00  0.00    +0.050 C 
ENDBRANCH  19  25
ENDBRANCH  15  23
ENDBRANCH   1  17
TORSDOF 5
