REMARK  Name = ZINCrg000000nQ49.0
REMARK                            x       y       z     vdW  Elec       q    Type
REMARK                         _______ _______ _______ _____ _____    ______ ____
ROOT
ATOM      1  C   LIG    1       -4.372  -4.867   0.016  0.00  0.00    -0.700 A 
ATOM      2  C   LIG    1       -4.718  -3.529   0.027  0.00  0.00    +0.160 A 
ATOM      3  C   LIG    1       -3.738  -2.559   0.023  0.00  0.00    +0.000 A 
ATOM      4  C   LIG    1       -2.389  -2.920   0.008  0.00  0.00    +0.200 A 
ATOM      5  C   LIG    1       -2.054  -4.265  -0.003  0.00  0.00    -0.150 A 
ATOM      6  C   LIG    1       -0.546  -4.385  -0.017  0.00  0.00    +0.110 C 
ATOM      7  C   LIG    1       -0.043  -2.932  -0.020  0.00  0.00    +0.290 C 
ATOM      8  N   LIG    1       -1.254  -2.106   0.002  0.00  0.00    -0.540 N 
ATOM      9  C   LIG    1       -1.270  -0.758   0.010  0.00  0.00    +0.600 C 
ATOM     10  O   LIG    1       -2.329  -0.163   0.022  0.00  0.00    -0.490 OA
ATOM     11  C   LIG    1       -3.039  -5.233   0.001  0.00  0.00    +0.160 A 
ENDROOT
BRANCH   9  12
ATOM     12  C   LIG    1        0.002  -0.004   0.002  0.00  0.00    +0.020 A 
ATOM     13  N   LIG    1        1.147  -0.650  -0.012  0.00  0.00    -0.170 NA
ATOM     14  N   LIG    1        2.277  -0.041  -0.020  0.00  0.00    -0.330 N 
ATOM     15  C   LIG    1        2.359   1.302  -0.013  0.00  0.00    +0.480 A 
ATOM     16  C   LIG    1        1.175   2.073   0.002  0.00  0.00    -0.010 A 
ATOM     17  O   LIG    1        3.449   1.851  -0.021  0.00  0.00    -0.510 OA
ATOM     18  C   LIG    1        3.511  -0.830  -0.036  0.00  0.00    +0.360 C 
ATOM     19  C   LIG    1       -0.017   1.412   0.010  0.00  0.00    +0.140 A 
ENDBRANCH   9  12
BRANCH   1  20
ATOM     20  S   LIG    1       -5.628  -6.103   0.020  0.00  0.00    +2.690 S 
ATOM     21  O   LIG    1       -6.785  -5.498   0.578  0.00  0.00    -0.950 OA
ATOM     22  O   LIG    1       -5.032  -7.279   0.552  0.00  0.00    -0.950 OA
BRANCH  20  23
ATOM     23  N   LIG    1       -5.991  -6.438  -1.561  0.00  0.00    -1.000 NA
BRANCH  23  25
ATOM     24  C   LIG    1       -6.050  -8.799  -2.196  0.00  0.00    +0.010 C 
ATOM     25  C   LIG    1       -5.262  -7.490  -2.273  0.00  0.00    +0.280 C 
ENDBRANCH  23  25
BRANCH  23  26
ATOM     26  C   LIG    1       -7.042  -5.682  -2.246  0.00  0.00    +0.290 C 
ATOM     27  C   LIG    1       -6.414  -4.521  -3.018  0.00  0.00    +0.010 C 
ENDBRANCH  23  26
ENDBRANCH  20  23
ENDBRANCH   1  20
TORSDOF 5
