REMARK  Name = ZINCtj00000rYUhK.0
REMARK                            x       y       z     vdW  Elec       q    Type
REMARK                         _______ _______ _______ _____ _____    ______ ____
ROOT
ATOM      1  C   LIG    1       -0.153   1.302   2.456  0.00  0.00    +0.750 C 
ENDROOT
BRANCH   1   2
ATOM      2  N   LIG    1       -0.724   1.824   3.592  0.00  0.00    -0.680 NA
ATOM      3  C   LIG    1       -0.480   3.219   3.988  0.00  0.00    +0.330 C 
ATOM      4  C   LIG    1       -1.838   3.892   4.245  0.00  0.00    +0.200 C 
ATOM      5  N   LIG    1       -2.597   3.095   5.218  0.00  0.00    -0.470 N 
ATOM      6  C   LIG    1       -2.899   1.758   4.691  0.00  0.00    +0.220 C 
ATOM      7  C   LIG    1       -1.590   0.999   4.449  0.00  0.00    +0.310 C 
BRANCH   5   8
ATOM      8  C   LIG    1       -3.759   3.753   5.602  0.00  0.00    +0.300 A 
ATOM      9  C   LIG    1       -3.681   5.038   6.129  0.00  0.00    -0.040 A 
ATOM     10  C   LIG    1       -4.845   5.682   6.507  0.00  0.00    +0.090 A 
ATOM     11  C   LIG    1       -6.053   5.017   6.346  0.00  0.00    -0.050 A 
ATOM     12  C   LIG    1       -6.057   3.742   5.816  0.00  0.00    +0.290 A 
ATOM     13  N   LIG    1       -4.931   3.154   5.459  0.00  0.00    -0.520 NA
ENDBRANCH   5   8
ENDBRANCH   1   2
BRANCH   1  14
ATOM     14  N   LIG    1        0.866   0.494   2.550  0.00  0.00    -0.610 NA
ATOM     15  H   LIG    1        1.271   0.130   1.748  0.00  0.00    +0.430 HD
BRANCH  14  16
ATOM     16  C   LIG    1        1.399   0.138   3.867  0.00  0.00    +0.240 C 
ATOM     17  C   LIG    1        2.392   1.208   4.322  0.00  0.00    +0.070 C 
BRANCH  16  18
ATOM     18  C   LIG    1        2.110  -1.214   3.780  0.00  0.00    +0.200 C 
BRANCH  18  20
ATOM     19  C   LIG    1        3.991  -2.312   2.780  0.00  0.00    +0.230 C 
ATOM     20  O   LIG    1        3.252  -1.098   2.929  0.00  0.00    -0.390 OA
ENDBRANCH  18  20
ENDBRANCH  16  18
ENDBRANCH  14  16
ENDBRANCH   1  14
BRANCH   1  21
ATOM     21  N   LIG    1       -0.656   1.633   1.220  0.00  0.00    -0.660 NA
ATOM     22  H   LIG    1       -1.462   2.168   1.152  0.00  0.00    +0.440 HD
BRANCH  21  23
ATOM     23  C   LIG    1        0.024   1.175   0.005  0.00  0.00    +0.310 C 
BRANCH  23  24
ATOM     24  C   LIG    1       -0.736   1.676  -1.224  0.00  0.00    +0.130 C 
ATOM     25  C   LIG    1       -0.097   1.099  -2.491  0.00  0.00    +0.210 C 
ATOM     26  O   LIG    1       -0.742   1.660  -3.639  0.00  0.00    -0.360 OA
ATOM     27  C   LIG    1       -0.679   3.088  -3.690  0.00  0.00    +0.210 C 
ATOM     28  C   LIG    1       -1.318   3.665  -2.424  0.00  0.00    +0.080 C 
ATOM     29  C   LIG    1       -2.807   3.315  -2.397  0.00  0.00    +0.020 C 
ATOM     30  C   LIG    1       -1.150   5.186  -2.413  0.00  0.00    +0.080 C 
ATOM     31  O   LIG    1       -0.675   3.105  -1.275  0.00  0.00    -0.370 OA
ENDBRANCH  23  24
ENDBRANCH  21  23
ENDBRANCH   1  21
TORSDOF 9
