REMARK  Name = ZINCpk00000KfLjT.2
REMARK                            x       y       z     vdW  Elec       q    Type
REMARK                         _______ _______ _______ _____ _____    ______ ____
ROOT
ATOM      1  N   LIG    1        2.454  -5.465  -3.120  0.00  0.00    -0.520 NA
ATOM      2  C   LIG    1        2.111  -5.999  -1.785  0.00  0.00    +0.170 C 
ATOM      3  C   LIG    1        1.561  -4.781  -1.001  0.00  0.00    +0.040 C 
ATOM      4  C   LIG    1        2.473  -3.638  -1.518  0.00  0.00    +0.110 C 
ATOM      5  C   LIG    1        2.700  -4.016  -2.997  0.00  0.00    +0.210 C 
ENDROOT
BRANCH   4   6
ATOM      6  N   LIG    1        1.791  -2.341  -1.413  0.00  0.00    -0.520 NA
ATOM      7  C   LIG    1        1.441  -2.042  -0.018  0.00  0.00    +0.200 C 
BRANCH   6   8
ATOM      8  C   LIG    1        2.609  -1.267  -1.992  0.00  0.00    +0.310 C 
BRANCH   8   9
ATOM      9  C   LIG    1        1.788  -0.008  -2.090  0.00  0.00    +0.180 A 
ATOM     10  N   LIG    1        1.681   0.914  -1.180  0.00  0.00    -0.380 NA
ATOM     11  O   LIG    1        0.946   1.800  -1.563  0.00  0.00    +0.080 OA
ATOM     12  C   LIG    1        0.500   1.518  -2.791  0.00  0.00    +0.180 A 
ATOM     13  C   LIG    1       -0.435   2.360  -3.621  0.00  0.00    +0.250 C 
ATOM     14  N   LIG    1        1.030   0.369  -3.136  0.00  0.00    -0.470 NA
ENDBRANCH   8   9
ENDBRANCH   6   8
ENDBRANCH   4   6
BRANCH   1  15
ATOM     15  C   LIG    1        3.627  -6.152  -3.676  0.00  0.00    +0.220 C 
BRANCH  15  19
ATOM     16  C   LIG    1        2.589 -10.187  -4.641  0.00  0.00    -0.140 A 
ATOM     17  C   LIG    1        2.437  -9.177  -5.593  0.00  0.00    +0.080 A 
ATOM     18  C   LIG    1        2.774  -7.878  -5.275  0.00  0.00    +0.030 A 
ATOM     19  C   LIG    1        3.262  -7.574  -4.016  0.00  0.00    -0.050 A 
ATOM     20  C   LIG    1        3.420  -8.571  -3.070  0.00  0.00    +0.010 A 
ATOM     21  C   LIG    1        3.082  -9.874  -3.373  0.00  0.00    +0.030 A 
BRANCH  16  25
ATOM     22  C   LIG    1        2.021 -13.936  -4.383  0.00  0.00    +0.290 C 
ATOM     23  N   LIG    1        2.378 -12.554  -4.053  0.00  0.00    -0.730 N 
ATOM     24  H   LIG    1        2.720 -12.339  -3.171  0.00  0.00    +0.400 HD
ATOM     25  C   LIG    1        2.230 -11.582  -4.974  0.00  0.00    +0.560 C 
ATOM     26  O   LIG    1        1.800 -11.851  -6.079  0.00  0.00    -0.530 OA
ENDBRANCH  16  25
ENDBRANCH  15  19
ENDBRANCH   1  15
TORSDOF 6
