REMARK  Name = ZINCpk00000y6uqr.0
REMARK                            x       y       z     vdW  Elec       q    Type
REMARK                         _______ _______ _______ _____ _____    ______ ____
ROOT
ATOM      1  C   LIG    1       -6.304   7.419   0.395  0.00  0.00    +0.380 C 
ATOM      2  C   LIG    1       -7.816   7.698   0.520  0.00  0.00    +0.090 C 
ATOM      3  C   LIG    1       -8.379   6.344   1.026  0.00  0.00    +0.060 C 
ATOM      4  C   LIG    1       -7.470   5.333   0.279  0.00  0.00    +0.260 C 
ATOM      5  N   LIG    1       -6.138   5.963   0.269  0.00  0.00    -0.630 N 
ATOM      6  C   LIG    1       -4.962   5.314   0.158  0.00  0.00    +0.720 C 
ATOM      7  N   LIG    1       -4.942   3.970   0.049  0.00  0.00    -0.680 N 
ATOM      8  H   LIG    1       -5.774   3.478  -0.028  0.00  0.00    +0.420 HD
ATOM      9  O   LIG    1       -3.920   5.939   0.155  0.00  0.00    -0.550 OA
ENDROOT
BRANCH   7  10
ATOM     10  C   LIG    1       -3.721   3.287   0.045  0.00  0.00    +0.220 A 
ATOM     11  C   LIG    1       -2.653   3.766   0.792  0.00  0.00    +0.040 A 
ATOM     12  C   LIG    1       -1.449   3.089   0.786  0.00  0.00    +0.130 A 
ATOM     13  C   LIG    1       -1.307   1.935   0.037  0.00  0.00    -0.060 A 
ATOM     14  C   LIG    1       -2.366   1.459  -0.713  0.00  0.00    +0.130 A 
ATOM     15  C   LIG    1       -3.575   2.128  -0.706  0.00  0.00    +0.000 A 
BRANCH  13  16
ATOM     16  N   LIG    1       -0.015   1.213   0.032  0.00  0.00    +0.030 N 
ATOM     17  O   LIG    1        0.111   0.194  -0.623  0.00  0.00    -0.160 OA
ATOM     18  O   LIG    1        0.921   1.634   0.688  0.00  0.00    -0.160 OA
ENDBRANCH  13  16
ENDBRANCH   7  10
BRANCH   1  22
ATOM     19  C   LIG    1       -4.412   9.023   2.996  0.00  0.00    +0.140 A 
ATOM     20  N   LIG    1       -4.922   7.985   3.605  0.00  0.00    -0.350 NA
ATOM     21  O   LIG    1       -5.603   7.342   2.835  0.00  0.00    +0.100 OA
ATOM     22  C   LIG    1       -5.588   7.912   1.626  0.00  0.00    +0.180 A 
ATOM     23  N   LIG    1       -4.839   8.982   1.713  0.00  0.00    -0.420 NA
BRANCH  19  27
ATOM     24  N   LIG    1       -3.183   9.967   4.898  0.00  0.00    -0.830 N 
ATOM     25  H   LIG    1       -2.607  10.640   5.292  0.00  0.00    +0.420 HD
ATOM     26  H   LIG    1       -3.510   9.232   5.440  0.00  0.00    +0.410 HD
ATOM     27  C   LIG    1       -3.530  10.053   3.599  0.00  0.00    +0.620 C 
ATOM     28  O   LIG    1       -3.120  10.974   2.921  0.00  0.00    -0.490 OA
ENDBRANCH  19  27
ENDBRANCH   1  22
TORSDOF 4
