REMARK  Name = ZINCvU0000000JS1.0
REMARK                            x       y       z     vdW  Elec       q    Type
REMARK                         _______ _______ _______ _____ _____    ______ ____
ROOT
ATOM      1  C   LIG    1       -2.553   3.869   0.044  0.00  0.00    +0.290 C 
ATOM      2  C   LIG    1       -3.108   3.892   1.470  0.00  0.00    +0.040 C 
ENDROOT
BRANCH   1   6
ATOM      3  C   LIG    1        1.175   1.783   0.000  0.00  0.00    -0.680 A 
ATOM      4  C   LIG    1       -0.013   1.076   0.008  0.00  0.00    +0.130 A 
ATOM      5  C   LIG    1       -1.219   1.751   0.017  0.00  0.00    -0.010 A 
ATOM      6  C   LIG    1       -1.238   3.133   0.029  0.00  0.00    -0.040 A 
ATOM      7  C   LIG    1       -0.050   3.840   0.022  0.00  0.00    +0.010 A 
ATOM      8  C   LIG    1        1.156   3.165   0.008  0.00  0.00    +0.130 A 
BRANCH   3   9
ATOM      9  S   LIG    1        2.713   0.923  -0.018  0.00  0.00    +2.690 S 
ATOM     10  O   LIG    1        2.458  -0.366   0.522  0.00  0.00    -0.950 OA
ATOM     11  O   LIG    1        3.678   1.815   0.522  0.00  0.00    -0.950 OA
BRANCH   9  12
ATOM     12  N   LIG    1        3.126   0.692  -1.605  0.00  0.00    -1.000 NA
BRANCH  12  14
ATOM     13  C   LIG    1        5.405   1.304  -2.245  0.00  0.00    +0.010 C 
ATOM     14  C   LIG    1        3.928   1.697  -2.307  0.00  0.00    +0.280 C 
ENDBRANCH  12  14
BRANCH  12  15
ATOM     15  C   LIG    1        2.689  -0.518  -2.307  0.00  0.00    +0.290 C 
ATOM     16  C   LIG    1        1.393  -0.227  -3.066  0.00  0.00    +0.010 C 
ENDBRANCH  12  15
ENDBRANCH   9  12
ENDBRANCH   3   9
ENDBRANCH   1   6
BRANCH   1  17
ATOM     17  N   LIG    1       -3.503   3.188  -0.839  0.00  0.00    -0.720 N 
ATOM     18  H   LIG    1       -3.397   2.243  -1.030  0.00  0.00    +0.400 HD
ATOM     19  C   LIG    1       -4.525   3.875  -1.387  0.00  0.00    +0.560 C 
ATOM     20  O   LIG    1       -4.659   5.059  -1.147  0.00  0.00    -0.530 OA
BRANCH  19  21
ATOM     21  C   LIG    1       -5.484   3.188  -2.278  0.00  0.00    -0.120 A 
ATOM     22  C   LIG    1       -5.331   1.830  -2.559  0.00  0.00    +0.040 A 
ATOM     23  C   LIG    1       -6.232   1.194  -3.388  0.00  0.00    +0.050 A 
ATOM     24  C   LIG    1       -7.280   1.902  -3.948  0.00  0.00    -0.040 A 
ATOM     25  C   LIG    1       -7.435   3.250  -3.677  0.00  0.00    +0.030 A 
ATOM     26  C   LIG    1       -6.544   3.897  -2.846  0.00  0.00    +0.080 A 
BRANCH  24  27
ATOM     27  C   LIG    1       -8.257   1.202  -4.857  0.00  0.00    +0.120 C 
ATOM     28  S   LIG    1       -9.067  -0.148  -3.953  0.00  0.00    -0.210 S 
ATOM     29  C   LIG    1      -10.120  -0.907  -5.219  0.00  0.00    +0.110 C 
ATOM     30  C   LIG    1       -9.263  -1.467  -6.348  0.00  0.00    +0.060 C 
ATOM     31  C   LIG    1       -8.684  -0.342  -7.199  0.00  0.00    +0.110 C 
ATOM     32  S   LIG    1       -7.373   0.516  -6.286  0.00  0.00    -0.210 S 
ENDBRANCH  24  27
ENDBRANCH  19  21
ENDBRANCH   1  17
TORSDOF 8
