REMARK  Name = ZINCqH0000038His.0
REMARK                            x       y       z     vdW  Elec       q    Type
REMARK                         _______ _______ _______ _____ _____    ______ ____
ROOT
ATOM      1  N   LIG    1       -0.995  -0.905  -0.287  0.00  0.00    -0.950 N 
ATOM      2  C   LIG    1       -1.472  -1.547   0.940  0.00  0.00    +0.310 C 
ENDROOT
BRANCH   1   3
ATOM      3  C   LIG    1        0.152  -0.112  -0.260  0.00  0.00    +0.140 A 
ATOM      4  C   LIG    1        1.406  -0.697  -0.359  0.00  0.00    +0.020 A 
ATOM      5  C   LIG    1        2.541   0.090  -0.332  0.00  0.00    +0.020 A 
ATOM      6  C   LIG    1        2.435   1.464  -0.204  0.00  0.00    +0.030 A 
ATOM      7  C   LIG    1        1.194   2.060  -0.104  0.00  0.00    +0.030 A 
ATOM      8  C   LIG    1        0.043   1.278  -0.131  0.00  0.00    -0.020 A 
BRANCH   8   9
ATOM      9  C   LIG    1       -1.293   1.914  -0.029  0.00  0.00    -0.060 A 
ATOM     10  C   LIG    1       -1.674   2.891  -0.947  0.00  0.00    +0.040 A 
ATOM     11  C   LIG    1       -2.920   3.476  -0.851  0.00  0.00    +0.010 A 
ATOM     12  C   LIG    1       -3.786   3.102   0.161  0.00  0.00    +0.010 A 
ATOM     13  C   LIG    1       -3.411   2.137   1.078  0.00  0.00    +0.010 A 
ATOM     14  C   LIG    1       -2.170   1.541   0.988  0.00  0.00    +0.020 A 
ENDBRANCH   8   9
ENDBRANCH   1   3
BRANCH   1  15
ATOM     15  S   LIG    1       -1.818  -1.121  -1.708  0.00  0.00    +2.690 S 
ATOM     16  O   LIG    1       -1.401  -0.076  -2.576  0.00  0.00    -0.930 OA
ATOM     17  O   LIG    1       -3.176  -1.344  -1.356  0.00  0.00    -0.930 OA
BRANCH  15  22
ATOM     18  C   LIG    1        0.029  -6.322  -4.058  0.00  0.00    +0.160 C 
ATOM     19  C   LIG    1       -0.412  -5.000  -3.483  0.00  0.00    +0.240 A 
ATOM     20  N   LIG    1       -1.433  -4.957  -2.653  0.00  0.00    -0.490 NA
ATOM     21  C   LIG    1       -1.855  -3.824  -2.125  0.00  0.00    +0.410 A 
ATOM     22  C   LIG    1       -1.237  -2.623  -2.424  0.00  0.00    -0.750 A 
ATOM     23  C   LIG    1       -0.162  -2.613  -3.296  0.00  0.00    +0.240 A 
ATOM     24  C   LIG    1        0.266  -3.832  -3.835  0.00  0.00    -0.100 A 
BRANCH  24  25
ATOM     25  C   LIG    1        1.377  -3.878  -4.738  0.00  0.00    +0.250 C 
ATOM     26  N   LIG    1        2.258  -3.915  -5.454  0.00  0.00    -0.390 NA
ENDBRANCH  24  25
ENDBRANCH  15  22
ENDBRANCH   1  15
TORSDOF 5
