REMARK  Name = ZINCpe000000YVGn.0
REMARK                            x       y       z     vdW  Elec       q    Type
REMARK                         _______ _______ _______ _____ _____    ______ ____
ROOT
ATOM      1  C   LIG    1       -0.018   1.461   0.010  0.00  0.00    +0.420 C 
ENDROOT
BRANCH   1   2
ATOM      2  N   LIG    1        0.002  -0.004   0.002  0.00  0.00    -0.570 N 
ATOM      3  C   LIG    1        0.979  -0.746   0.537  0.00  0.00    +0.710 C 
ATOM      4  N   LIG    1        0.755  -2.067   0.400  0.00  0.00    -0.710 N 
ATOM      5  H   LIG    1        1.324  -2.788   0.712  0.00  0.00    +0.440 HD
ATOM      6  C   LIG    1       -0.518  -2.200  -0.320  0.00  0.00    +0.130 C 
ATOM      7  C   LIG    1       -0.307  -2.912  -1.652  0.00  0.00    +0.050 C 
ATOM      8  C   LIG    1        0.166  -4.345  -1.397  0.00  0.00    +0.030 C 
ATOM      9  C   LIG    1       -0.881  -5.087  -0.563  0.00  0.00    +0.010 C 
ATOM     10  C   LIG    1       -1.063  -4.374   0.778  0.00  0.00    +0.020 C 
ATOM     11  C   LIG    1       -1.541  -2.941   0.533  0.00  0.00    +0.050 C 
ATOM     12  O   LIG    1        1.957  -0.280   1.088  0.00  0.00    -0.540 OA
ATOM     13  C   LIG    1       -0.959  -0.772  -0.551  0.00  0.00    +0.540 C 
ATOM     14  O   LIG    1       -1.965  -0.397  -1.114  0.00  0.00    -0.450 OA
ENDBRANCH   1   2
BRANCH   1  15
ATOM     15  C   LIG    1       -0.723   1.947   1.250  0.00  0.00    +0.450 C 
ATOM     16  O   LIG    1       -1.164   1.151   2.045  0.00  0.00    -0.500 OA
BRANCH  15  17
ATOM     17  O   LIG    1       -0.862   3.264   1.471  0.00  0.00    -0.330 OA
BRANCH  17  18
ATOM     18  C   LIG    1       -1.552   3.659   2.685  0.00  0.00    +0.250 C 
BRANCH  18  20
ATOM     19  O   LIG    1       -1.120   5.835   1.880  0.00  0.00    -0.510 OA
ATOM     20  C   LIG    1       -1.611   5.163   2.762  0.00  0.00    +0.520 C 
ATOM     21  N   LIG    1       -2.210   5.761   3.811  0.00  0.00    -0.720 N 
ATOM     22  H   LIG    1       -2.603   5.224   4.517  0.00  0.00    +0.400 HD
BRANCH  21  23
ATOM     23  C   LIG    1       -2.267   7.223   3.886  0.00  0.00    +0.230 C 
ATOM     24  C   LIG    1       -0.992   7.768   4.561  0.00  0.00    +0.000 C 
ATOM     25  C   LIG    1       -1.494   8.963   5.411  0.00  0.00    +0.010 C 
ATOM     26  C   LIG    1       -2.856   8.455   5.945  0.00  0.00    +0.010 C 
ATOM     27  C   LIG    1       -3.452   7.660   4.766  0.00  0.00    +0.020 C 
ENDBRANCH  21  23
ENDBRANCH  18  20
ENDBRANCH  17  18
ENDBRANCH  15  17
ENDBRANCH   1  15
TORSDOF 6
