REMARK  Name = ZINCpk00000KfLP0.0
REMARK                            x       y       z     vdW  Elec       q    Type
REMARK                         _______ _______ _______ _____ _____    ______ ____
ROOT
ATOM      1  N   LIG    1        3.472   3.090   0.786  0.00  0.00    -0.680 N 
ATOM      2  H   LIG    1        3.839   3.289  -0.090  0.00  0.00    +0.400 HD
ATOM      3  C   LIG    1        2.436   2.235   0.904  0.00  0.00    +0.710 C 
ATOM      4  N   LIG    1        1.924   1.642  -0.192  0.00  0.00    -0.630 N 
ATOM      5  C   LIG    1        2.525   1.853  -1.519  0.00  0.00    +0.250 C 
ATOM      6  C   LIG    1        1.412   2.252  -2.495  0.00  0.00    +0.220 C 
ATOM      7  O   LIG    1        0.355   1.292  -2.422  0.00  0.00    -0.370 OA
ATOM      8  C   LIG    1       -0.279   1.216  -1.143  0.00  0.00    +0.220 C 
ATOM      9  C   LIG    1        0.747   0.764  -0.098  0.00  0.00    +0.220 C 
ATOM     10  O   LIG    1        1.965   2.000   2.000  0.00  0.00    -0.550 OA
ENDROOT
BRANCH   1  17
ATOM     11  C   LIG    1        6.087   4.194   0.601  0.00  0.00    +0.090 C 
ATOM     12  C   LIG    1        5.292   4.242   1.881  0.00  0.00    -0.100 A 
ATOM     13  C   LIG    1        5.830   4.835   3.005  0.00  0.00    +0.010 A 
ATOM     14  C   LIG    1        5.098   4.880   4.185  0.00  0.00    +0.090 A 
ATOM     15  C   LIG    1        3.824   4.329   4.232  0.00  0.00    -0.020 A 
ATOM     16  C   LIG    1        3.284   3.741   3.105  0.00  0.00    +0.060 A 
ATOM     17  C   LIG    1        4.018   3.692   1.928  0.00  0.00    +0.140 A 
BRANCH  14  18
ATOM     18  N   LIG    1        5.643   5.481   5.325  0.00  0.00    -0.490 N 
ATOM     19  C   LIG    1        6.928   4.863   5.682  0.00  0.00    +0.160 C 
ATOM     20  C   LIG    1        7.517   5.588   6.895  0.00  0.00    +0.220 C 
ATOM     21  O   LIG    1        6.577   5.544   7.972  0.00  0.00    -0.380 OA
ATOM     22  C   LIG    1        5.314   6.137   7.659  0.00  0.00    +0.220 C 
ATOM     23  C   LIG    1        4.703   5.418   6.454  0.00  0.00    +0.160 C 
ENDBRANCH  14  18
ENDBRANCH   1  17
BRANCH   9  24
ATOM     24  C   LIG    1        0.137   0.868   1.302  0.00  0.00    +0.080 C 
BRANCH  24  25
ATOM     25  C   LIG    1       -1.145   0.035   1.363  0.00  0.00    +0.160 C 
BRANCH  25  26
ATOM     26  O   LIG    1       -1.761   0.202   2.641  0.00  0.00    -0.570 OA
ATOM     27  H   LIG    1       -2.581  -0.299   2.751  0.00  0.00    +0.380 HD
ENDBRANCH  25  26
ENDBRANCH  24  25
ENDBRANCH   9  24
TORSDOF 5
