REMARK  Name = ZINCpe000000WJoo.0
REMARK                            x       y       z     vdW  Elec       q    Type
REMARK                         _______ _______ _______ _____ _____    ______ ____
ROOT
ATOM      1  C   LIG    1        1.098   1.221   0.083  0.00  0.00    -0.660 A 
ATOM      2  C   LIG    1        1.196   2.595  -0.030  0.00  0.00    +0.110 A 
ATOM      3  C   LIG    1        0.051   3.371  -0.080  0.00  0.00    +0.010 A 
ATOM      4  C   LIG    1       -1.189   2.763  -0.015  0.00  0.00    -0.030 A 
ATOM      5  C   LIG    1       -2.445   3.608  -0.071  0.00  0.00    +0.050 C 
ATOM      6  C   LIG    1       -3.113   3.566   1.307  0.00  0.00    +0.270 C 
ATOM      7  N   LIG    1       -3.962   2.392   1.435  0.00  0.00    -0.480 N 
ATOM      8  C   LIG    1       -3.289   1.106   1.512  0.00  0.00    +0.260 C 
ATOM      9  C   LIG    1       -2.650   0.743   0.168  0.00  0.00    +0.070 C 
ATOM     10  C   LIG    1       -1.286   1.397   0.092  0.00  0.00    -0.100 A 
ATOM     11  C   LIG    1       -0.146   0.618   0.147  0.00  0.00    +0.120 A 
ENDROOT
BRANCH   7  12
ATOM     12  C   LIG    1       -4.947   2.381   0.455  0.00  0.00    +0.320 A 
ATOM     13  C   LIG    1       -5.623   3.554   0.132  0.00  0.00    +0.150 A 
ATOM     14  N   LIG    1       -6.555   3.544  -0.802  0.00  0.00    -0.380 NA
ATOM     15  C   LIG    1       -6.858   2.420  -1.426  0.00  0.00    +0.170 A 
ATOM     16  C   LIG    1       -6.191   1.244  -1.105  0.00  0.00    +0.310 A 
ATOM     17  N   LIG    1       -5.250   1.250  -0.171  0.00  0.00    -0.540 NA
BRANCH  16  18
ATOM     18  O   LIG    1       -6.503   0.090  -1.746  0.00  0.00    -0.290 OA
BRANCH  18  19
ATOM     19  C   LIG    1       -5.778  -1.081  -1.365  0.00  0.00    +0.220 C 
BRANCH  19  20
ATOM     20  C   LIG    1       -6.264  -2.274  -2.190  0.00  0.00    +0.200 C 
BRANCH  20  21
ATOM     21  O   LIG    1       -5.945  -2.063  -3.567  0.00  0.00    -0.570 OA
ATOM     22  H   LIG    1       -6.225  -2.781  -4.150  0.00  0.00    +0.380 HD
ENDBRANCH  20  21
ENDBRANCH  19  20
ENDBRANCH  18  19
ENDBRANCH  16  18
ENDBRANCH   7  12
BRANCH   1  24
ATOM     23  C   LIG    1        2.912  -0.159  -1.589  0.00  0.00    -0.260 C 
ATOM     24  S   LIG    1        2.558   0.237   0.146  0.00  0.00    +2.500 S 
ATOM     25  O   LIG    1        2.163  -0.931   0.853  0.00  0.00    -0.940 OA
ATOM     26  O   LIG    1        3.548   1.111   0.670  0.00  0.00    -0.940 OA
ENDBRANCH   1  24
TORSDOF 6
