REMARK  Name = ZINCnE000008JfhA.0
REMARK                            x       y       z     vdW  Elec       q    Type
REMARK                         _______ _______ _______ _____ _____    ______ ____
ROOT
ATOM      1  C   LIG    1        8.427  -2.806  -0.094  0.00  0.00    +0.170 A 
ATOM      2  C   LIG    1        7.920  -2.350   1.114  0.00  0.00    -0.100 A 
ATOM      3  C   LIG    1        6.893  -1.425   1.126  0.00  0.00    +0.150 A 
ATOM      4  C   LIG    1        6.363  -0.963  -0.065  0.00  0.00    -0.640 A 
ATOM      5  C   LIG    1        6.866  -1.417  -1.270  0.00  0.00    +0.160 A 
ATOM      6  C   LIG    1        7.897  -2.336  -1.288  0.00  0.00    -0.130 A 
ENDROOT
BRANCH   6   7
ATOM      7  C   LIG    1        8.445  -2.829  -2.602  0.00  0.00    -0.020 C 
ATOM      8  C   LIG    1        8.269  -4.346  -2.691  0.00  0.00    +0.030 C 
ATOM      9  C   LIG    1        9.933  -2.482  -2.696  0.00  0.00    +0.030 C 
ATOM     10  C   LIG    1        7.692  -2.159  -3.753  0.00  0.00    +0.030 C 
ENDBRANCH   6   7
BRANCH   4  11
ATOM     11  S   LIG    1        5.049   0.211  -0.046  0.00  0.00    +2.600 S 
ATOM     12  O   LIG    1        5.125   0.877   1.207  0.00  0.00    -1.030 OA
ATOM     13  O   LIG    1        5.101   0.891  -1.292  0.00  0.00    -1.030 OA
BRANCH  11  14
ATOM     14  N   LIG    1        3.630  -0.643  -0.037  0.00  0.00    -1.080 NA
BRANCH  14  15
ATOM     15  C   LIG    1        2.406   0.036  -0.021  0.00  0.00    +0.260 A 
ATOM     16  C   LIG    1        2.379   1.422  -0.013  0.00  0.00    -0.160 A 
ATOM     17  C   LIG    1        1.169   2.090   0.002  0.00  0.00    +0.030 A 
ATOM     18  C   LIG    1       -0.017   1.379   0.010  0.00  0.00    -0.110 A 
ATOM     19  C   LIG    1        0.002  -0.004   0.002  0.00  0.00    +0.010 A 
ATOM     20  C   LIG    1        1.210  -0.680  -0.014  0.00  0.00    +0.030 A 
BRANCH  20  21
ATOM     21  O   LIG    1        1.230  -2.040  -0.022  0.00  0.00    -0.480 OA
ATOM     22  H   LIG    1        1.227  -2.428  -0.908  0.00  0.00    +0.360 HD
ENDBRANCH  20  21
ENDBRANCH  14  15
ENDBRANCH  11  14
ENDBRANCH   4  11
BRANCH   1  24
ATOM     23  C   LIG    1        9.937  -4.149   1.157  0.00  0.00    +0.230 C 
ATOM     24  O   LIG    1        9.441  -3.710  -0.109  0.00  0.00    -0.310 OA
ENDBRANCH   1  24
TORSDOF 6
