REMARK  Name = ZINCkj00000dDGBG.0
REMARK                            x       y       z     vdW  Elec       q    Type
REMARK                         _______ _______ _______ _____ _____    ______ ____
ROOT
ATOM      1  C   LIG    1        2.368   4.002   0.001  0.00  0.00    +0.340 C 
ENDROOT
BRANCH   1   5
ATOM      2  C   LIG    1        2.028   7.175  -3.598  0.00  0.00    +0.070 C 
ATOM      3  C   LIG    1        2.602   5.816  -3.193  0.00  0.00    +0.010 C 
ATOM      4  C   LIG    1        1.792   5.199  -2.025  0.00  0.00    +0.260 C 
ATOM      5  N   LIG    1        2.765   4.277  -1.386  0.00  0.00    -0.400 N 
ATOM      6  C   LIG    1        4.066   4.980  -1.414  0.00  0.00    +0.280 C 
ATOM      7  H   LIG    1        2.824   3.416  -1.909  0.00  0.00    +0.430 HD
ATOM      8  C   LIG    1        4.015   5.978  -2.586  0.00  0.00    +0.010 C 
BRANCH   8   9
ATOM      9  C   LIG    1        5.083   5.630  -3.626  0.00  0.00    +0.200 C 
BRANCH   9  10
ATOM     10  O   LIG    1        6.380   5.835  -3.063  0.00  0.00    -0.570 OA
ATOM     11  H   LIG    1        7.107   5.633  -3.668  0.00  0.00    +0.400 HD
ENDBRANCH   9  10
ENDBRANCH   8   9
ENDBRANCH   1   5
BRANCH   1  12
ATOM     12  C   LIG    1        1.105   3.179   0.008  0.00  0.00    -0.240 A 
ATOM     13  C   LIG    1        1.171   1.794   0.001  0.00  0.00    +0.150 A 
ATOM     14  C   LIG    1       -0.013   1.076   0.008  0.00  0.00    -0.020 A 
ATOM     15  C   LIG    1       -1.219   1.763   0.017  0.00  0.00    +0.400 A 
ATOM     16  N   LIG    1       -1.242   3.086   0.029  0.00  0.00    -0.490 NA
ATOM     17  C   LIG    1       -0.131   3.797   0.023  0.00  0.00    +0.340 A 
BRANCH  15  18
ATOM     18  N   LIG    1       -2.422   1.050   0.019  0.00  0.00    -0.430 N 
ATOM     19  C   LIG    1       -3.686   1.583   0.028  0.00  0.00    +0.160 A 
ATOM     20  C   LIG    1       -4.546   0.548   0.026  0.00  0.00    +0.170 A 
ATOM     21  N   LIG    1       -3.834  -0.589   0.017  0.00  0.00    -0.460 NA
ATOM     22  C   LIG    1       -2.561  -0.302   0.006  0.00  0.00    +0.420 A 
ENDBRANCH  15  18
ENDBRANCH   1  12
TORSDOF 5
