REMARK  Name = ZINCkj00000dDGBG.1
REMARK                            x       y       z     vdW  Elec       q    Type
REMARK                         _______ _______ _______ _____ _____    ______ ____
ROOT
ATOM      1  C   LIG    1        6.454   0.250  -0.056  0.00  0.00    +0.340 C 
ENDROOT
BRANCH   1   5
ATOM      2  C   LIG    1        7.829   1.542   4.374  0.00  0.00    +0.060 C 
ATOM      3  C   LIG    1        8.259   1.347   2.918  0.00  0.00    +0.010 C 
ATOM      4  C   LIG    1        7.035   1.405   1.987  0.00  0.00    +0.250 C 
ATOM      5  N   LIG    1        6.931   0.087   1.324  0.00  0.00    -0.390 N 
ATOM      6  C   LIG    1        8.305  -0.479   1.327  0.00  0.00    +0.280 C 
ATOM      7  H   LIG    1        6.306  -0.514   1.840  0.00  0.00    +0.430 HD
ATOM      8  C   LIG    1        8.854  -0.065   2.717  0.00  0.00    +0.000 C 
BRANCH   8   9
ATOM      9  C   LIG    1       10.383  -0.013   2.705  0.00  0.00    +0.210 C 
BRANCH   9  10
ATOM     10  O   LIG    1       10.905  -1.341   2.635  0.00  0.00    -0.570 OA
ATOM     11  H   LIG    1       11.871  -1.384   2.623  0.00  0.00    +0.400 HD
ENDBRANCH   9  10
ENDBRANCH   8   9
ENDBRANCH   1   5
BRANCH   1  12
ATOM     12  C   LIG    1        5.026   0.730  -0.040  0.00  0.00    -0.240 A 
ATOM     13  C   LIG    1        4.743   2.089  -0.031  0.00  0.00    +0.140 A 
ATOM     14  C   LIG    1        3.417   2.487  -0.017  0.00  0.00    -0.020 A 
ATOM     15  C   LIG    1        2.421   1.519  -0.012  0.00  0.00    +0.400 A 
ATOM     16  N   LIG    1        2.731   0.233  -0.016  0.00  0.00    -0.500 NA
ATOM     17  C   LIG    1        3.984  -0.177  -0.035  0.00  0.00    +0.340 A 
BRANCH  15  18
ATOM     18  N   LIG    1        1.078   1.908   0.002  0.00  0.00    -0.430 N 
ATOM     19  C   LIG    1       -0.013   1.076   0.008  0.00  0.00    +0.160 A 
ATOM     20  C   LIG    1       -1.104   1.863   0.017  0.00  0.00    +0.170 A 
ATOM     21  N   LIG    1       -0.699   3.142   0.024  0.00  0.00    -0.460 NA
ATOM     22  C   LIG    1        0.605   3.183   0.013  0.00  0.00    +0.420 A 
ENDBRANCH  15  18
ENDBRANCH   1  12
TORSDOF 5
