REMARK  Name = ZINCrD00000F5Lwc.0
REMARK                            x       y       z     vdW  Elec       q    Type
REMARK                         _______ _______ _______ _____ _____    ______ ____
ROOT
ATOM      1  C   LIG    1        0.140  -6.488   5.432  0.00  0.00    +0.520 C 
ATOM      2  N   LIG    1        0.119  -5.603   4.416  0.00  0.00    -0.730 N 
ATOM      3  H   LIG    1        0.115  -5.918   3.498  0.00  0.00    +0.410 HD
ATOM      4  O   LIG    1        0.145  -6.094   6.579  0.00  0.00    -0.530 OA
ENDROOT
BRANCH   1   5
ATOM      5  C   LIG    1        0.158  -7.967   5.143  0.00  0.00    +0.060 C 
BRANCH   5   6
ATOM      6  C   LIG    1        0.180  -8.744   6.461  0.00  0.00    +0.100 C 
BRANCH   6   9
ATOM      7  C   LIG    1        1.418 -12.252   5.761  0.00  0.00    -0.220 A 
ATOM      8  C   LIG    1        1.400 -10.879   6.029  0.00  0.00    +0.090 A 
ATOM      9  C   LIG    1        0.198 -10.223   6.172  0.00  0.00    -0.110 A 
ATOM     10  C   LIG    1       -0.996 -10.916   6.056  0.00  0.00    +0.070 A 
ATOM     11  C   LIG    1       -0.995 -12.271   5.786  0.00  0.00    -0.020 A 
ATOM     12  C   LIG    1        0.204 -12.950   5.639  0.00  0.00    +0.170 A 
BRANCH   7  14
ATOM     13  O   LIG    1        2.705 -14.150   5.376  0.00  0.00    -0.440 OA
ATOM     14  C   LIG    1        2.695 -12.959   5.609  0.00  0.00    +0.490 C 
ENDBRANCH   7  14
BRANCH  12  15
ATOM     15  O   LIG    1        0.207 -14.281   5.380  0.00  0.00    -0.480 OA
ATOM     16  H   LIG    1        0.218 -14.836   6.171  0.00  0.00    +0.400 HD
ENDBRANCH  12  15
ENDBRANCH   6   9
ENDBRANCH   5   6
ENDBRANCH   1   5
BRANCH   2  17
ATOM     17  C   LIG    1        0.102  -4.165   4.697  0.00  0.00    +0.430 C 
BRANCH  17  18
ATOM     18  C   LIG    1        0.080  -3.417   3.429  0.00  0.00    -0.160 C 
ATOM     19  C   LIG    1        0.063  -2.821   2.418  0.00  0.00    -0.110 C 
BRANCH  19  20
ATOM     20  C   LIG    1        0.042  -2.094   1.184  0.00  0.00    +0.010 A 
ATOM     21  C   LIG    1        0.040  -2.778  -0.032  0.00  0.00    +0.080 A 
ATOM     22  C   LIG    1        0.019  -2.071  -1.217  0.00  0.00    +0.020 A 
ATOM     23  C   LIG    1       -0.006  -0.688  -1.201  0.00  0.00    +0.080 A 
ATOM     24  C   LIG    1        0.002  -0.004   0.002  0.00  0.00    -0.180 A 
ATOM     25  C   LIG    1        0.023  -0.699   1.194  0.00  0.00    +0.090 A 
BRANCH  24  26
ATOM     26  C   LIG    1       -0.018   1.503   0.010  0.00  0.00    +0.510 C 
ATOM     27  F   LIG    1       -0.673   1.954   1.161  0.00  0.00    -0.180 F 
ATOM     28  F   LIG    1       -0.695   1.966  -1.123  0.00  0.00    -0.170 F 
ATOM     29  F   LIG    1        1.294   1.987   0.000  0.00  0.00    -0.170 F 
ENDBRANCH  24  26
ENDBRANCH  19  20
ENDBRANCH  17  18
ENDBRANCH   2  17
TORSDOF 9
