REMARK  Name = ZINCrD00000hQ77T.1
REMARK                            x       y       z     vdW  Elec       q    Type
REMARK                         _______ _______ _______ _____ _____    ______ ____
ROOT
ATOM      1  C   LIG    1       -1.230   3.584   0.106  0.00  0.00    -0.160 A 
ATOM      2  C   LIG    1       -0.037   4.309   0.138  0.00  0.00    +0.080 A 
ATOM      3  C   LIG    1       -0.062   5.683   0.281  0.00  0.00    +0.000 A 
ATOM      4  C   LIG    1       -1.264   6.353   0.395  0.00  0.00    +0.090 A 
ATOM      5  C   LIG    1       -2.469   5.648   0.366  0.00  0.00    -0.160 A 
ATOM      6  C   LIG    1       -2.455   4.255   0.215  0.00  0.00    +0.210 A 
ENDROOT
BRANCH   1  13
ATOM      7  C   LIG    1        1.041  -2.022  -0.556  0.00  0.00    +0.080 C 
ATOM      8  C   LIG    1        1.001  -0.495  -0.476  0.00  0.00    +0.020 C 
ATOM      9  S   LIG    1        2.526   0.115   0.300  0.00  0.00    -0.240 S 
ATOM     10  C   LIG    1        2.198   1.896   0.453  0.00  0.00    +0.100 C 
ATOM     11  C   LIG    1        0.880   2.093   1.210  0.00  0.00    +0.280 C 
ATOM     12  N   LIG    1       -0.198   1.402   0.500  0.00  0.00    -0.610 N 
ATOM     13  C   LIG    1       -1.200   2.117  -0.049  0.00  0.00    +0.560 C 
ATOM     14  O   LIG    1       -2.080   1.553  -0.670  0.00  0.00    -0.500 OA
ATOM     15  C   LIG    1       -0.196  -0.056   0.374  0.00  0.00    +0.250 C 
ATOM     16  C   LIG    1       -0.092  -0.688   1.764  0.00  0.00    +0.050 C 
ENDBRANCH   1  13
BRANCH   5  17
ATOM     17  C   LIG    1       -3.751   6.367   0.488  0.00  0.00    +0.560 C 
ATOM     18  N   LIG    1       -3.959   7.202   1.525  0.00  0.00    -0.610 N 
ATOM     19  C   LIG    1       -2.957   7.301   2.587  0.00  0.00    +0.290 C 
ATOM     20  C   LIG    1       -2.356   8.716   2.585  0.00  0.00    +0.100 C 
ATOM     21  S   LIG    1       -3.698   9.921   2.811  0.00  0.00    -0.240 S 
ATOM     22  C   LIG    1       -4.842   9.483   1.469  0.00  0.00    +0.020 C 
ATOM     23  C   LIG    1       -6.119  10.317   1.590  0.00  0.00    +0.080 C 
ATOM     24  C   LIG    1       -5.188   7.995   1.581  0.00  0.00    +0.250 C 
ATOM     25  C   LIG    1       -5.902   7.736   2.909  0.00  0.00    +0.050 C 
ATOM     26  O   LIG    1       -4.620   6.207  -0.347  0.00  0.00    -0.500 OA
ENDBRANCH   5  17
BRANCH   6  27
ATOM     27  O   LIG    1       -3.618   3.562   0.179  0.00  0.00    -0.460 OA
ATOM     28  H   LIG    1       -3.927   3.269   1.047  0.00  0.00    +0.390 HD
ENDBRANCH   6  27
TORSDOF 3
