REMARK  Name = ZINCrD000000f6Vd.0
REMARK                            x       y       z     vdW  Elec       q    Type
REMARK                         _______ _______ _______ _____ _____    ______ ____
ROOT
ATOM      1  N   LIG    1        2.222  -1.737   5.339  0.00  0.00    -0.730 N 
ATOM      2  H   LIG    1        2.274  -2.651   5.017  0.00  0.00    +0.400 HD
ATOM      3  C   LIG    1        2.224  -0.713   4.462  0.00  0.00    +0.520 C 
ATOM      4  O   LIG    1        2.159   0.429   4.864  0.00  0.00    -0.520 OA
ENDROOT
BRANCH   1   5
ATOM      5  C   LIG    1        2.142  -1.469   6.777  0.00  0.00    +0.250 C 
BRANCH   5   6
ATOM      6  C   LIG    1        3.545  -1.195   7.324  0.00  0.00    +0.160 C 
BRANCH   6   8
ATOM      7  C   LIG    1        4.491   1.030   6.249  0.00  0.00    +0.030 C 
ATOM      8  C   LIG    1        4.071   0.043   6.726  0.00  0.00    -0.190 C 
ENDBRANCH   6   8
ENDBRANCH   5   6
BRANCH   5   9
ATOM      9  C   LIG    1        1.545  -2.685   7.489  0.00  0.00    +0.080 C 
BRANCH   9  10
ATOM     10  C   LIG    1        0.120  -2.881   7.040  0.00  0.00    -0.080 A 
ATOM     11  C   LIG    1       -0.911  -2.269   7.727  0.00  0.00    +0.000 A 
ATOM     12  C   LIG    1       -2.218  -2.444   7.312  0.00  0.00    +0.000 A 
ATOM     13  C   LIG    1       -2.494  -3.241   6.216  0.00  0.00    +0.000 A 
ATOM     14  C   LIG    1       -1.463  -3.857   5.533  0.00  0.00    +0.000 A 
ATOM     15  C   LIG    1       -0.156  -3.677   5.944  0.00  0.00    +0.010 A 
ENDBRANCH   9  10
ENDBRANCH   5   9
ENDBRANCH   1   5
BRANCH   3  16
ATOM     16  C   LIG    1        2.306  -0.988   2.982  0.00  0.00    +0.040 C 
BRANCH  16  17
ATOM     17  C   LIG    1        2.290   0.336   2.216  0.00  0.00    +0.080 C 
BRANCH  17  18
ATOM     18  C   LIG    1        2.374   0.056   0.714  0.00  0.00    +0.000 C 
ATOM     19  C   LIG    1        2.491   1.380  -0.042  0.00  0.00    +0.110 C 
ATOM     20  C   LIG    1        1.173   2.109   0.002  0.00  0.00    -0.120 A 
ATOM     21  C   LIG    1        1.148   3.489   0.027  0.00  0.00    +0.050 A 
ATOM     22  C   LIG    1       -0.061   4.160   0.050  0.00  0.00    -0.010 A 
ATOM     23  C   LIG    1       -1.248   3.451   0.047  0.00  0.00    +0.040 A 
ATOM     24  C   LIG    1       -1.230   2.070   0.031  0.00  0.00    -0.020 A 
ATOM     25  C   LIG    1       -0.017   1.393   0.010  0.00  0.00    +0.160 A 
ATOM     26  N   LIG    1        0.002  -0.004   0.002  0.00  0.00    -0.660 N 
ATOM     27  H   LIG    1       -0.810  -0.494  -0.199  0.00  0.00    +0.410 HD
ATOM     28  C   LIG    1        1.135  -0.676   0.271  0.00  0.00    +0.530 C 
ATOM     29  O   LIG    1        1.159  -1.883   0.156  0.00  0.00    -0.520 OA
ENDBRANCH  17  18
ENDBRANCH  16  17
ENDBRANCH   3  16
TORSDOF 8
