REMARK  Name = ZINCrg000000nJvM.0
REMARK                            x       y       z     vdW  Elec       q    Type
REMARK                         _______ _______ _______ _____ _____    ______ ____
ROOT
ATOM      1  N   LIG    1       -0.011   0.966   0.007  0.00  0.00    -0.720 N 
ATOM      2  H   LIG    1        0.002  -0.004   0.002  0.00  0.00    +0.400 HD
ATOM      3  C   LIG    1       -1.187   1.624   0.017  0.00  0.00    +0.500 C 
ATOM      4  O   LIG    1       -1.204   2.837   0.023  0.00  0.00    -0.510 OA
ENDROOT
BRANCH   1   5
ATOM      5  C   LIG    1        1.248   1.716  -0.001  0.00  0.00    +0.290 C 
BRANCH   5   6
ATOM      6  C   LIG    1        2.344   0.863   0.585  0.00  0.00    -0.090 A 
ATOM      7  C   LIG    1        2.403  -0.486   0.289  0.00  0.00    +0.000 A 
ATOM      8  C   LIG    1        3.411  -1.267   0.822  0.00  0.00    +0.010 A 
ATOM      9  C   LIG    1        4.354  -0.701   1.659  0.00  0.00    +0.000 A 
ATOM     10  C   LIG    1        4.292   0.647   1.960  0.00  0.00    +0.020 A 
ATOM     11  C   LIG    1        3.287   1.429   1.423  0.00  0.00    +0.010 A 
ENDBRANCH   5   6
BRANCH   5  12
ATOM     12  C   LIG    1        1.608   2.092  -1.439  0.00  0.00    +0.020 C 
BRANCH  12  14
ATOM     13  C   LIG    1        0.918   3.435  -3.430  0.00  0.00    +0.000 C 
ATOM     14  C   LIG    1        0.558   3.058  -1.992  0.00  0.00    +0.010 C 
ENDBRANCH  12  14
ENDBRANCH   5  12
ENDBRANCH   1   5
BRANCH   3  15
ATOM     15  C   LIG    1       -2.482   0.853   0.018  0.00  0.00    +0.340 C 
BRANCH  15  16
ATOM     16  N   LIG    1       -3.608   1.789   0.029  0.00  0.00    -0.400 N 
ATOM     17  C   LIG    1       -4.284   2.219   1.113  0.00  0.00    +0.510 A 
ATOM     18  N   LIG    1       -5.224   3.052   0.746  0.00  0.00    -0.490 NA
ATOM     19  C   LIG    1       -5.210   3.193  -0.582  0.00  0.00    +0.320 A 
ATOM     20  N   LIG    1       -5.969   3.929  -1.478  0.00  0.00    -0.510 N 
ATOM     21  C   LIG    1       -7.057   4.779  -0.989  0.00  0.00    +0.350 C 
ATOM     22  C   LIG    1       -5.708   3.864  -2.797  0.00  0.00    +0.710 A 
ATOM     23  O   LIG    1       -6.384   4.516  -3.568  0.00  0.00    -0.530 OA
ATOM     24  N   LIG    1       -4.718   3.095  -3.284  0.00  0.00    -0.550 N 
ATOM     25  C   LIG    1       -4.474   3.060  -4.728  0.00  0.00    +0.350 C 
ATOM     26  C   LIG    1       -3.944   2.356  -2.461  0.00  0.00    +0.600 A 
ATOM     27  O   LIG    1       -3.050   1.663  -2.914  0.00  0.00    -0.510 OA
ATOM     28  C   LIG    1       -4.183   2.395  -1.071  0.00  0.00    -0.140 A 
ENDBRANCH  15  16
ENDBRANCH   3  15
TORSDOF 6
