REMARK  Name = ZINCpk00001AZitq.0
REMARK                            x       y       z     vdW  Elec       q    Type
REMARK                         _______ _______ _______ _____ _____    ______ ____
ROOT
ATOM      1  N   LIG    1       -1.150  -0.694   0.111  0.00  0.00    -0.710 N 
ATOM      2  H   LIG    1       -1.998  -0.224   0.122  0.00  0.00    +0.400 HD
ATOM      3  C   LIG    1        0.002  -0.004   0.002  0.00  0.00    +0.590 C 
ATOM      4  O   LIG    1        1.058  -0.597  -0.108  0.00  0.00    -0.520 OA
ENDROOT
BRANCH   3   5
ATOM      5  C   LIG    1       -0.017   1.468   0.016  0.00  0.00    -0.220 A 
ATOM      6  C   LIG    1       -1.197   2.148   0.055  0.00  0.00    +0.330 A 
ATOM      7  O   LIG    1       -1.239   3.490   0.040  0.00  0.00    -0.270 OA
ATOM      8  C   LIG    1       -0.182   4.165   0.552  0.00  0.00    +0.530 A 
ATOM      9  C   LIG    1        1.157   3.623   0.268  0.00  0.00    -0.180 A 
ATOM     10  C   LIG    1        2.306   4.404   0.263  0.00  0.00    +0.090 A 
ATOM     11  C   LIG    1        3.522   3.814  -0.002  0.00  0.00    +0.010 A 
ATOM     12  C   LIG    1        3.605   2.457  -0.280  0.00  0.00    +0.060 A 
ATOM     13  C   LIG    1        2.474   1.665  -0.284  0.00  0.00    +0.050 A 
ATOM     14  O   LIG    1       -0.333   5.171   1.218  0.00  0.00    -0.420 OA
ATOM     15  C   LIG    1        1.240   2.239  -0.006  0.00  0.00    +0.010 A 
ENDBRANCH   3   5
BRANCH   1  17
ATOM     16  C   LIG    1       -2.417  -2.832  -0.269  0.00  0.00    +0.270 C 
ATOM     17  C   LIG    1       -1.122  -2.155   0.213  0.00  0.00    +0.250 C 
ATOM     18  C   LIG    1       -1.464  -2.681   1.617  0.00  0.00    +0.030 C 
ATOM     19  C   LIG    1       -2.264  -3.795   0.920  0.00  0.00    +0.180 C 
BRANCH  16  23
ATOM     20  C   LIG    1       -1.441  -6.226  -3.825  0.00  0.00    +0.100 C 
ATOM     21  C   LIG    1       -1.863  -4.959  -3.127  0.00  0.00    -0.230 A 
ATOM     22  C   LIG    1       -1.821  -4.732  -1.794  0.00  0.00    +0.220 A 
ATOM     23  N   LIG    1       -2.286  -3.485  -1.574  0.00  0.00    -0.370 N 
ATOM     24  N   LIG    1       -2.617  -2.923  -2.814  0.00  0.00    -0.290 NA
ATOM     25  C   LIG    1       -2.363  -3.808  -3.744  0.00  0.00    +0.230 A 
ENDBRANCH  16  23
BRANCH  19  26
ATOM     26  O   LIG    1       -3.499  -4.104   1.569  0.00  0.00    -0.550 OA
ATOM     27  H   LIG    1       -3.409  -4.709   2.317  0.00  0.00    +0.390 HD
ENDBRANCH  19  26
ENDBRANCH   1  17
TORSDOF 4
