REMARK  Name = ZINCpe00000bQoNZ.0
REMARK                            x       y       z     vdW  Elec       q    Type
REMARK                         _______ _______ _______ _____ _____    ______ ____
ROOT
ATOM      1  C   LIG    1        0.043   1.805  -2.423  0.00  0.00    +0.060 C 
ATOM      2  C   LIG    1       -0.839   1.637  -1.184  0.00  0.00    -0.010 C 
ATOM      3  C   LIG    1       -1.319   3.009  -0.666  0.00  0.00    +0.250 C 
ATOM      4  N   LIG    1       -1.274   2.962   0.803  0.00  0.00    -0.620 N 
ATOM      5  C   LIG    1       -0.815   1.624   1.219  0.00  0.00    +0.250 C 
ATOM      6  C   LIG    1       -1.599   3.973   1.632  0.00  0.00    +0.530 C 
ATOM      7  O   LIG    1       -1.966   5.036   1.177  0.00  0.00    -0.540 OA
ATOM      8  C   LIG    1       -0.013   1.086   0.008  0.00  0.00    +0.260 C 
ENDROOT
BRANCH   8   9
ATOM      9  N   LIG    1        1.349   1.627  -0.002  0.00  0.00    -0.720 N 
ATOM     10  H   LIG    1        1.539   2.453  -0.473  0.00  0.00    +0.400 HD
ATOM     11  C   LIG    1        2.337   0.976   0.643  0.00  0.00    +0.520 C 
ATOM     12  O   LIG    1        2.100  -0.058   1.231  0.00  0.00    -0.510 OA
BRANCH  11  13
ATOM     13  C   LIG    1        3.738   1.532   0.632  0.00  0.00    +0.200 C 
BRANCH  13  14
ATOM     14  O   LIG    1        4.598   0.670   1.379  0.00  0.00    -0.350 OA
BRANCH  14  15
ATOM     15  C   LIG    1        5.957   1.109   1.432  0.00  0.00    +0.110 C 
ATOM     16  C   LIG    1        6.522   1.192   0.012  0.00  0.00    +0.020 C 
ATOM     17  C   LIG    1        6.783   0.115   2.252  0.00  0.00    +0.070 C 
ATOM     18  C   LIG    1        6.022   2.489   2.088  0.00  0.00    +0.020 C 
ENDBRANCH  14  15
ENDBRANCH  13  14
ENDBRANCH  11  13
ENDBRANCH   8   9
BRANCH   6  19
ATOM     19  C   LIG    1       -1.506   3.784   3.124  0.00  0.00    +0.050 C 
BRANCH  19  20
ATOM     20  C   LIG    1       -1.927   5.075   3.829  0.00  0.00    +0.050 C 
BRANCH  20  21
ATOM     21  C   LIG    1       -1.832   4.883   5.344  0.00  0.00    +0.220 C 
ATOM     22  C   LIG    1       -2.314   6.155   6.076  0.00  0.00    +0.050 C 
ATOM     23  C   LIG    1       -0.986   6.918   6.289  0.00  0.00    +0.050 C 
ATOM     24  C   LIG    1        0.070   5.835   6.276  0.00  0.00    +0.520 C 
ATOM     25  O   LIG    1        1.205   5.966   6.683  0.00  0.00    -0.530 OA
ATOM     26  N   LIG    1       -0.432   4.706   5.747  0.00  0.00    -0.730 N 
ATOM     27  H   LIG    1        0.066   3.880   5.645  0.00  0.00    +0.410 HD
ENDBRANCH  20  21
ENDBRANCH  19  20
ENDBRANCH   6  19
TORSDOF 7
