REMARK  Name = ZINCpk00000KfLDn.0
REMARK                            x       y       z     vdW  Elec       q    Type
REMARK                         _______ _______ _______ _____ _____    ______ ____
ROOT
ATOM      1  C   LIG    1        7.683  -1.843   1.497  0.00  0.00    +0.530 C 
ATOM      2  N   LIG    1        6.767  -1.351   0.640  0.00  0.00    -0.620 N 
ATOM      3  C   LIG    1        7.158  -0.422  -0.431  0.00  0.00    +0.300 C 
ATOM      4  C   LIG    1        6.242   0.805  -0.370  0.00  0.00    +0.190 C 
ATOM      5  N   LIG    1        4.840   0.367  -0.409  0.00  0.00    -0.490 N 
ATOM      6  C   LIG    1        4.505  -0.452   0.764  0.00  0.00    +0.190 C 
ATOM      7  C   LIG    1        5.350  -1.730   0.749  0.00  0.00    +0.280 C 
ATOM      8  O   LIG    1        8.860  -1.600   1.333  0.00  0.00    -0.520 OA
ENDROOT
BRANCH   5   9
ATOM      9  C   LIG    1        3.977   1.460  -0.520  0.00  0.00    +0.110 A 
ATOM     10  C   LIG    1        2.603   1.259  -0.573  0.00  0.00    -0.020 A 
ATOM     11  C   LIG    1        1.753   2.342  -0.683  0.00  0.00    +0.030 A 
ATOM     12  C   LIG    1        2.268   3.624  -0.741  0.00  0.00    -0.020 A 
ATOM     13  C   LIG    1        3.635   3.827  -0.689  0.00  0.00    +0.030 A 
ATOM     14  C   LIG    1        4.490   2.749  -0.579  0.00  0.00    -0.040 A 
ENDBRANCH   5   9
BRANCH   1  16
ATOM     15  C   LIG    1        6.998  -4.126   2.179  0.00  0.00    +0.050 C 
ATOM     16  C   LIG    1        7.245  -2.695   2.660  0.00  0.00    +0.140 C 
BRANCH  16  17
ATOM     17  N   LIG    1        8.294  -2.698   3.688  0.00  0.00    -0.440 NA
ATOM     18  C   LIG    1        9.288  -3.756   3.425  0.00  0.00    +0.200 C 
ATOM     19  C   LIG    1        9.290  -4.051   4.932  0.00  0.00    +0.250 C 
ATOM     20  C   LIG    1        7.872  -3.467   4.873  0.00  0.00    +0.170 C 
BRANCH  19  21
ATOM     21  N   LIG    1       10.240  -3.242   5.700  0.00  0.00    -0.350 N 
ATOM     22  C   LIG    1       10.949  -2.193   5.233  0.00  0.00    +0.250 A 
ATOM     23  C   LIG    1       11.706  -1.721   6.250  0.00  0.00    -0.130 A 
ATOM     24  C   LIG    1       11.451  -2.509   7.378  0.00  0.00    +0.230 A 
ATOM     25  N   LIG    1       10.569  -3.417   7.051  0.00  0.00    -0.300 NA
ENDBRANCH  19  21
ENDBRANCH  16  17
ENDBRANCH   1  16
TORSDOF 4
