REMARK  Name = ZINCtV00001bB3cq.0
REMARK                            x       y       z     vdW  Elec       q    Type
REMARK                         _______ _______ _______ _____ _____    ______ ____
ROOT
ATOM      1  C   LIG    1        1.994  -4.261  -4.285  0.00  0.00    +0.100 A 
ATOM      2  C   LIG    1        3.058  -3.517  -4.807  0.00  0.00    +0.020 A 
ATOM      3  C   LIG    1        3.285  -2.247  -4.365  0.00  0.00    +0.040 A 
ATOM      4  C   LIG    1        2.451  -1.686  -3.387  0.00  0.00    -0.070 A 
ATOM      5  C   LIG    1        1.389  -2.434  -2.860  0.00  0.00    +0.070 A 
ATOM      6  C   LIG    1        1.161  -3.703  -3.308  0.00  0.00    -0.030 A 
ENDROOT
BRANCH   4   7
ATOM      7  C   LIG    1        2.693  -0.320  -2.911  0.00  0.00    +0.120 C 
ATOM      8  C   LIG    1        1.660   0.550  -2.793  0.00  0.00    -0.200 C 
ATOM      9  C   LIG    1        0.461   0.260  -3.450  0.00  0.00    +0.390 C 
ATOM     10  C   LIG    1       -0.749   1.146  -3.360  0.00  0.00    -0.020 C 
ATOM     11  C   LIG    1       -0.344   2.537  -2.868  0.00  0.00    +0.030 C 
ATOM     12  C   LIG    1        0.493   2.386  -1.593  0.00  0.00    +0.020 C 
ATOM     13  O   LIG    1        0.394  -0.751  -4.120  0.00  0.00    -0.450 OA
ATOM     14  C   LIG    1        1.852   1.788  -1.963  0.00  0.00    +0.030 C 
ATOM     15  C   LIG    1        2.658   2.814  -2.761  0.00  0.00    +0.030 C 
BRANCH  10  16
ATOM     16  C   LIG    1       -1.395   1.265  -4.741  0.00  0.00    +0.000 C 
ATOM     17  C   LIG    1       -0.437   1.986  -5.692  0.00  0.00    +0.020 C 
ATOM     18  C   LIG    1       -2.697   2.060  -4.629  0.00  0.00    +0.020 C 
ENDBRANCH  10  16
ENDBRANCH   4   7
BRANCH   1  20
ATOM     19  C   LIG    1        1.515  -6.486  -3.873  0.00  0.00    +0.320 C 
ATOM     20  N   LIG    1        1.768  -5.532  -4.728  0.00  0.00    -0.490 NA
BRANCH  19  24
ATOM     21  C   LIG    1        0.814 -10.436  -5.249  0.00  0.00    +0.150 A 
ATOM     22  C   LIG    1        0.773 -10.159  -3.887  0.00  0.00    -0.020 A 
ATOM     23  C   LIG    1        1.000  -8.879  -3.435  0.00  0.00    +0.100 A 
ATOM     24  C   LIG    1        1.272  -7.854  -4.350  0.00  0.00    -0.120 A 
ATOM     25  C   LIG    1        1.306  -8.137  -5.720  0.00  0.00    +0.110 A 
ATOM     26  C   LIG    1        1.083  -9.422  -6.162  0.00  0.00    -0.090 A 
BRANCH  21  27
ATOM     27  O   LIG    1        0.590 -11.700  -5.690  0.00  0.00    -0.310 OA
BRANCH  27  29
ATOM     28  C   LIG    1        0.370 -13.389  -7.404  0.00  0.00    +0.070 C 
ATOM     29  C   LIG    1        0.646 -11.915  -7.101  0.00  0.00    +0.170 C 
ENDBRANCH  27  29
ENDBRANCH  21  27
ENDBRANCH  19  24
ENDBRANCH   1  20
TORSDOF 6
