REMARK  Name = ZINCkj00000AptU9.0
REMARK                            x       y       z     vdW  Elec       q    Type
REMARK                         _______ _______ _______ _____ _____    ______ ____
ROOT
ATOM      1  C   LIG    1       -1.208   3.131   0.025  0.00  0.00    +0.110 C 
ATOM      2  C   LIG    1       -0.971   3.653  -1.395  0.00  0.00    +0.050 C 
ATOM      3  C   LIG    1       -2.119   3.190  -2.297  0.00  0.00    +0.090 C 
ATOM      4  C   LIG    1       -3.447   3.678  -1.714  0.00  0.00    +0.250 C 
ATOM      5  N   LIG    1       -3.627   3.123  -0.367  0.00  0.00    -0.380 N 
ATOM      6  H   LIG    1       -3.582   2.116  -0.410  0.00  0.00    +0.420 HD
ATOM      7  C   LIG    1       -2.570   3.620   0.522  0.00  0.00    +0.300 C 
ENDROOT
BRANCH   1  11
ATOM      8  N   LIG    1       -0.937   0.947   1.155  0.00  0.00    -0.830 N 
ATOM      9  H   LIG    1       -0.766   1.430   1.978  0.00  0.00    +0.410 HD
ATOM     10  H   LIG    1       -0.924  -0.023   1.149  0.00  0.00    +0.420 HD
ATOM     11  C   LIG    1       -1.187   1.624   0.017  0.00  0.00    +0.470 C 
ATOM     12  O   LIG    1       -1.396   1.020  -1.014  0.00  0.00    -0.520 OA
ENDBRANCH   1  11
BRANCH   1  13
ATOM     13  O   LIG    1       -0.180   3.617   0.890  0.00  0.00    -0.530 OA
ATOM     14  H   LIG    1        0.712   3.345   0.633  0.00  0.00    +0.410 HD
ENDBRANCH   1  13
BRANCH   5  15
ATOM     15  C   LIG    1       -4.936   3.532   0.159  0.00  0.00    +0.260 C 
BRANCH  15  16
ATOM     16  C   LIG    1       -6.044   2.905  -0.690  0.00  0.00    +0.110 C 
BRANCH  16  17
ATOM     17  C   LIG    1       -7.388   3.324  -0.151  0.00  0.00    -0.130 A 
ATOM     18  C   LIG    1       -7.995   4.474  -0.624  0.00  0.00    +0.120 A 
ATOM     19  C   LIG    1       -9.230   4.858  -0.128  0.00  0.00    +0.010 A 
ATOM     20  C   LIG    1       -9.855   4.093   0.838  0.00  0.00    +0.090 A 
ATOM     21  C   LIG    1       -9.248   2.944   1.311  0.00  0.00    +0.040 A 
ATOM     22  F   LIG    1       -7.385   5.221  -1.569  0.00  0.00    -0.130 F 
ATOM     23  C   LIG    1       -8.017   2.557   0.813  0.00  0.00    -0.000 A 
ATOM     24 CL   LIG    1       -7.259   1.110   1.402  0.00  0.00    -0.050 Cl
ENDBRANCH  16  17
ENDBRANCH  15  16
ENDBRANCH   5  15
TORSDOF 5
