REMARK  Name = ZINCkj00000AptU9.1
REMARK                            x       y       z     vdW  Elec       q    Type
REMARK                         _______ _______ _______ _____ _____    ______ ____
ROOT
ATOM      1  C   LIG    1        0.002  -0.004   0.002  0.00  0.00    +0.100 C 
ATOM      2  C   LIG    1        0.717  -0.499  -1.259  0.00  0.00    +0.040 C 
ATOM      3  C   LIG    1       -0.074  -0.051  -2.491  0.00  0.00    +0.080 C 
ATOM      4  C   LIG    1       -1.506  -0.580  -2.391  0.00  0.00    +0.250 C 
ATOM      5  N   LIG    1       -2.144  -0.050  -1.180  0.00  0.00    -0.380 N 
ATOM      6  H   LIG    1       -2.116   0.958  -1.199  0.00  0.00    +0.430 HD
ATOM      7  C   LIG    1       -1.433  -0.535   0.011  0.00  0.00    +0.310 C 
ENDROOT
BRANCH   1  11
ATOM      8  N   LIG    1        1.783   0.184   1.708  0.00  0.00    -0.840 N 
ATOM      9  H   LIG    1        2.252  -0.138   2.494  0.00  0.00    +0.420 HD
ATOM     10  H   LIG    1        2.072   1.001   1.272  0.00  0.00    +0.400 HD
ATOM     11  C   LIG    1        0.731  -0.504   1.223  0.00  0.00    +0.500 C 
ATOM     12  O   LIG    1        0.370  -1.526   1.768  0.00  0.00    -0.520 OA
ENDBRANCH   1  11
BRANCH   1  13
ATOM     13  O   LIG    1       -0.017   1.425   0.010  0.00  0.00    -0.550 OA
ATOM     14  H   LIG    1        0.861   1.830   0.004  0.00  0.00    +0.400 HD
ENDBRANCH   1  13
BRANCH   5  15
ATOM     15  C   LIG    1       -3.542  -0.499  -1.128  0.00  0.00    +0.260 C 
BRANCH  15  16
ATOM     16  C   LIG    1       -4.318   0.114  -2.295  0.00  0.00    +0.110 C 
BRANCH  16  17
ATOM     17  C   LIG    1       -5.752  -0.346  -2.242  0.00  0.00    -0.130 A 
ATOM     18  C   LIG    1       -6.689   0.388  -1.536  0.00  0.00    +0.120 A 
ATOM     19  C   LIG    1       -8.007  -0.036  -1.488  0.00  0.00    +0.010 A 
ATOM     20  C   LIG    1       -8.385  -1.191  -2.144  0.00  0.00    +0.090 A 
ATOM     21  C   LIG    1       -7.449  -1.925  -2.849  0.00  0.00    +0.040 A 
ATOM     22  F   LIG    1       -6.319   1.518  -0.894  0.00  0.00    -0.130 F 
ATOM     23  C   LIG    1       -6.134  -1.500  -2.903  0.00  0.00    -0.000 A 
ATOM     24 CL   LIG    1       -4.961  -2.417  -3.795  0.00  0.00    -0.050 Cl
ENDBRANCH  16  17
ENDBRANCH  15  16
ENDBRANCH   5  15
TORSDOF 5
