REMARK  Name = ZINCkj000005ha53.0
REMARK                            x       y       z     vdW  Elec       q    Type
REMARK                         _______ _______ _______ _____ _____    ______ ____
ROOT
ATOM      1  C   LIG    1       -0.848   1.623  -1.209  0.00  0.00    +0.160 C 
ATOM      2  C   LIG    1       -0.054   1.056  -0.004  0.00  0.00    +0.290 C 
ATOM      3  N   LIG    1       -0.746   1.583   1.188  0.00  0.00    -0.600 N 
ATOM      4  C   LIG    1       -1.463   2.807   0.807  0.00  0.00    +0.170 C 
ATOM      5  C   LIG    1       -2.960   2.643   1.071  0.00  0.00    +0.000 C 
ATOM      6  C   LIG    1       -3.193   2.496   2.577  0.00  0.00    +0.220 C 
ATOM      7  O   LIG    1       -2.650   3.632   3.254  0.00  0.00    -0.370 OA
ATOM      8  C   LIG    1       -1.240   3.794   3.087  0.00  0.00    +0.210 C 
ATOM      9  C   LIG    1       -0.924   3.997   1.602  0.00  0.00    +0.000 C 
ATOM     10  C   LIG    1       -0.724   1.032   2.417  0.00  0.00    +0.520 C 
ATOM     11  O   LIG    1       -1.295   1.578   3.337  0.00  0.00    -0.430 OA
ATOM     12  C   LIG    1       -1.225   3.038  -0.697  0.00  0.00    +0.080 C 
ENDROOT
BRANCH  10  13
ATOM     13  C   LIG    1        0.011  -0.264   2.649  0.00  0.00    -0.050 C 
ATOM     14  C   LIG    1        1.278  -0.214   3.506  0.00  0.00    +0.120 C 
ATOM     15  C   LIG    1       -0.001  -0.839   4.067  0.00  0.00    +0.240 C 
ATOM     16  F   LIG    1       -0.036  -2.231   4.199  0.00  0.00    -0.150 F 
ATOM     17  F   LIG    1       -0.693  -0.121   5.049  0.00  0.00    -0.130 F 
ENDBRANCH  10  13
BRANCH   1  19
ATOM     18  C   LIG    1        0.460   0.358  -2.773  0.00  0.00    +0.330 C 
ATOM     19  N   LIG    1       -0.000   1.704  -2.406  0.00  0.00    -0.380 N 
ATOM     20  C   LIG    1       -0.774   2.276  -3.516  0.00  0.00    +0.320 C 
ATOM     21  H   LIG    1        0.797   2.291  -2.214  0.00  0.00    +0.430 HD
ENDBRANCH   1  19
TORSDOF 2
