REMARK  Name = ZINCqH0000000pk6.0
REMARK                            x       y       z     vdW  Elec       q    Type
REMARK                         _______ _______ _______ _____ _____    ______ ____
ROOT
ATOM      1  N   LIG    1       -1.166   2.161   0.017  0.00  0.00    -0.700 N 
ATOM      2  H   LIG    1       -1.134   3.128   0.085  0.00  0.00    +0.420 HD
ENDROOT
BRANCH   1  10
ATOM      3  C   LIG    1       -8.006  -1.926   0.021  0.00  0.00    +0.110 C 
ATOM      4  C   LIG    1       -6.546  -1.559  -0.045  0.00  0.00    +0.520 C 
ATOM      5  N   LIG    1       -6.178  -0.263  -0.081  0.00  0.00    -0.560 N 
ATOM      6  C   LIG    1       -7.102   0.871  -0.160  0.00  0.00    +0.280 C 
ATOM      7  C   LIG    1       -6.207   2.121  -0.174  0.00  0.00    +0.110 C 
ATOM      8  C   LIG    1       -4.797   1.581  -0.099  0.00  0.00    -0.090 A 
ATOM      9  C   LIG    1       -3.579   2.233  -0.077  0.00  0.00    -0.010 A 
ATOM     10  C   LIG    1       -2.400   1.503  -0.004  0.00  0.00    +0.180 A 
ATOM     11  C   LIG    1       -2.452   0.116   0.042  0.00  0.00    -0.030 A 
ATOM     12  C   LIG    1       -3.668  -0.532   0.026  0.00  0.00    +0.060 A 
ATOM     13  C   LIG    1       -4.856   0.197  -0.048  0.00  0.00    +0.110 A 
ATOM     14  O   LIG    1       -5.702  -2.430  -0.066  0.00  0.00    -0.520 OA
ENDBRANCH   1  10
BRANCH   1  15
ATOM     15  C   LIG    1        0.016   1.428  -0.060  0.00  0.00    +0.220 A 
ATOM     16  C   LIG    1        0.849   1.329   1.036  0.00  0.00    +0.040 A 
ATOM     17  C   LIG    1        2.029   0.594   0.971  0.00  0.00    +0.140 A 
ATOM     18  C   LIG    1        2.397  -0.048  -0.173  0.00  0.00    -0.020 A 
ATOM     19  C   LIG    1        1.579   0.028  -1.311  0.00  0.00    -0.070 A 
ATOM     20  C   LIG    1        1.915  -0.616  -2.513  0.00  0.00    +0.320 A 
ATOM     21  N   LIG    1        1.119  -0.517  -3.553  0.00  0.00    -0.460 NA
ATOM     22  C   LIG    1       -0.012   0.173  -3.527  0.00  0.00    +0.250 A 
ATOM     23  C   LIG    1       -0.426   0.833  -2.409  0.00  0.00    +0.020 A 
ATOM     24  C   LIG    1        0.373   0.774  -1.256  0.00  0.00    -0.030 A 
BRANCH  18  25
ATOM     25  N   LIG    1        3.658  -0.824  -0.215  0.00  0.00    +0.020 N 
ATOM     26  O   LIG    1        4.350  -0.807  -1.217  0.00  0.00    -0.150 OA
ATOM     27  O   LIG    1        4.002  -1.479   0.752  0.00  0.00    -0.140 OA
ENDBRANCH  18  25
ENDBRANCH   1  15
TORSDOF 3
