REMARK  Name = ZINCtV00001bB3S6.0
REMARK                            x       y       z     vdW  Elec       q    Type
REMARK                         _______ _______ _______ _____ _____    ______ ____
ROOT
ATOM      1  C   LIG    1        2.477   1.068  -0.016  0.00  0.00    +0.430 C 
ATOM      2  O   LIG    1        2.493  -0.150  -0.023  0.00  0.00    -0.460 OA
ENDROOT
BRANCH   1   3
ATOM      3  C   LIG    1        1.190   1.789   0.000  0.00  0.00    -0.120 A 
ATOM      4  C   LIG    1        1.170   3.186   0.008  0.00  0.00    +0.050 A 
ATOM      5  C   LIG    1       -0.034   3.854   0.025  0.00  0.00    +0.070 A 
ATOM      6  C   LIG    1       -1.233   3.146   0.034  0.00  0.00    -0.130 A 
ATOM      7  S   LIG    1       -2.754   4.031   0.065  0.00  0.00    +0.030 S 
ATOM      8  C   LIG    1       -3.925   2.821   0.566  0.00  0.00    -0.160 A 
ATOM      9  C   LIG    1       -5.160   3.232   1.051  0.00  0.00    +0.070 A 
ATOM     10  C   LIG    1       -6.092   2.297   1.461  0.00  0.00    -0.010 A 
ATOM     11  C   LIG    1       -5.796   0.949   1.390  0.00  0.00    +0.050 A 
ATOM     12  C   LIG    1       -4.570   0.532   0.907  0.00  0.00    -0.030 A 
ATOM     13  C   LIG    1       -3.625   1.464   0.491  0.00  0.00    +0.190 A 
ATOM     14  N   LIG    1       -2.401   1.007   0.008  0.00  0.00    -0.680 N 
ATOM     15  H   LIG    1       -2.367   0.110  -0.359  0.00  0.00    +0.410 HD
ATOM     16  C   LIG    1       -1.223   1.750   0.017  0.00  0.00    +0.180 A 
ATOM     17  C   LIG    1       -0.013   1.076   0.008  0.00  0.00    +0.040 A 
ENDBRANCH   1   3
BRANCH   1  19
ATOM     18  C   LIG    1        4.912   1.154  -0.039  0.00  0.00    +0.130 C 
ATOM     19  C   LIG    1        3.733   1.815  -0.024  0.00  0.00    -0.100 C 
BRANCH  18  23
ATOM     20  C   LIG    1        8.557   3.329  -0.063  0.00  0.00    +0.120 A 
ATOM     21  C   LIG    1        7.345   4.006  -0.047  0.00  0.00    -0.040 A 
ATOM     22  C   LIG    1        6.159   3.305  -0.039  0.00  0.00    +0.040 A 
ATOM     23  C   LIG    1        6.175   1.905  -0.047  0.00  0.00    -0.090 A 
ATOM     24  C   LIG    1        7.398   1.223  -0.057  0.00  0.00    -0.010 A 
ATOM     25  C   LIG    1        8.581   1.934  -0.071  0.00  0.00    +0.100 A 
BRANCH  25  26
ATOM     26  O   LIG    1        9.770   1.275  -0.086  0.00  0.00    -0.300 OA
ATOM     27  C   LIG    1        9.720  -0.153  -0.093  0.00  0.00    +0.240 C 
ENDBRANCH  25  26
BRANCH  20  28
ATOM     28  O   LIG    1        9.722   4.026  -0.070  0.00  0.00    -0.300 OA
BRANCH  28  30
ATOM     29  C   LIG    1       11.030   6.058  -0.070  0.00  0.00    +0.070 C 
ATOM     30  C   LIG    1        9.625   5.452  -0.060  0.00  0.00    +0.170 C 
ENDBRANCH  28  30
ENDBRANCH  20  28
ENDBRANCH  18  23
ENDBRANCH   1  19
TORSDOF 6
