REMARK  Name = ZINCvU0000000H4z.0
REMARK                            x       y       z     vdW  Elec       q    Type
REMARK                         _______ _______ _______ _____ _____    ______ ____
ROOT
ATOM      1  C   LIG    1        2.598   4.003  -0.001  0.00  0.00    +0.360 C 
ATOM      2  C   LIG    1        2.264   5.458   0.013  0.00  0.00    -0.240 A 
ATOM      3  C   LIG    1        0.902   5.573   0.023  0.00  0.00    +0.100 A 
ATOM      4  C   LIG    1        0.325   4.218   0.016  0.00  0.00    +0.570 C 
ATOM      5  O   LIG    1       -0.865   3.969   0.019  0.00  0.00    -0.430 OA
ATOM      6  O   LIG    1        0.274   6.765   0.029  0.00  0.00    -0.180 OA
ATOM      7  C   LIG    1        0.981   7.893   0.269  0.00  0.00    +0.130 A 
ATOM      8  C   LIG    1        0.295   9.080   0.521  0.00  0.00    +0.020 A 
ATOM      9  C   LIG    1        0.991  10.244   0.761  0.00  0.00    +0.090 A 
ATOM     10  C   LIG    1        2.378  10.257   0.756  0.00  0.00    -0.110 A 
ATOM     11  C   LIG    1        3.079   9.097   0.511  0.00  0.00    +0.120 A 
ATOM     12  C   LIG    1        3.120  11.543   1.017  0.00  0.00    +0.100 C 
ATOM     13  C   LIG    1        2.385   7.911   0.271  0.00  0.00    -0.200 A 
ATOM     14  C   LIG    1        3.123   6.647   0.020  0.00  0.00    +0.460 A 
ATOM     15  O   LIG    1        4.327   6.601  -0.162  0.00  0.00    -0.430 OA
ATOM     16  N   LIG    1        1.307   3.295   0.007  0.00  0.00    -0.510 N 
ENDROOT
BRANCH   1  21
ATOM     17  C   LIG    1        5.500   3.136   2.258  0.00  0.00    +0.140 A 
ATOM     18  C   LIG    1        4.860   2.977   3.479  0.00  0.00    -0.060 A 
ATOM     19  C   LIG    1        3.492   3.150   3.567  0.00  0.00    +0.060 A 
ATOM     20  C   LIG    1        2.762   3.488   2.443  0.00  0.00    -0.010 A 
ATOM     21  C   LIG    1        3.397   3.641   1.224  0.00  0.00    -0.080 A 
ATOM     22  C   LIG    1        4.765   3.469   1.130  0.00  0.00    +0.020 A 
BRANCH  17  23
ATOM     23  O   LIG    1        6.846   2.966   2.168  0.00  0.00    -0.310 OA
BRANCH  23  25
ATOM     24  C   LIG    1        9.032   2.475   3.074  0.00  0.00    +0.070 C 
ATOM     25  C   LIG    1        7.538   2.624   3.371  0.00  0.00    +0.170 C 
ENDBRANCH  23  25
ENDBRANCH  17  23
ENDBRANCH   1  21
BRANCH  16  26
ATOM     26  C   LIG    1        1.132   1.918   0.002  0.00  0.00    +0.290 A 
ATOM     27  N   LIG    1       -0.016   1.315   0.009  0.00  0.00    -0.480 NA
ATOM     28  C   LIG    1        0.002  -0.004   0.002  0.00  0.00    +0.100 A 
ATOM     29  C   LIG    1        1.224  -0.542  -0.013  0.00  0.00    -0.100 A 
ATOM     30  C   LIG    1       -1.255  -0.836   0.010  0.00  0.00    +0.160 C 
ATOM     31  S   LIG    1        2.399   0.770  -0.017  0.00  0.00    +0.170 S 
ENDBRANCH  16  26
TORSDOF 4
