REMARK  Name = ZINCqH0000006Nde.0
REMARK                            x       y       z     vdW  Elec       q    Type
REMARK                         _______ _______ _______ _____ _____    ______ ____
ROOT
ATOM      1  C   LIG    1       -0.303  -0.683  -6.496  0.00  0.00    +0.100 A 
ATOM      2  C   LIG    1       -0.379   0.277  -5.500  0.00  0.00    -0.010 A 
ATOM      3  C   LIG    1       -1.427   0.256  -4.598  0.00  0.00    -0.110 A 
ATOM      4  C   LIG    1       -2.406  -0.714  -4.695  0.00  0.00    +0.040 A 
ATOM      5  C   LIG    1       -2.340  -1.671  -5.691  0.00  0.00    -0.040 A 
ATOM      6  C   LIG    1       -1.290  -1.659  -6.594  0.00  0.00    +0.110 A 
ENDROOT
BRANCH   1   8
ATOM      7  C   LIG    1        1.706   0.364  -7.220  0.00  0.00    +0.240 C 
ATOM      8  O   LIG    1        0.730  -0.667  -7.380  0.00  0.00    -0.300 OA
ENDBRANCH   1   8
BRANCH   3   9
ATOM      9  C   LIG    1       -1.504   1.297  -3.511  0.00  0.00    +0.330 C 
BRANCH   9  10
ATOM     10  N   LIG    1       -0.799   0.814  -2.321  0.00  0.00    -0.720 N 
ATOM     11  H   LIG    1       -0.378  -0.060  -2.329  0.00  0.00    +0.410 HD
ATOM     12  C   LIG    1       -0.737   1.583  -1.216  0.00  0.00    +0.540 C 
ATOM     13  O   LIG    1       -1.265   2.675  -1.207  0.00  0.00    -0.520 OA
BRANCH  12  14
ATOM     14  C   LIG    1       -0.013   1.086   0.008  0.00  0.00    +0.030 C 
ATOM     15  C   LIG    1       -0.739   1.576   1.258  0.00  0.00    +0.150 C 
ATOM     16  S   LIG    1       -0.007   0.824   2.735  0.00  0.00    -0.240 S 
ATOM     17  C   LIG    1        1.693   1.448   2.722  0.00  0.00    +0.130 C 
ATOM     18  C   LIG    1        2.420   0.958   1.472  0.00  0.00    +0.130 C 
ATOM     19  S   LIG    1        1.688   1.710  -0.005  0.00  0.00    -0.200 S 
ENDBRANCH  12  14
ENDBRANCH   9  10
ENDBRANCH   3   9
BRANCH   6  20
ATOM     20  O   LIG    1       -1.224  -2.600  -7.574  0.00  0.00    -0.300 OA
BRANCH  20  21
ATOM     21  C   LIG    1       -2.272  -3.571  -7.614  0.00  0.00    +0.240 C 
BRANCH  21  22
ATOM     22  C   LIG    1       -2.031  -4.523  -8.757  0.00  0.00    -0.100 A 
ATOM     23  C   LIG    1       -2.558  -4.250 -10.006  0.00  0.00    +0.030 A 
ATOM     24  C   LIG    1       -2.333  -5.121 -11.056  0.00  0.00    +0.010 A 
ATOM     25  C   LIG    1       -1.591  -6.270 -10.854  0.00  0.00    +0.010 A 
ATOM     26  C   LIG    1       -1.069  -6.545  -9.604  0.00  0.00    +0.010 A 
ATOM     27  C   LIG    1       -1.289  -5.671  -8.555  0.00  0.00    +0.030 A 
ENDBRANCH  21  22
ENDBRANCH  20  21
ENDBRANCH   6  20
TORSDOF 7
