REMARK  Name = ZINCpk00001AZj6n.0
REMARK                            x       y       z     vdW  Elec       q    Type
REMARK                         _______ _______ _______ _____ _____    ______ ____
ROOT
ATOM      1  C   LIG    1        0.581  -2.120  -3.599  0.00  0.00    +0.200 A 
ATOM      2  N   LIG    1        1.318  -3.026  -3.020  0.00  0.00    -0.280 NA
ATOM      3  N   LIG    1        1.836  -2.551  -1.944  0.00  0.00    -0.310 NA
ATOM      4  C   LIG    1        1.448  -1.310  -1.772  0.00  0.00    +0.360 A 
ATOM      5  N   LIG    1        0.638  -0.995  -2.824  0.00  0.00    -0.460 N 
ENDROOT
BRANCH   1   9
ATOM      6  O   LIG    1       -1.814  -4.906  -6.691  0.00  0.00    -0.530 OA
ATOM      7  C   LIG    1       -1.036  -4.096  -6.233  0.00  0.00    +0.520 C 
ATOM      8  C   LIG    1       -1.096  -3.534  -4.829  0.00  0.00    +0.080 C 
ATOM      9  C   LIG    1       -0.191  -2.282  -4.883  0.00  0.00    +0.100 C 
ATOM     10  C   LIG    1        0.754  -2.626  -6.056  0.00  0.00    +0.290 C 
ATOM     11  N   LIG    1        0.005  -3.567  -6.898  0.00  0.00    -0.730 N 
ATOM     12  H   LIG    1        0.233  -3.779  -7.817  0.00  0.00    +0.410 HD
ENDBRANCH   1   9
BRANCH   4  13
ATOM     13  N   LIG    1        1.799  -0.475  -0.723  0.00  0.00    -0.450 N 
ATOM     14  C   LIG    1        3.184  -0.721  -0.295  0.00  0.00    +0.230 C 
ATOM     15  C   LIG    1        3.157  -1.076   1.201  0.00  0.00    +0.040 C 
ATOM     16  C   LIG    1        1.773  -0.603   1.692  0.00  0.00    -0.010 C 
ATOM     17  C   LIG    1        0.908  -1.753   2.237  0.00  0.00    +0.020 C 
ATOM     18  C   LIG    1        0.615  -2.127   0.775  0.00  0.00    +0.010 C 
ATOM     19  C   LIG    1        0.894  -0.658   0.421  0.00  0.00    +0.180 C 
ENDBRANCH   4  13
BRANCH   5  20
ATOM     20  C   LIG    1       -0.032   0.284  -3.072  0.00  0.00    +0.330 C 
BRANCH  20  21
ATOM     21  C   LIG    1        0.928   1.232  -3.793  0.00  0.00    +0.150 C 
ATOM     22  C   LIG    1        0.275   2.609  -3.936  0.00  0.00    +0.010 C 
ATOM     23  C   LIG    1        1.218   3.534  -4.713  0.00  0.00    +0.010 C 
ATOM     24  C   LIG    1        1.537   2.899  -6.069  0.00  0.00    -0.010 C 
ATOM     25  C   LIG    1        2.141   1.510  -5.844  0.00  0.00    +0.210 C 
ATOM     26  O   LIG    1        1.227   0.711  -5.090  0.00  0.00    -0.380 OA
ENDBRANCH  20  21
ENDBRANCH   5  20
TORSDOF 4
