REMARK  Name = ZINCkj000005jG5f.0
REMARK                            x       y       z     vdW  Elec       q    Type
REMARK                         _______ _______ _______ _____ _____    ______ ____
ROOT
ATOM      1  C   LIG    1       -0.164   0.221  -0.169  0.00  0.00    +0.230 C 
ATOM      2  C   LIG    1        0.785   0.354   1.025  0.00  0.00    +0.010 C 
ATOM      3  C   LIG    1        1.976   1.231   0.630  0.00  0.00    +0.030 C 
ATOM      4  C   LIG    1        1.478   2.628   0.251  0.00  0.00    +0.020 C 
ATOM      5  C   LIG    1        0.536   2.521  -0.953  0.00  0.00    +0.280 C 
ATOM      6  N   LIG    1       -0.533   1.566  -0.632  0.00  0.00    -0.600 N 
ATOM      7  C   LIG    1       -1.828   1.915  -0.766  0.00  0.00    +0.530 C 
ATOM      8  O   LIG    1       -2.699   1.084  -0.616  0.00  0.00    -0.540 OA
ENDROOT
BRANCH   1  10
ATOM      9  C   LIG    1       -2.061   0.168   1.456  0.00  0.00    +0.080 C 
ATOM     10  C   LIG    1       -1.423  -0.538   0.258  0.00  0.00    +0.200 C 
BRANCH  10  11
ATOM     11  N   LIG    1       -1.062  -1.911   0.633  0.00  0.00    -0.640 N 
ATOM     12  H   LIG    1       -0.641  -2.377  -0.157  0.00  0.00    +0.430 HD
ATOM     13  H   LIG    1       -1.892  -2.412   0.915  0.00  0.00    +0.440 HD
ATOM     14  H   LIG    1       -0.406  -1.890   1.399  0.00  0.00    +0.420 HD
ENDBRANCH  10  11
ENDBRANCH   1  10
BRANCH   7  15
ATOM     15  C   LIG    1       -2.194   3.338  -1.101  0.00  0.00    +0.080 C 
BRANCH  15  16
ATOM     16  C   LIG    1       -3.716   3.464  -1.194  0.00  0.00    +0.200 C 
BRANCH  16  17
ATOM     17  O   LIG    1       -4.064   4.813  -1.512  0.00  0.00    -0.380 OA
BRANCH  17  18
ATOM     18  C   LIG    1       -5.470   5.041  -1.623  0.00  0.00    +0.150 C 
ATOM     19  C   LIG    1       -5.912   4.817  -3.072  0.00  0.00    -0.030 C 
ATOM     20  C   LIG    1       -7.404   5.139  -3.198  0.00  0.00    +0.210 C 
ATOM     21  O   LIG    1       -7.636   6.486  -2.779  0.00  0.00    -0.380 OA
ATOM     22  C   LIG    1       -7.285   6.742  -1.417  0.00  0.00    +0.210 C 
ATOM     23  C   LIG    1       -5.789   6.484  -1.220  0.00  0.00    +0.010 C 
ENDBRANCH  17  18
ENDBRANCH  16  17
ENDBRANCH  15  16
ENDBRANCH   7  15
TORSDOF 6
