REMARK  Name = ZINCpk00000e9L95.0
REMARK                            x       y       z     vdW  Elec       q    Type
REMARK                         _______ _______ _______ _____ _____    ______ ____
ROOT
ATOM      1  C   LIG    1        0.002  -0.004   0.002  0.00  0.00    +0.480 C 
ATOM      2  N   LIG    1       -1.156  -0.694   0.009  0.00  0.00    -0.520 N 
ATOM      3  H   LIG    1       -2.002  -0.220   0.020  0.00  0.00    +0.430 HD
ATOM      4  O   LIG    1        1.060  -0.596  -0.011  0.00  0.00    -0.520 OA
ENDROOT
BRANCH   2   5
ATOM      5  N   LIG    1       -1.137  -2.095   0.002  0.00  0.00    -0.530 N 
ATOM      6  H   LIG    1       -0.290  -2.568  -0.009  0.00  0.00    +0.430 HD
ATOM      7  C   LIG    1       -2.295  -2.784   0.009  0.00  0.00    +0.510 C 
ATOM      8  O   LIG    1       -3.353  -2.192   0.022  0.00  0.00    -0.530 OA
BRANCH   7   9
ATOM      9  C   LIG    1       -2.274  -4.291   0.001  0.00  0.00    +0.080 C 
BRANCH   9  10
ATOM     10  C   LIG    1       -3.710  -4.821   0.012  0.00  0.00    +0.040 C 
ATOM     11  C   LIG    1       -4.387  -4.479   1.318  0.00  0.00    -0.020 C 
ATOM     12  C   LIG    1       -5.044  -5.504   1.789  0.00  0.00    -0.050 C 
ATOM     13  C   LIG    1       -4.914  -6.700   0.875  0.00  0.00    +0.050 C 
ATOM     14  C   LIG    1       -3.714  -6.366  -0.041  0.00  0.00    +0.030 C 
ENDBRANCH   9  10
ENDBRANCH   7   9
ENDBRANCH   2   5
BRANCH   1  15
ATOM     15  C   LIG    1       -0.018   1.503   0.010  0.00  0.00    +0.360 C 
BRANCH  15  17
ATOM     16  C   LIG    1        2.069   2.166  -1.270  0.00  0.00    +0.320 C 
ATOM     17  N   LIG    1        1.356   2.010  -0.000  0.00  0.00    -0.980 NA
BRANCH  17  18
ATOM     18  S   LIG    1        2.103   2.406   1.424  0.00  0.00    +2.690 S 
ATOM     19  O   LIG    1        1.068   2.684   2.356  0.00  0.00    -0.950 OA
ATOM     20  O   LIG    1        3.124   3.338   1.095  0.00  0.00    -0.940 OA
BRANCH  18  21
ATOM     21  C   LIG    1        2.920   0.957   2.005  0.00  0.00    -0.670 A 
ATOM     22  C   LIG    1        2.257   0.079   2.841  0.00  0.00    +0.140 A 
ATOM     23  C   LIG    1        2.896  -1.061   3.294  0.00  0.00    +0.010 A 
ATOM     24  C   LIG    1        4.203  -1.316   2.918  0.00  0.00    +0.020 A 
ATOM     25  C   LIG    1        4.867  -0.434   2.085  0.00  0.00    +0.010 A 
ATOM     26 CL   LIG    1        5.008  -2.743   3.492  0.00  0.00    -0.060 Cl
ATOM     27  C   LIG    1        4.226   0.702   1.629  0.00  0.00    +0.150 A 
ENDBRANCH  18  21
ENDBRANCH  17  18
ENDBRANCH  15  17
ENDBRANCH   1  15
TORSDOF 7
