REMARK  Name = ZINCtV000002G0Om.0
REMARK                            x       y       z     vdW  Elec       q    Type
REMARK                         _______ _______ _______ _____ _____    ______ ____
ROOT
ATOM      1  C   LIG    1       10.128  -3.585  -2.256  0.00  0.00    +0.130 C 
ATOM      2  C   LIG    1        8.874  -2.996  -2.849  0.00  0.00    +0.040 A 
ATOM      3  C   LIG    1        8.831  -2.640  -4.164  0.00  0.00    -0.060 A 
ATOM      4  C   LIG    1        7.660  -2.091  -4.708  0.00  0.00    +0.180 A 
ATOM      5  N   LIG    1        6.594  -1.910  -3.978  0.00  0.00    -0.270 NA
ATOM      6  N   LIG    1        6.588  -2.266  -2.626  0.00  0.00    -0.260 N 
ATOM      7  C   LIG    1        5.654  -2.190  -1.644  0.00  0.00    +0.220 A 
ATOM      8  N   LIG    1        6.157  -2.656  -0.523  0.00  0.00    -0.450 NA
ATOM      9  C   LIG    1        7.428  -3.047  -0.720  0.00  0.00    +0.100 A 
ATOM     10  C   LIG    1        7.633  -1.703  -6.164  0.00  0.00    +0.170 C 
ATOM     11  C   LIG    1        7.732  -2.805  -2.056  0.00  0.00    -0.040 A 
ENDROOT
BRANCH   9  12
ATOM     12  C   LIG    1        8.335  -3.626   0.294  0.00  0.00    -0.010 A 
ATOM     13  C   LIG    1        9.087  -4.764  -0.005  0.00  0.00    +0.030 A 
ATOM     14  C   LIG    1        9.935  -5.295   0.944  0.00  0.00    +0.010 A 
ATOM     15  C   LIG    1       10.033  -4.710   2.194  0.00  0.00    +0.010 A 
ATOM     16  C   LIG    1        9.287  -3.585   2.499  0.00  0.00    +0.010 A 
ATOM     17  C   LIG    1        8.439  -3.040   1.558  0.00  0.00    +0.040 A 
ENDBRANCH   9  12
BRANCH   7  18
ATOM     18  S   LIG    1        4.017  -1.569  -1.844  0.00  0.00    +0.020 S 
BRANCH  18  19
ATOM     19  C   LIG    1        3.306  -1.752  -0.186  0.00  0.00    +0.160 C 
BRANCH  19  20
ATOM     20  C   LIG    1        1.883  -1.256  -0.192  0.00  0.00    -0.070 A 
ATOM     21  C   LIG    1        1.612   0.049   0.086  0.00  0.00    +0.040 A 
ATOM     22  C   LIG    1        0.303   0.526   0.085  0.00  0.00    +0.010 A 
ATOM     23  C   LIG    1       -0.744  -0.299  -0.193  0.00  0.00    +0.040 A 
ATOM     24  C   LIG    1       -0.503  -1.653  -0.484  0.00  0.00    -0.050 A 
ATOM     25  C   LIG    1       -1.557  -2.535  -0.777  0.00  0.00    +0.030 A 
ATOM     26  C   LIG    1       -1.286  -3.840  -1.055  0.00  0.00    +0.000 A 
ATOM     27  C   LIG    1        0.023  -4.316  -1.054  0.00  0.00    +0.010 A 
ATOM     28  C   LIG    1        1.069  -3.491  -0.775  0.00  0.00    +0.020 A 
ATOM     29  C   LIG    1        0.829  -2.138  -0.484  0.00  0.00    -0.030 A 
ENDBRANCH  19  20
ENDBRANCH  18  19
ENDBRANCH   7  18
TORSDOF 4
