REMARK  Name = ZINCvU00000007J7.0
REMARK                            x       y       z     vdW  Elec       q    Type
REMARK                         _______ _______ _______ _____ _____    ______ ____
ROOT
ATOM      1  C   LIG    1       -1.731  -1.559  -1.590  0.00  0.00    +0.270 A 
ATOM      2  N   LIG    1       -2.794  -0.868  -1.324  0.00  0.00    -0.460 NA
ATOM      3  C   LIG    1       -3.928  -1.534  -1.211  0.00  0.00    +0.100 A 
ATOM      4  C   LIG    1       -3.817  -2.852  -1.389  0.00  0.00    -0.060 A 
ATOM      5  S   LIG    1       -2.127  -3.216  -1.730  0.00  0.00    +0.160 S 
ENDROOT
BRANCH   1   8
ATOM      6  C   LIG    1        1.164   0.835  -1.582  0.00  0.00    +0.110 C 
ATOM      7  C   LIG    1       -0.237   0.282  -1.524  0.00  0.00    +0.510 C 
ATOM      8  N   LIG    1       -0.454  -1.029  -1.744  0.00  0.00    -0.480 N 
ATOM      9  O   LIG    1       -1.170   1.019  -1.284  0.00  0.00    -0.460 OA
BRANCH   8  10
ATOM     10  C   LIG    1        0.607  -1.859  -2.128  0.00  0.00    +0.110 A 
ATOM     11  C   LIG    1        1.102  -2.810  -1.245  0.00  0.00    +0.010 A 
ATOM     12  C   LIG    1        2.149  -3.627  -1.627  0.00  0.00    +0.040 A 
ATOM     13  C   LIG    1        2.703  -3.499  -2.888  0.00  0.00    +0.030 A 
ATOM     14  C   LIG    1        2.212  -2.553  -3.769  0.00  0.00    -0.070 A 
ATOM     15  C   LIG    1        2.820  -2.416  -5.142  0.00  0.00    +0.100 C 
ATOM     16  C   LIG    1        1.163  -1.737  -3.396  0.00  0.00    +0.020 A 
ENDBRANCH   8  10
ENDBRANCH   1   8
BRANCH   3  17
ATOM     17  C   LIG    1       -5.241  -0.862  -0.904  0.00  0.00    +0.200 C 
BRANCH  17  18
ATOM     18  S   LIG    1       -6.052  -0.390  -2.452  0.00  0.00    +0.070 S 
BRANCH  18  19
ATOM     19  C   LIG    1       -7.518   0.352  -1.815  0.00  0.00    +0.220 A 
ATOM     20  N   LIG    1       -7.843   0.479  -0.546  0.00  0.00    -0.330 NA
ATOM     21  N   LIG    1       -8.979   1.067  -0.429  0.00  0.00    -0.030 NA
ATOM     22  N   LIG    1       -9.458   1.354  -1.591  0.00  0.00    -0.070 NA
ATOM     23  N   LIG    1       -8.524   0.904  -2.540  0.00  0.00    -0.310 N 
BRANCH  23  24
ATOM     24  C   LIG    1       -8.612   1.003  -3.936  0.00  0.00    +0.110 A 
ATOM     25  C   LIG    1       -7.532   1.474  -4.670  0.00  0.00    +0.030 A 
ATOM     26  C   LIG    1       -7.620   1.566  -6.045  0.00  0.00    +0.040 A 
ATOM     27  C   LIG    1       -8.787   1.199  -6.690  0.00  0.00    +0.040 A 
ATOM     28  C   LIG    1       -9.867   0.735  -5.962  0.00  0.00    -0.070 A 
ATOM     29  C   LIG    1      -11.136   0.336  -6.669  0.00  0.00    +0.100 C 
ATOM     30  C   LIG    1       -9.783   0.636  -4.587  0.00  0.00    -0.050 A 
ATOM     31  C   LIG    1      -10.960   0.131  -3.793  0.00  0.00    +0.110 C 
ENDBRANCH  23  24
ENDBRANCH  18  19
ENDBRANCH  17  18
ENDBRANCH   3  17
TORSDOF 6
