REMARK  Name = ZINCqH0000003N4j.0
REMARK                            x       y       z     vdW  Elec       q    Type
REMARK                         _______ _______ _______ _____ _____    ______ ____
ROOT
ATOM      1  C   LIG    1        0.002  -0.004   0.002  0.00  0.00    +0.290 C 
ATOM      2  C   LIG    1       -0.019   1.526   0.010  0.00  0.00    +0.040 C 
ENDROOT
BRANCH   1   6
ATOM      3  C   LIG    1        2.076  -1.420   3.464  0.00  0.00    +0.110 A 
ATOM      4  C   LIG    1        2.786  -0.976   2.361  0.00  0.00    -0.030 A 
ATOM      5  C   LIG    1        2.113  -0.524   1.241  0.00  0.00    +0.010 A 
ATOM      6  C   LIG    1        0.731  -0.503   1.223  0.00  0.00    -0.090 A 
ATOM      7  C   LIG    1        0.016  -0.945   2.321  0.00  0.00    -0.020 A 
ATOM      8  C   LIG    1        0.684  -1.404   3.444  0.00  0.00    +0.110 A 
BRANCH   3   9
ATOM      9  O   LIG    1        2.737  -1.869   4.564  0.00  0.00    -0.300 OA
BRANCH   9  11
ATOM     10  C   LIG    1        4.726  -2.393   5.832  0.00  0.00    +0.070 C 
ATOM     11  C   LIG    1        4.165  -1.856   4.514  0.00  0.00    +0.170 C 
ENDBRANCH   9  11
ENDBRANCH   3   9
BRANCH   8  12
ATOM     12  O   LIG    1       -0.018  -1.839   4.524  0.00  0.00    -0.300 OA
BRANCH  12  13
ATOM     13  C   LIG    1       -1.443  -1.794   4.433  0.00  0.00    +0.170 C 
ATOM     14  C   LIG    1       -2.054  -2.319   5.734  0.00  0.00    +0.070 C 
ENDBRANCH  12  13
ENDBRANCH   8  12
ENDBRANCH   1   6
BRANCH   1  15
ATOM     15  N   LIG    1        0.688  -0.476  -1.203  0.00  0.00    -0.720 N 
ATOM     16  H   LIG    1        1.632  -0.695  -1.170  0.00  0.00    +0.400 HD
ATOM     17  C   LIG    1        0.006  -0.608  -2.358  0.00  0.00    +0.570 C 
ATOM     18  O   LIG    1       -1.178  -0.335  -2.400  0.00  0.00    -0.510 OA
BRANCH  17  19
ATOM     19  C   LIG    1        0.697  -1.084  -3.572  0.00  0.00    -0.220 A 
ATOM     20  C   LIG    1        2.060  -1.397  -3.540  0.00  0.00    +0.130 A 
ATOM     21  C   LIG    1        2.660  -1.845  -4.704  0.00  0.00    -0.070 A 
ATOM     22  C   LIG    1        1.905  -1.958  -5.857  0.00  0.00    +0.340 A 
ATOM     23  N   LIG    1        0.622  -1.652  -5.867  0.00  0.00    -0.550 NA
ATOM     24  C   LIG    1       -0.001  -1.226  -4.782  0.00  0.00    +0.380 A 
BRANCH  24  25
ATOM     25  O   LIG    1       -1.320  -0.924  -4.837  0.00  0.00    -0.270 OA
BRANCH  25  26
ATOM     26  C   LIG    1       -1.971  -1.090  -6.098  0.00  0.00    +0.200 C 
ATOM     27  C   LIG    1       -3.445  -0.703  -5.966  0.00  0.00    +0.070 C 
ENDBRANCH  25  26
ENDBRANCH  24  25
ENDBRANCH  17  19
ENDBRANCH   1  15
TORSDOF 9
