REMARK  Name = ZINCHm0000000o4p.0
REMARK                            x       y       z     vdW  Elec       q    Type
REMARK                         _______ _______ _______ _____ _____    ______ ____
ROOT
ATOM      1  C   LIG    1       -0.488   1.301   2.406  0.00  0.00    +0.550 C 
ATOM      2  N   LIG    1       -1.170   0.874   1.325  0.00  0.00    -0.590 N 
ATOM      3  C   LIG    1       -2.636   0.895   1.172  0.00  0.00    +0.240 C 
ATOM      4  C   LIG    1       -2.941  -0.207   0.126  0.00  0.00    +0.180 C 
ATOM      5  C   LIG    1       -1.735  -0.058  -0.845  0.00  0.00    +0.080 C 
ATOM      6  C   LIG    1       -0.576   0.311   0.104  0.00  0.00    +0.240 C 
ATOM      7  O   LIG    1        0.714   1.150   2.463  0.00  0.00    -0.520 OA
ENDROOT
BRANCH   6   8
ATOM      8  C   LIG    1        0.317   1.333  -0.550  0.00  0.00    +0.510 C 
ATOM      9  N   LIG    1        0.963   1.031  -1.693  0.00  0.00    -0.730 N 
ATOM     10  H   LIG    1        0.853   0.155  -2.095  0.00  0.00    +0.400 HD
ATOM     11  O   LIG    1        0.454   2.428  -0.047  0.00  0.00    -0.510 OA
BRANCH   9  12
ATOM     12  C   LIG    1        1.831   2.025  -2.329  0.00  0.00    +0.320 C 
BRANCH  12  13
ATOM     13  C   LIG    1        2.429   1.441  -3.583  0.00  0.00    -0.100 A 
ATOM     14  C   LIG    1        3.637   0.771  -3.525  0.00  0.00    +0.060 A 
ATOM     15  C   LIG    1        4.184   0.230  -4.671  0.00  0.00    +0.020 A 
ATOM     16  C   LIG    1        3.526   0.369  -5.886  0.00  0.00    +0.130 A 
ATOM     17  C   LIG    1        2.316   1.047  -5.942  0.00  0.00    +0.010 A 
ATOM     18  C   LIG    1        1.771   1.582  -4.791  0.00  0.00    +0.060 A 
BRANCH  16  19
ATOM     19  N   LIG    1        4.082  -0.175  -7.053  0.00  0.00    -0.420 N 
ATOM     20  C   LIG    1        3.442  -0.972  -7.966  0.00  0.00    +0.130 A 
ATOM     21  C   LIG    1        4.341  -1.266  -8.925  0.00  0.00    +0.160 A 
ATOM     22  N   LIG    1        5.499  -0.667  -8.611  0.00  0.00    -0.480 NA
ATOM     23  C   LIG    1        5.355  -0.005  -7.495  0.00  0.00    +0.220 A 
ATOM     24  C   LIG    1        6.424   0.807  -6.810  0.00  0.00    +0.180 C 
ENDBRANCH  16  19
ENDBRANCH  12  13
ENDBRANCH   9  12
ENDBRANCH   6   8
BRANCH   4  25
ATOM     25  O   LIG    1       -2.955  -1.500   0.733  0.00  0.00    -0.550 OA
ATOM     26  H   LIG    1       -3.630  -1.606   1.417  0.00  0.00    +0.390 HD
ENDBRANCH   4  25
BRANCH   1  27
ATOM     27  C   LIG    1       -1.218   1.965   3.545  0.00  0.00    +0.250 C 
BRANCH  27  29
ATOM     28  C   LIG    1       -1.233   1.682   5.965  0.00  0.00    +0.520 C 
ATOM     29  N   LIG    1       -0.544   1.652   4.807  0.00  0.00    -0.720 N 
ATOM     30  H   LIG    1        0.398   1.423   4.809  0.00  0.00    +0.410 HD
ATOM     31  O   LIG    1       -2.412   1.969   5.962  0.00  0.00    -0.530 OA
BRANCH  28  32
ATOM     32  C   LIG    1       -0.540   1.360   7.263  0.00  0.00    +0.050 C 
BRANCH  32  33
ATOM     33  C   LIG    1       -1.540   1.466   8.416  0.00  0.00    +0.070 C 
BRANCH  33  37
ATOM     34  C   LIG    1       -0.914   1.452  12.105  0.00  0.00    +0.010 C 
ATOM     35  C   LIG    1        0.143   2.382  11.471  0.00  0.00    +0.230 C 
ATOM     36  O   LIG    1        0.122   2.160  10.055  0.00  0.00    -0.370 OA
ATOM     37  C   LIG    1       -0.836   1.139   9.734  0.00  0.00    +0.160 C 
ATOM     38  C   LIG    1       -1.852   1.152  10.904  0.00  0.00    +0.050 C 
BRANCH  34  39
ATOM     39  C   LIG    1       -1.661   2.162  13.205  0.00  0.00    +0.470 C 
ATOM     40  O   LIG    1       -2.835   2.418  13.070  0.00  0.00    -0.500 OA
BRANCH  39  42
ATOM     41  C   LIG    1       -1.806   3.191  15.350  0.00  0.00    +0.260 C 
ATOM     42  O   LIG    1       -1.024   2.510  14.334  0.00  0.00    -0.360 OA
ENDBRANCH  39  42
ENDBRANCH  34  39
ENDBRANCH  33  37
ENDBRANCH  32  33
ENDBRANCH  28  32
ENDBRANCH  27  29
BRANCH  27  43
ATOM     43  C   LIG    1       -1.224   3.481   3.332  0.00  0.00    -0.070 C 
ATOM     44  C   LIG    1        0.217   3.995   3.292  0.00  0.00    +0.030 C 
ATOM     45  C   LIG    1       -1.974   4.154   4.482  0.00  0.00    +0.040 C 
ATOM     46  C   LIG    1       -1.918   3.807   2.009  0.00  0.00    +0.040 C 
ENDBRANCH  27  43
ENDBRANCH   1  27
TORSDOF 13
