REMARK  Name = ZINCpk000005EFP6.0
REMARK                            x       y       z     vdW  Elec       q    Type
REMARK                         _______ _______ _______ _____ _____    ______ ____
ROOT
ATOM      1  C   LIG    1        3.983  -2.142  -0.494  0.00  0.00    +0.030 C 
ATOM      2  C   LIG    1        2.848  -3.119  -0.808  0.00  0.00    +0.170 C 
ATOM      3  C   LIG    1        3.180  -4.428  -0.214  0.00  0.00    +0.040 C 
ATOM      4  C   LIG    1        2.091  -5.464  -0.589  0.00  0.00    +0.270 C 
ATOM      5  N   LIG    1        0.859  -5.141   0.098  0.00  0.00    -0.590 N 
ATOM      6  C   LIG    1       -0.162  -4.236  -0.468  0.00  0.00    +0.300 C 
ATOM      7  C   LIG    1        0.480  -3.004  -1.134  0.00  0.00    +0.210 C 
ATOM      8  C   LIG    1        0.633  -5.691   1.308  0.00  0.00    +0.590 C 
ATOM      9  O   LIG    1       -0.440  -5.531   1.858  0.00  0.00    -0.530 OA
ATOM     10  N   LIG    1        1.592  -2.541  -0.331  0.00  0.00    -0.470 N 
ENDROOT
BRANCH   8  11
ATOM     11  C   LIG    1        1.685  -6.487   1.963  0.00  0.00    -0.270 A 
ATOM     12  C   LIG    1        1.551  -7.231   3.121  0.00  0.00    +0.180 A 
ATOM     13  N   LIG    1        2.742  -7.800   3.372  0.00  0.00    -0.350 N 
ATOM     14  N   LIG    1        3.641  -7.408   2.374  0.00  0.00    -0.270 NA
ATOM     15  C   LIG    1        3.049  -8.677   4.504  0.00  0.00    +0.370 C 
ATOM     16 CL   LIG    1        0.108  -7.403   4.071  0.00  0.00    +0.030 Cl
ATOM     17  C   LIG    1        3.024  -6.627   1.531  0.00  0.00    +0.280 A 
ENDBRANCH   8  11
BRANCH  10  18
ATOM     18  C   LIG    1        1.655  -1.156  -0.322  0.00  0.00    +0.270 A 
ATOM     19  C   LIG    1        1.677  -0.466   0.891  0.00  0.00    +0.080 A 
ATOM     20  C   LIG    1        1.740   0.915   0.853  0.00  0.00    +0.100 A 
ATOM     21  C   LIG    1        1.779   1.537  -0.403  0.00  0.00    +0.130 A 
ATOM     22  N   LIG    1        1.755   0.797  -1.506  0.00  0.00    -0.180 NA
ATOM     23  N   LIG    1        1.696  -0.484  -1.467  0.00  0.00    -0.260 NA
BRANCH  21  24
ATOM     24  C   LIG    1        1.845   2.964  -0.496  0.00  0.00    +0.260 C 
ATOM     25  N   LIG    1        1.897   4.096  -0.570  0.00  0.00    -0.370 NA
ENDBRANCH  21  24
ENDBRANCH  10  18
TORSDOF 3
