REMARK  Name = ZINC9u0000000C5u.0
REMARK                            x       y       z     vdW  Elec       q    Type
REMARK                         _______ _______ _______ _____ _____    ______ ____
ROOT
ATOM      1  C   LIG    1        2.450   3.948  -0.001  0.00  0.00    +0.110 C 
ATOM      2  C   LIG    1        1.157   3.173   0.008  0.00  0.00    -0.110 A 
ATOM      3  C   LIG    1       -0.050   3.844   0.022  0.00  0.00    +0.060 A 
ATOM      4  C   LIG    1       -1.237   3.134   0.030  0.00  0.00    -0.100 A 
ATOM      5  C   LIG    1       -1.218   1.751   0.017  0.00  0.00    +0.060 A 
ATOM      6  C   LIG    1       -0.013   1.076   0.008  0.00  0.00    +0.000 A 
ATOM      7 BR   LIG    1       -2.889   4.055   0.051  0.00  0.00    -0.050 Br
ATOM      8  C   LIG    1        1.179   1.786   0.000  0.00  0.00    +0.120 A 
ENDROOT
BRANCH   8   9
ATOM      9  O   LIG    1        2.366   1.124  -0.015  0.00  0.00    -0.490 OA
ATOM     10  H   LIG    1        2.701   0.937  -0.902  0.00  0.00    +0.390 HD
ENDBRANCH   8   9
TORSDOF 1
