REMARK  Name = ZINCrH000004jouV.0
REMARK                            x       y       z     vdW  Elec       q    Type
REMARK                         _______ _______ _______ _____ _____    ______ ____
ROOT
ATOM      1  C   LIG    1        4.029  -1.298  -0.060  0.00  0.00    +0.110 C 
ENDROOT
BRANCH   1   2
ATOM      2  C   LIG    1        5.500  -1.622  -0.065  0.00  0.00    +0.530 C 
ATOM      3  N   LIG    1        5.907  -2.907  -0.072  0.00  0.00    -0.650 N 
ATOM      4  H   LIG    1        5.257  -3.622   0.007  0.00  0.00    +0.420 HD
ATOM      5  O   LIG    1        6.319  -0.727  -0.062  0.00  0.00    -0.510 OA
BRANCH   3   6
ATOM      6  C   LIG    1        7.272  -3.210  -0.193  0.00  0.00    +0.080 A 
ATOM      7  C   LIG    1        8.132  -2.309  -0.802  0.00  0.00    +0.110 A 
ATOM      8  C   LIG    1        9.477  -2.605  -0.916  0.00  0.00    -0.080 A 
ATOM      9  C   LIG    1        9.968  -3.808  -0.433  0.00  0.00    +0.150 A 
ATOM     10  C   LIG    1        9.111  -4.716   0.172  0.00  0.00    -0.080 A 
ATOM     11  C   LIG    1        7.764  -4.420   0.293  0.00  0.00    +0.140 A 
BRANCH   9  12
ATOM     12  O   LIG    1       11.291  -4.099  -0.552  0.00  0.00    -0.320 OA
ATOM     13  C   LIG    1       12.116  -3.119  -1.186  0.00  0.00    +0.250 C 
ENDBRANCH   9  12
BRANCH  11  14
ATOM     14  O   LIG    1        6.922  -5.308   0.886  0.00  0.00    -0.320 OA
ATOM     15  C   LIG    1        7.495  -6.528   1.361  0.00  0.00    +0.250 C 
ENDBRANCH  11  14
ENDBRANCH   3   6
ENDBRANCH   1   2
BRANCH   1  16
ATOM     16  S   LIG    1        3.807   0.498  -0.051  0.00  0.00    +0.090 S 
BRANCH  16  18
ATOM     17  N   LIG    1        1.294   1.730  -0.041  0.00  0.00    -0.460 N 
ATOM     18  C   LIG    1        2.047   0.589  -0.047  0.00  0.00    +0.150 A 
ATOM     19  N   LIG    1        1.215  -0.427  -0.051  0.00  0.00    -0.290 NA
ATOM     20  N   LIG    1        0.001  -0.005  -0.047  0.00  0.00    -0.260 NA
ATOM     21  C   LIG    1       -0.017   1.309  -0.041  0.00  0.00    +0.260 A 
BRANCH  21  22
ATOM     22  C   LIG    1       -1.212   2.168  -0.040  0.00  0.00    -0.130 A 
ATOM     23  C   LIG    1       -2.469   1.756   0.234  0.00  0.00    +0.070 A 
ATOM     24  C   LIG    1       -3.425   2.748   0.175  0.00  0.00    +0.010 A 
ATOM     25  C   LIG    1       -2.966   3.959  -0.153  0.00  0.00    -0.030 A 
ATOM     26  S   LIG    1       -1.227   3.889  -0.404  0.00  0.00    +0.130 S 
ENDBRANCH  21  22
BRANCH  17  28
ATOM     27  C   LIG    1        1.952   3.586   1.410  0.00  0.00    +0.060 C 
ATOM     28  C   LIG    1        1.781   3.112  -0.034  0.00  0.00    +0.310 C 
ENDBRANCH  17  28
ENDBRANCH  16  18
ENDBRANCH   1  16
TORSDOF 8
