REMARK  Name = ZINCpe000000YWCT.0
REMARK                            x       y       z     vdW  Elec       q    Type
REMARK                         _______ _______ _______ _____ _____    ______ ____
ROOT
ATOM      1  O   LIG    1        6.398   2.986  -3.249  0.00  0.00    -0.520 OA
ATOM      2  C   LIG    1        7.180   2.099  -2.982  0.00  0.00    +0.540 C 
ATOM      3  N   LIG    1        8.440   2.146  -3.457  0.00  0.00    -0.720 N 
ATOM      4  H   LIG    1        9.066   1.436  -3.244  0.00  0.00    +0.410 HD
ENDROOT
BRANCH   3   5
ATOM      5  C   LIG    1        8.865   3.269  -4.296  0.00  0.00    +0.280 C 
BRANCH   5   6
ATOM      6  C   LIG    1       10.329   3.079  -4.699  0.00  0.00    +0.000 C 
BRANCH   6   7
ATOM      7  C   LIG    1       10.773   4.252  -5.575  0.00  0.00    +0.300 C 
BRANCH   7   8
ATOM      8  N   LIG    1       12.175   4.071  -5.961  0.00  0.00    -0.620 N 
ATOM      9  C   LIG    1       13.317   4.580  -5.193  0.00  0.00    +0.250 C 
ATOM     10  C   LIG    1       14.544   3.795  -5.714  0.00  0.00    +0.040 C 
ATOM     11  C   LIG    1       14.090   3.418  -7.143  0.00  0.00    +0.050 C 
ATOM     12  C   LIG    1       12.579   3.422  -7.066  0.00  0.00    +0.520 C 
ATOM     13  O   LIG    1       11.841   2.914  -7.883  0.00  0.00    -0.530 OA
ENDBRANCH   7   8
ENDBRANCH   6   7
ENDBRANCH   5   6
ENDBRANCH   3   5
BRANCH   2  14
ATOM     14  C   LIG    1        6.743   0.943  -2.119  0.00  0.00    +0.090 C 
BRANCH  14  15
ATOM     15  S   LIG    1        5.011   1.167  -1.643  0.00  0.00    +0.130 S 
BRANCH  15  16
ATOM     16  C   LIG    1        4.771  -0.282  -0.669  0.00  0.00    +0.200 A 
ATOM     17  N   LIG    1        5.668  -1.210  -0.413  0.00  0.00    -0.330 NA
ATOM     18  N   LIG    1        5.163  -2.133   0.323  0.00  0.00    -0.020 NA
ATOM     19  N   LIG    1        3.931  -1.871   0.595  0.00  0.00    -0.070 NA
ATOM     20  N   LIG    1        3.624  -0.652  -0.035  0.00  0.00    -0.310 N 
BRANCH  20  21
ATOM     21  C   LIG    1        2.399   0.031  -0.021  0.00  0.00    +0.120 A 
ATOM     22  C   LIG    1        1.207  -0.680  -0.013  0.00  0.00    +0.050 A 
ATOM     23  C   LIG    1        0.002  -0.004   0.002  0.00  0.00    +0.040 A 
ATOM     24  C   LIG    1       -0.017   1.379   0.010  0.00  0.00    +0.040 A 
ATOM     25  C   LIG    1        1.170   2.089   0.002  0.00  0.00    +0.050 A 
ATOM     26  C   LIG    1        2.377   1.419  -0.013  0.00  0.00    +0.030 A 
ENDBRANCH  20  21
ENDBRANCH  15  16
ENDBRANCH  14  15
ENDBRANCH   2  14
TORSDOF 8
