REMARK  Name = ZINCpe000000W6hq.0
REMARK                            x       y       z     vdW  Elec       q    Type
REMARK                         _______ _______ _______ _____ _____    ______ ____
ROOT
ATOM      1  N   LIG    1        1.278   1.744  -0.001  0.00  0.00    -0.290 N 
ATOM      2  C   LIG    1       -0.016   1.349   0.009  0.00  0.00    +0.160 A 
ATOM      3  C   LIG    1        0.002  -0.004   0.002  0.00  0.00    -0.060 A 
ATOM      4  N   LIG    1        1.290  -0.366  -0.012  0.00  0.00    -0.260 NA
ATOM      5  N   LIG    1        2.020   0.692  -0.013  0.00  0.00    -0.080 NA
ENDROOT
BRANCH   1   6
ATOM      6  C   LIG    1        1.753   3.130   0.002  0.00  0.00    +0.440 C 
BRANCH   6  11
ATOM      7  C   LIG    1        4.084   3.064   1.208  0.00  0.00    +0.050 A 
ATOM      8  N   LIG    1        4.481   3.399   2.401  0.00  0.00    -0.340 NA
ATOM      9  O   LIG    1        3.567   3.816   3.074  0.00  0.00    +0.110 OA
ATOM     10  C   LIG    1        2.414   3.816   2.392  0.00  0.00    +0.200 A 
ATOM     11  C   LIG    1        2.698   3.335   1.158  0.00  0.00    -0.220 A 
BRANCH   7  12
ATOM     12  C   LIG    1        4.935   2.502   0.097  0.00  0.00    +0.290 C 
BRANCH  12  14
ATOM     13  C   LIG    1        6.289   3.147  -1.772  0.00  0.00    +0.220 C 
ATOM     14  O   LIG    1        5.463   3.574  -0.687  0.00  0.00    -0.390 OA
ENDBRANCH  12  14
ENDBRANCH   7  12
ENDBRANCH   6  11
ENDBRANCH   1   6
BRANCH   3  15
ATOM     15  C   LIG    1       -1.193  -0.922   0.008  0.00  0.00    +0.340 C 
BRANCH  15  16
ATOM     16  N   LIG    1       -1.520  -1.309  -1.371  0.00  0.00    -0.520 NA
ATOM     17  C   LIG    1       -0.452  -2.130  -1.955  0.00  0.00    +0.170 C 
ATOM     18  C   LIG    1       -0.889  -2.634  -3.332  0.00  0.00    +0.040 C 
ATOM     19  C   LIG    1       -1.190  -1.435  -4.237  0.00  0.00    +0.030 C 
ATOM     20  C   LIG    1       -2.272  -0.571  -3.583  0.00  0.00    +0.040 C 
ATOM     21  C   LIG    1       -1.794  -0.127  -2.198  0.00  0.00    +0.190 C 
BRANCH  20  22
ATOM     22  C   LIG    1       -2.532   0.643  -4.438  0.00  0.00    +0.470 C 
ATOM     23  O   LIG    1       -2.357   1.749  -3.986  0.00  0.00    -0.510 OA
BRANCH  22  24
ATOM     24  O   LIG    1       -2.957   0.493  -5.702  0.00  0.00    -0.360 OA
ATOM     25  C   LIG    1       -3.187   1.706  -6.468  0.00  0.00    +0.250 C 
ENDBRANCH  22  24
ENDBRANCH  20  22
ENDBRANCH  15  16
ENDBRANCH   3  15
TORSDOF 8
