REMARK  Name = ZINCrH000004tRF5.0
REMARK                            x       y       z     vdW  Elec       q    Type
REMARK                         _______ _______ _______ _____ _____    ______ ____
ROOT
ATOM      1  O   LIG    1        5.673  -2.681   0.037  0.00  0.00    -0.500 OA
ATOM      2  C   LIG    1        6.312  -1.651   0.035  0.00  0.00    +0.530 C 
ATOM      3  N   LIG    1        5.678  -0.465  -0.054  0.00  0.00    -0.650 N 
ATOM      4  H   LIG    1        6.191   0.355  -0.137  0.00  0.00    +0.420 HD
ENDROOT
BRANCH   3   5
ATOM      5  C   LIG    1        4.283  -0.415  -0.029  0.00  0.00    +0.140 A 
ATOM      6  C   LIG    1        3.553  -1.421   0.574  0.00  0.00    +0.030 A 
ATOM      7  C   LIG    1        2.158  -1.401   0.615  0.00  0.00    +0.050 A 
ATOM      8  C   LIG    1        1.465  -0.372   0.052  0.00  0.00    -0.090 A 
ATOM      9  C   LIG    1       -0.001  -0.036  -0.085  0.00  0.00    +0.100 C 
ATOM     10  C   LIG    1       -0.042   1.305  -0.849  0.00  0.00    +0.100 C 
ATOM     11  C   LIG    1        1.402   1.661  -1.107  0.00  0.00    -0.070 A 
ATOM     12  C   LIG    1        2.036   2.697  -1.723  0.00  0.00    +0.020 A 
ATOM     13  C   LIG    1        3.430   2.729  -1.795  0.00  0.00    +0.030 A 
ATOM     14  C   LIG    1        4.210   1.743  -1.262  0.00  0.00    +0.000 A 
ATOM     15  C   LIG    1        2.185   0.650  -0.559  0.00  0.00    -0.070 A 
ATOM     16  C   LIG    1        3.589   0.662  -0.620  0.00  0.00    -0.050 A 
ENDBRANCH   3   5
BRANCH   2  17
ATOM     17  C   LIG    1        7.816  -1.696   0.134  0.00  0.00    +0.120 C 
BRANCH  17  18
ATOM     18  S   LIG    1        8.362  -3.418   0.240  0.00  0.00    +0.120 S 
BRANCH  18  19
ATOM     19  C   LIG    1       10.105  -3.180   0.342  0.00  0.00    +0.190 A 
ATOM     20  N   LIG    1       10.738  -2.028   0.329  0.00  0.00    -0.340 NA
ATOM     21  N   LIG    1       12.006  -2.210   0.424  0.00  0.00    -0.030 NA
ATOM     22  N   LIG    1       12.273  -3.470   0.493  0.00  0.00    -0.070 NA
ATOM     23  N   LIG    1       11.044  -4.150   0.442  0.00  0.00    -0.350 N 
BRANCH  23  24
ATOM     24  C   LIG    1       10.827  -5.598   0.489  0.00  0.00    +0.260 C 
ATOM     25  C   LIG    1       11.430  -6.182   1.783  0.00  0.00    +0.040 C 
ATOM     26  C   LIG    1       12.007  -7.553   1.348  0.00  0.00    +0.040 C 
ATOM     27  C   LIG    1       12.578  -7.252  -0.061  0.00  0.00    +0.030 C 
ATOM     28  C   LIG    1       11.556  -6.279  -0.683  0.00  0.00    +0.040 C 
ENDBRANCH  23  24
ENDBRANCH  18  19
ENDBRANCH  17  18
ENDBRANCH   2  17
TORSDOF 5
