REMARK  Name = ZINCvU0000000JDv.0
REMARK                            x       y       z     vdW  Elec       q    Type
REMARK                         _______ _______ _______ _____ _____    ______ ____
ROOT
ATOM      1  C   LIG    1       -0.016   1.309   0.009  0.00  0.00    +0.160 A 
ATOM      2  N   LIG    1        0.002  -0.004   0.002  0.00  0.00    -0.290 NA
ATOM      3  N   LIG    1        1.216  -0.425  -0.012  0.00  0.00    -0.280 NA
ATOM      4  C   LIG    1        2.041   0.583  -0.014  0.00  0.00    +0.210 A 
ATOM      5  N   LIG    1        1.287   1.726  -0.001  0.00  0.00    -0.410 N 
ENDROOT
BRANCH   5   6
ATOM      6  C   LIG    1        1.753   3.049   0.001  0.00  0.00    +0.100 A 
ATOM      7  C   LIG    1        2.457   3.540  -1.090  0.00  0.00    +0.060 A 
ATOM      8  C   LIG    1        2.910   4.845  -1.087  0.00  0.00    +0.020 A 
ATOM      9  C   LIG    1        2.673   5.659   0.005  0.00  0.00    +0.030 A 
ATOM     10  C   LIG    1        1.976   5.171   1.096  0.00  0.00    +0.020 A 
ATOM     11  C   LIG    1        1.516   3.868   1.096  0.00  0.00    +0.030 A 
ENDBRANCH   5   6
BRANCH   1  12
ATOM     12  S   LIG    1       -1.446   2.337   0.022  0.00  0.00    +0.030 S 
BRANCH  12  13
ATOM     13  C   LIG    1       -2.742   1.074   0.022  0.00  0.00    +0.170 C 
BRANCH  13  23
ATOM     14  F   LIG    1       -6.551   2.959  -2.333  0.00  0.00    -0.130 F 
ATOM     15  C   LIG    1       -5.963   2.666  -1.152  0.00  0.00    +0.110 A 
ATOM     16  C   LIG    1       -6.601   2.977   0.012  0.00  0.00    +0.020 A 
ATOM     17  C   LIG    1       -5.991   2.673   1.240  0.00  0.00    -0.080 A 
ATOM     18  C   LIG    1       -6.615   2.978   2.463  0.00  0.00    +0.080 A 
ATOM     19  C   LIG    1       -5.970   2.638   3.619  0.00  0.00    -0.030 A 
ATOM     20  C   LIG    1       -4.722   2.022   3.562  0.00  0.00    +0.300 A 
ATOM     21  N   LIG    1       -4.141   1.744   2.420  0.00  0.00    -0.460 NA
ATOM     22  C   LIG    1       -4.723   2.041   1.254  0.00  0.00    +0.130 A 
ATOM     23  C   LIG    1       -4.094   1.740   0.033  0.00  0.00    -0.030 A 
ATOM     24  C   LIG    1       -4.712   2.048  -1.139  0.00  0.00    +0.040 A 
ENDBRANCH  13  23
ENDBRANCH  12  13
ENDBRANCH   1  12
BRANCH   4  25
ATOM     25  C   LIG    1        3.546   0.506  -0.029  0.00  0.00    +0.310 C 
BRANCH  25  26
ATOM     26  N   LIG    1        4.022   0.488  -1.419  0.00  0.00    -0.530 NA
ATOM     27  C   LIG    1        3.597  -0.739  -2.104  0.00  0.00    +0.170 C 
ATOM     28  C   LIG    1        3.983  -0.659  -3.583  0.00  0.00    +0.020 C 
ATOM     29  C   LIG    1        5.500  -0.485  -3.701  0.00  0.00    +0.000 C 
ATOM     30  C   LIG    1        5.922   0.774  -2.938  0.00  0.00    +0.030 C 
ATOM     31  C   LIG    1        5.480   0.652  -1.478  0.00  0.00    +0.180 C 
ENDBRANCH  25  26
ENDBRANCH   4  25
TORSDOF 6
