REMARK  Name = ZINCqH0000007uvU.0
REMARK                            x       y       z     vdW  Elec       q    Type
REMARK                         _______ _______ _______ _____ _____    ______ ____
ROOT
ATOM      1  C   LIG    1        1.449   2.467  -0.175  0.00  0.00    +0.540 C 
ATOM      2  N   LIG    1        0.025   2.226  -0.434  0.00  0.00    -0.750 N 
ATOM      3  H   LIG    1       -0.603   2.964  -0.482  0.00  0.00    +0.410 HD
ATOM      4  C   LIG    1       -0.405   0.916  -0.617  0.00  0.00    +0.230 A 
ATOM      5  C   LIG    1       -1.491   0.606  -1.416  0.00  0.00    -0.050 A 
ATOM      6  C   LIG    1       -1.873  -0.714  -1.568  0.00  0.00    +0.080 A 
ATOM      7  C   LIG    1       -1.178  -1.727  -0.927  0.00  0.00    -0.040 A 
ATOM      8  C   LIG    1       -0.094  -1.434  -0.125  0.00  0.00    +0.110 A 
ATOM      9  C   LIG    1        0.300  -0.109   0.039  0.00  0.00    -0.200 A 
ATOM     10  C   LIG    1        1.444   0.261   0.892  0.00  0.00    +0.570 C 
ATOM     11  O   LIG    1        1.921  -0.548   1.665  0.00  0.00    -0.510 OA
ATOM     12  N   LIG    1        1.956   1.506   0.805  0.00  0.00    -0.620 N 
ENDROOT
BRANCH   1  16
ATOM     13  C   LIG    1        3.641   2.058  -3.820  0.00  0.00    +0.140 A 
ATOM     14  C   LIG    1        3.018   0.954  -3.257  0.00  0.00    -0.070 A 
ATOM     15  C   LIG    1        2.310   1.089  -2.078  0.00  0.00    +0.070 A 
ATOM     16  C   LIG    1        2.222   2.323  -1.460  0.00  0.00    -0.160 A 
ATOM     17  C   LIG    1        2.837   3.426  -2.023  0.00  0.00    +0.060 A 
ATOM     18  C   LIG    1        3.551   3.295  -3.198  0.00  0.00    -0.120 A 
ATOM     19  C   LIG    1        4.227   4.497  -3.808  0.00  0.00    +0.100 C 
BRANCH  13  21
ATOM     20  C   LIG    1        4.389   0.625  -5.563  0.00  0.00    +0.250 C 
ATOM     21  O   LIG    1        4.339   1.928  -4.979  0.00  0.00    -0.310 OA
ENDBRANCH  13  21
ENDBRANCH   1  16
BRANCH  12  22
ATOM     22  C   LIG    1        3.038   1.904   1.709  0.00  0.00    +0.310 C 
BRANCH  22  23
ATOM     23  C   LIG    1        4.385   1.699   1.013  0.00  0.00    +0.130 C 
ATOM     24  C   LIG    1        5.523   2.220   1.911  0.00  0.00    +0.010 C 
ATOM     25  C   LIG    1        6.431   0.985   2.129  0.00  0.00    +0.010 C 
ATOM     26  C   LIG    1        6.037   0.078   0.934  0.00  0.00    +0.200 C 
ATOM     27  O   LIG    1        4.617   0.296   0.800  0.00  0.00    -0.350 OA
ENDBRANCH  22  23
ENDBRANCH  12  22
TORSDOF 4
