REMARK  Name = ZINCqH0000034krM.0
REMARK                            x       y       z     vdW  Elec       q    Type
REMARK                         _______ _______ _______ _____ _____    ______ ____
ROOT
ATOM      1  C   LIG    1       -2.886   1.558   0.008  0.00  0.00    +0.520 C 
ATOM      2  O   LIG    1       -3.376   0.466  -0.198  0.00  0.00    -0.480 OA
ENDROOT
BRANCH   1  11
ATOM      3  C   LIG    1        0.002   1.809   2.417  0.00  0.00    +0.170 A 
ATOM      4  N   LIG    1       -0.577   2.231   3.513  0.00  0.00    -0.450 NA
ATOM      5  C   LIG    1       -1.892   2.459   3.572  0.00  0.00    +0.130 A 
ATOM      6  C   LIG    1       -2.495   2.913   4.759  0.00  0.00    +0.060 A 
ATOM      7  C   LIG    1       -3.837   3.139   4.791  0.00  0.00    +0.040 A 
ATOM      8  C   LIG    1       -4.628   2.926   3.665  0.00  0.00    +0.030 A 
ATOM      9  C   LIG    1       -4.079   2.486   2.498  0.00  0.00    +0.010 A 
ATOM     10  C   LIG    1       -2.701   2.244   2.429  0.00  0.00    -0.070 A 
ATOM     11  C   LIG    1       -2.090   1.792   1.231  0.00  0.00    -0.050 A 
ATOM     12  C   LIG    1       -0.718   1.572   1.248  0.00  0.00    -0.080 A 
ATOM     13  C   LIG    1       -0.013   1.086   0.008  0.00  0.00    +0.120 C 
BRANCH   3  15
ATOM     14  C   LIG    1        2.212   2.857   2.010  0.00  0.00    +0.040 C 
ATOM     15  C   LIG    1        1.490   1.572   2.420  0.00  0.00    +0.100 C 
ENDBRANCH   3  15
ENDBRANCH   1  11
BRANCH   1  16
ATOM     16  O   LIG    1       -3.067   2.555  -0.879  0.00  0.00    -0.320 OA
BRANCH  16  17
ATOM     17  C   LIG    1       -3.860   2.254  -2.057  0.00  0.00    +0.260 C 
BRANCH  17  18
ATOM     18  C   LIG    1       -3.954   3.481  -2.927  0.00  0.00    +0.520 C 
ATOM     19  N   LIG    1       -4.646   3.437  -4.082  0.00  0.00    -0.720 N 
ATOM     20  H   LIG    1       -5.084   2.615  -4.354  0.00  0.00    +0.400 HD
ATOM     21  O   LIG    1       -3.407   4.508  -2.587  0.00  0.00    -0.510 OA
BRANCH  19  22
ATOM     22  C   LIG    1       -4.738   4.629  -4.928  0.00  0.00    +0.240 C 
ATOM     23  C   LIG    1       -5.890   5.512  -4.442  0.00  0.00    +0.000 C 
ATOM     24  C   LIG    1       -5.985   6.758  -5.325  0.00  0.00    +0.020 C 
ATOM     25  C   LIG    1       -6.240   6.337  -6.774  0.00  0.00    +0.010 C 
ATOM     26  C   LIG    1       -5.089   5.455  -7.260  0.00  0.00    +0.020 C 
ATOM     27  C   LIG    1       -4.993   4.209  -6.377  0.00  0.00    +0.010 C 
ENDBRANCH  19  22
ENDBRANCH  17  18
ENDBRANCH  16  17
ENDBRANCH   1  16
TORSDOF 6
