REMARK  Name = ZINCvU0000000A6h.0
REMARK                            x       y       z     vdW  Elec       q    Type
REMARK                         _______ _______ _______ _____ _____    ______ ____
ROOT
ATOM      1  C   LIG    1       -2.486  -4.059  -0.260  0.00  0.00    +0.290 C 
ATOM      2  C   LIG    1       -2.378  -2.919   0.511  0.00  0.00    -0.170 C 
ENDROOT
BRANCH   1   6
ATOM      3  C   LIG    1       -6.217  -5.898  -0.763  0.00  0.00    +0.210 A 
ATOM      4  C   LIG    1       -6.136  -4.523  -0.558  0.00  0.00    -0.110 A 
ATOM      5  C   LIG    1       -4.924  -3.920  -0.388  0.00  0.00    +0.140 A 
ATOM      6  C   LIG    1       -3.748  -4.684  -0.431  0.00  0.00    -0.190 A 
ATOM      7  C   LIG    1       -3.828  -6.075  -0.639  0.00  0.00    +0.220 A 
ATOM      8  C   LIG    1       -5.065  -6.671  -0.803  0.00  0.00    -0.110 A 
BRANCH   3   9
ATOM      9  O   LIG    1       -7.429  -6.486  -0.926  0.00  0.00    -0.310 OA
BRANCH   9  10
ATOM     10  C   LIG    1       -8.576  -5.634  -0.874  0.00  0.00    +0.190 C 
BRANCH  10  12
ATOM     11  C   LIG    1      -11.069  -5.557  -1.020  0.00  0.00    +0.040 C 
ATOM     12  C   LIG    1       -9.841  -6.469  -1.076  0.00  0.00    +0.040 C 
ENDBRANCH  10  12
ENDBRANCH   9  10
ENDBRANCH   3   9
BRANCH   7  13
ATOM     13  O   LIG    1       -2.698  -6.825  -0.676  0.00  0.00    -0.300 OA
BRANCH  13  14
ATOM     14  C   LIG    1       -2.858  -8.229  -0.891  0.00  0.00    +0.190 C 
BRANCH  14  15
ATOM     15  C   LIG    1       -1.485  -8.903  -0.902  0.00  0.00    +0.040 C 
ATOM     16  C   LIG    1       -1.657 -10.406  -1.132  0.00  0.00    +0.040 C 
ENDBRANCH  14  15
ENDBRANCH  13  14
ENDBRANCH   7  13
ENDBRANCH   1   6
BRANCH   2  17
ATOM     17  C   LIG    1       -1.116  -2.167   0.538  0.00  0.00    +0.580 C 
ATOM     18  N   LIG    1       -1.011  -1.054   1.292  0.00  0.00    -0.660 N 
ATOM     19  H   LIG    1       -1.742  -0.791   1.872  0.00  0.00    +0.410 HD
ATOM     20  O   LIG    1       -0.166  -2.548  -0.119  0.00  0.00    -0.500 OA
BRANCH  18  21
ATOM     21  C   LIG    1        0.148  -0.281   1.236  0.00  0.00    +0.160 A 
ATOM     22  C   LIG    1        0.954  -0.315   0.117  0.00  0.00    +0.030 A 
ATOM     23  C   LIG    1        2.112   0.454   0.055  0.00  0.00    +0.070 A 
ATOM     24  C   LIG    1        2.482   1.256   1.091  0.00  0.00    +0.030 A 
ATOM     25  C   LIG    1        1.690   1.320   2.250  0.00  0.00    +0.140 A 
ATOM     26  N   LIG    1        2.035   2.102   3.278  0.00  0.00    -0.470 NA
ATOM     27  C   LIG    1        1.301   2.166   4.362  0.00  0.00    +0.290 A 
ATOM     28  C   LIG    1        0.129   1.427   4.498  0.00  0.00    -0.030 A 
ATOM     29  C   LIG    1       -0.284   0.612   3.481  0.00  0.00    +0.070 A 
ATOM     30  C   LIG    1        0.508   0.541   2.324  0.00  0.00    -0.120 A 
ENDBRANCH  18  21
ENDBRANCH   2  17
BRANCH   2  31
ATOM     31  C   LIG    1       -3.497  -2.470   1.285  0.00  0.00    +0.250 C 
ATOM     32  N   LIG    1       -4.384  -2.114   1.899  0.00  0.00    -0.410 NA
ENDBRANCH   2  31
TORSDOF 10
