REMARK  Name = ZINCpk000000pUOU.0
REMARK                            x       y       z     vdW  Elec       q    Type
REMARK                         _______ _______ _______ _____ _____    ______ ____
ROOT
ATOM      1  C   LIG    1        1.749   3.200   0.002  0.00  0.00    +0.210 C 
ATOM      2  N   LIG    1        3.057   3.339   0.664  0.00  0.00    -0.710 N 
ATOM      3  H   LIG    1        3.265   3.124   1.587  0.00  0.00    +0.440 HD
ATOM      4  C   LIG    1        3.907   3.825  -0.259  0.00  0.00    +0.700 C 
ATOM      5  N   LIG    1        3.316   4.020  -1.444  0.00  0.00    -0.580 N 
ATOM      6  O   LIG    1        5.079   4.060  -0.041  0.00  0.00    -0.530 OA
ATOM      7  C   LIG    1        2.013   3.679  -1.412  0.00  0.00    +0.540 C 
ATOM      8  O   LIG    1        1.217   3.742  -2.325  0.00  0.00    -0.440 OA
ENDROOT
BRANCH   1   9
ATOM      9  C   LIG    1        1.307   1.759  -0.001  0.00  0.00    -0.260 A 
ATOM     10  C   LIG    1        2.119   0.677  -0.015  0.00  0.00    +0.260 A 
ATOM     11  N   LIG    1        1.339  -0.424  -0.013  0.00  0.00    -0.370 N 
ATOM     12  N   LIG    1        0.002  -0.004   0.002  0.00  0.00    -0.290 NA
ATOM     13  C   LIG    1        1.806  -1.812  -0.025  0.00  0.00    +0.370 C 
ATOM     14  C   LIG    1       -0.016   1.304   0.009  0.00  0.00    +0.270 A 
ENDBRANCH   1   9
BRANCH   1  16
ATOM     15  C   LIG    1        1.175   5.536   0.675  0.00  0.00    +0.020 C 
ATOM     16  C   LIG    1        0.702   4.081   0.686  0.00  0.00    +0.070 C 
ENDBRANCH   1  16
BRANCH   5  17
ATOM     17  C   LIG    1        4.003   4.540  -2.629  0.00  0.00    +0.500 C 
BRANCH  17  18
ATOM     18  C   LIG    1        4.575   3.392  -3.422  0.00  0.00    +0.150 A 
ATOM     19  N   LIG    1        3.973   2.726  -4.377  0.00  0.00    -0.450 NA
ATOM     20  C   LIG    1        4.860   1.804  -4.790  0.00  0.00    +0.180 A 
ATOM     21  N   LIG    1        5.934   1.948  -4.073  0.00  0.00    -0.370 NA
ATOM     22  O   LIG    1        5.790   2.856  -3.280  0.00  0.00    +0.090 OA
BRANCH  20  23
ATOM     23  C   LIG    1        4.647   0.786  -5.881  0.00  0.00    +0.020 C 
ATOM     24  C   LIG    1        4.363   1.505  -7.201  0.00  0.00    +0.060 C 
ATOM     25  C   LIG    1        3.457  -0.106  -5.520  0.00  0.00    +0.050 C 
ATOM     26  C   LIG    1        5.903  -0.074  -6.029  0.00  0.00    +0.050 C 
ENDBRANCH  20  23
ENDBRANCH  17  18
ENDBRANCH   5  17
TORSDOF 5
