REMARK  Name = ZINCrD00000711hu.0
REMARK                            x       y       z     vdW  Elec       q    Type
REMARK                         _______ _______ _______ _____ _____    ______ ____
ROOT
ATOM      1  C   LIG    1        4.636   0.671  -0.220  0.00  0.00    +0.150 A 
ATOM      2  N   LIG    1        3.998  -0.394   0.215  0.00  0.00    -0.290 NA
ATOM      3  N   LIG    1        2.742  -0.143   0.321  0.00  0.00    -0.250 NA
ATOM      4  C   LIG    1        2.499   1.093  -0.049  0.00  0.00    +0.220 A 
ATOM      5  N   LIG    1        3.706   1.653  -0.404  0.00  0.00    -0.450 N 
ENDROOT
BRANCH   4   6
ATOM      6  C   LIG    1        1.181   1.759  -0.075  0.00  0.00    +0.040 A 
ATOM      7  C   LIG    1        0.020   1.046  -0.396  0.00  0.00    +0.020 A 
ATOM      8  C   LIG    1       -1.189   1.709  -0.412  0.00  0.00    +0.280 A 
ATOM      9  N   LIG    1       -1.262   2.994  -0.120  0.00  0.00    -0.470 NA
ATOM     10  C   LIG    1       -0.192   3.703   0.188  0.00  0.00    +0.270 A 
ATOM     11  C   LIG    1        1.058   3.122   0.223  0.00  0.00    -0.030 A 
ENDBRANCH   4   6
BRANCH   1  12
ATOM     12  S   LIG    1        6.368   0.804  -0.513  0.00  0.00    +0.090 S 
BRANCH  12  13
ATOM     13  C   LIG    1        6.895  -0.864  -0.049  0.00  0.00    +0.110 C 
BRANCH  13  16
ATOM     14  N   LIG    1        9.005  -2.149   0.062  0.00  0.00    -0.720 N 
ATOM     15  H   LIG    1        8.491  -2.907   0.381  0.00  0.00    +0.400 HD
ATOM     16  C   LIG    1        8.386  -0.987  -0.225  0.00  0.00    +0.540 C 
ATOM     17  O   LIG    1        9.030  -0.040  -0.624  0.00  0.00    -0.520 OA
BRANCH  14  19
ATOM     18  C   LIG    1       11.160  -1.245   0.784  0.00  0.00    +0.040 C 
ATOM     19  C   LIG    1       10.456  -2.269  -0.108  0.00  0.00    +0.170 C 
ATOM     20  C   LIG    1       10.820  -2.007  -1.571  0.00  0.00    +0.040 C 
ATOM     21  C   LIG    1       10.901  -3.679   0.283  0.00  0.00    +0.040 C 
ENDBRANCH  14  19
ENDBRANCH  13  16
ENDBRANCH  12  13
ENDBRANCH   1  12
BRANCH   5  22
ATOM     22  C   LIG    1        3.942   3.018  -0.879  0.00  0.00    +0.360 C 
BRANCH  22  23
ATOM     23  C   LIG    1        3.669   3.088  -2.360  0.00  0.00    -0.130 A 
ATOM     24  C   LIG    1        4.657   2.742  -3.262  0.00  0.00    +0.040 A 
ATOM     25  C   LIG    1        4.405   2.802  -4.620  0.00  0.00    +0.010 A 
ATOM     26  C   LIG    1        3.168   3.219  -5.075  0.00  0.00    +0.030 A 
ATOM     27  C   LIG    1        2.182   3.571  -4.173  0.00  0.00    +0.010 A 
ATOM     28  C   LIG    1        2.432   3.506  -2.815  0.00  0.00    +0.020 A 
ENDBRANCH  22  23
ENDBRANCH   5  22
TORSDOF 7
