REMARK  Name = ZINCrH00000No4Mg.1
REMARK                            x       y       z     vdW  Elec       q    Type
REMARK                         _______ _______ _______ _____ _____    ______ ____
ROOT
ATOM      1  C   LIG    1        2.840  -8.163  -4.076  0.00  0.00    +0.090 C 
ATOM      2  C   LIG    1        4.010  -7.253  -4.347  0.00  0.00    +0.130 C 
ATOM      3  N   LIG    1        4.066  -6.083  -3.786  0.00  0.00    -0.200 NA
ENDROOT
BRANCH   2   4
ATOM      4  C   LIG    1        5.090  -7.691  -5.247  0.00  0.00    -0.080 A 
ATOM      5  C   LIG    1        6.167  -6.845  -5.498  0.00  0.00    +0.170 A 
ATOM      6  C   LIG    1        7.197  -7.276  -6.356  0.00  0.00    -0.080 A 
ATOM      7  C   LIG    1        8.303  -6.455  -6.632  0.00  0.00    +0.040 A 
ATOM      8  C   LIG    1        9.280  -6.900  -7.470  0.00  0.00    +0.010 A 
ATOM      9  C   LIG    1        9.199  -8.159  -8.060  0.00  0.00    +0.030 A 
ATOM     10  C   LIG    1        8.141  -8.981  -7.816  0.00  0.00    +0.020 A 
ATOM     11  C   LIG    1        7.114  -8.557  -6.957  0.00  0.00    -0.030 A 
ATOM     12  C   LIG    1        6.008  -9.385  -6.685  0.00  0.00    +0.010 A 
ATOM     13  C   LIG    1        5.025  -8.959  -5.852  0.00  0.00    +0.050 A 
BRANCH   5  14
ATOM     14  O   LIG    1        6.225  -5.619  -4.919  0.00  0.00    -0.460 OA
ATOM     15  H   LIG    1        6.675  -5.610  -4.063  0.00  0.00    +0.390 HD
ENDBRANCH   5  14
ENDBRANCH   2   4
BRANCH   3  16
ATOM     16  N   LIG    1        3.038  -5.667  -2.929  0.00  0.00    -0.590 N 
ATOM     17  H   LIG    1        2.285  -6.253  -2.755  0.00  0.00    +0.380 HD
ATOM     18  C   LIG    1        3.096  -4.453  -2.348  0.00  0.00    +0.530 C 
ATOM     19  O   LIG    1        4.039  -3.720  -2.565  0.00  0.00    -0.480 OA
BRANCH  18  20
ATOM     20  C   LIG    1        1.991  -4.005  -1.426  0.00  0.00    +0.230 C 
BRANCH  20  21
ATOM     21  N   LIG    1        2.287  -2.656  -0.925  0.00  0.00    -0.660 NA
ATOM     22  H   LIG    1        3.188  -2.629  -0.472  0.00  0.00    +0.350 HD
BRANCH  21  23
ATOM     23  C   LIG    1        1.229  -2.186  -0.022  0.00  0.00    +0.220 C 
ATOM     24  C   LIG    1        1.500  -2.700   1.393  0.00  0.00    +0.010 C 
BRANCH  23  25
ATOM     25  C   LIG    1        1.208  -0.679  -0.014  0.00  0.00    -0.070 A 
ATOM     26  C   LIG    1        0.002  -0.004   0.002  0.00  0.00    +0.000 A 
ATOM     27  C   LIG    1       -0.017   1.378   0.010  0.00  0.00    +0.000 A 
ATOM     28  C   LIG    1        1.171   2.086   0.002  0.00  0.00    +0.000 A 
ATOM     29  C   LIG    1        2.377   1.411  -0.014  0.00  0.00    +0.000 A 
ATOM     30  C   LIG    1        2.396   0.029  -0.021  0.00  0.00    +0.020 A 
ENDBRANCH  23  25
ENDBRANCH  21  23
ENDBRANCH  20  21
ENDBRANCH  18  20
ENDBRANCH   3  16
TORSDOF 7
