REMARK  Name = ZINCvU0000000EC9.0
REMARK                            x       y       z     vdW  Elec       q    Type
REMARK                         _______ _______ _______ _____ _____    ______ ____
ROOT
ATOM      1  S   LIG    1        0.439   0.205   3.103  0.00  0.00    +0.090 S 
ENDROOT
BRANCH   1   2
ATOM      2  C   LIG    1       -0.584   1.519   2.529  0.00  0.00    +0.140 A 
ATOM      3  N   LIG    1       -1.079   2.496   3.256  0.00  0.00    -0.290 NA
ATOM      4  N   LIG    1       -1.785   3.279   2.521  0.00  0.00    -0.270 NA
ATOM      5  C   LIG    1       -1.780   2.853   1.279  0.00  0.00    +0.230 A 
ATOM      6  N   LIG    1       -1.008   1.715   1.245  0.00  0.00    -0.450 N 
BRANCH   5   7
ATOM      7  C   LIG    1       -2.474   3.479   0.133  0.00  0.00    -0.060 A 
ATOM      8  C   LIG    1       -3.680   4.154   0.329  0.00  0.00    +0.110 A 
ATOM      9  C   LIG    1       -4.322   4.740  -0.741  0.00  0.00    -0.070 A 
ATOM     10  C   LIG    1       -3.775   4.650  -2.014  0.00  0.00    +0.150 A 
ATOM     11  C   LIG    1       -2.578   3.976  -2.214  0.00  0.00    -0.010 A 
ATOM     12  C   LIG    1       -1.927   3.391  -1.148  0.00  0.00    +0.060 A 
BRANCH  10  13
ATOM     13  O   LIG    1       -4.413   5.224  -3.068  0.00  0.00    -0.310 OA
ATOM     14  C   LIG    1       -5.640   5.902  -2.792  0.00  0.00    +0.240 C 
ENDBRANCH  10  13
ENDBRANCH   5   7
BRANCH   6  15
ATOM     15  C   LIG    1       -0.708   0.883   0.077  0.00  0.00    +0.240 C 
ATOM     16  C   LIG    1        0.789   0.956  -0.230  0.00  0.00    +0.070 C 
ATOM     17  C   LIG    1       -1.099  -0.567   0.370  0.00  0.00    +0.070 C 
ENDBRANCH   6  15
ENDBRANCH   1   2
BRANCH   1  18
ATOM     18  C   LIG    1        0.546   0.633   4.858  0.00  0.00    +0.100 C 
BRANCH  18  21
ATOM     19  N   LIG    1        1.620  -0.268   6.896  0.00  0.00    -0.720 N 
ATOM     20  H   LIG    1        1.230   0.471   7.390  0.00  0.00    +0.400 HD
ATOM     21  C   LIG    1        1.399  -0.384   5.572  0.00  0.00    +0.540 C 
ATOM     22  O   LIG    1        1.886  -1.308   4.955  0.00  0.00    -0.520 OA
BRANCH  19  23
ATOM     23  C   LIG    1        2.449  -1.256   7.591  0.00  0.00    +0.290 C 
BRANCH  23  24
ATOM     24  C   LIG    1        3.045  -0.633   8.827  0.00  0.00    -0.100 A 
ATOM     25  C   LIG    1        2.286   0.222   9.604  0.00  0.00    +0.010 A 
ATOM     26  C   LIG    1        2.831   0.789  10.741  0.00  0.00    +0.000 A 
ATOM     27  C   LIG    1        4.138   0.510  11.094  0.00  0.00    -0.080 A 
ATOM     28  C   LIG    1        4.898  -0.340  10.314  0.00  0.00    +0.000 A 
ATOM     29  C   LIG    1        4.734   1.134  12.330  0.00  0.00    +0.090 C 
ATOM     30  C   LIG    1        4.352  -0.912   9.180  0.00  0.00    +0.030 A 
ENDBRANCH  23  24
BRANCH  23  32
ATOM     31  C   LIG    1        1.083  -3.162   6.729  0.00  0.00    +0.020 C 
ATOM     32  C   LIG    1        1.586  -2.455   7.989  0.00  0.00    +0.010 C 
ENDBRANCH  23  32
ENDBRANCH  19  23
ENDBRANCH  18  21
ENDBRANCH   1  18
TORSDOF 9
