REMARK  Name = ZINCvU0000000CQV.0
REMARK                            x       y       z     vdW  Elec       q    Type
REMARK                         _______ _______ _______ _____ _____    ______ ____
ROOT
ATOM      1  C   LIG    1        7.581  -6.383  -0.094  0.00  0.00    +0.110 A 
ATOM      2  C   LIG    1        7.891  -5.251  -0.836  0.00  0.00    +0.030 A 
ATOM      3  C   LIG    1        7.044  -4.160  -0.817  0.00  0.00    +0.010 A 
ATOM      4  C   LIG    1        5.885  -4.195  -0.057  0.00  0.00    +0.120 A 
ATOM      5  C   LIG    1        5.577  -5.324   0.689  0.00  0.00    -0.060 A 
ATOM      6  C   LIG    1        6.420  -6.417   0.667  0.00  0.00    +0.060 A 
ENDROOT
BRANCH   1   8
ATOM      7  C   LIG    1        7.936  -8.735  -0.012  0.00  0.00    +0.560 C 
ATOM      8  N   LIG    1        8.440  -7.489  -0.112  0.00  0.00    -0.670 N 
ATOM      9  H   LIG    1        9.397  -7.359  -0.197  0.00  0.00    +0.410 HD
ATOM     10  O   LIG    1        6.732  -8.905  -0.002  0.00  0.00    -0.520 OA
BRANCH   7  14
ATOM     11  C   LIG    1       10.553 -12.069   0.270  0.00  0.00    -0.040 A 
ATOM     12  C   LIG    1        9.183 -12.265   0.281  0.00  0.00    +0.010 A 
ATOM     13  C   LIG    1        8.328 -11.187   0.190  0.00  0.00    +0.090 A 
ATOM     14  C   LIG    1        8.846  -9.895   0.086  0.00  0.00    -0.140 A 
ATOM     15  C   LIG    1       10.229  -9.704   0.070  0.00  0.00    +0.040 A 
ATOM     16  C   LIG    1       11.073 -10.791   0.167  0.00  0.00    +0.010 A 
BRANCH  11  17
ATOM     17  C   LIG    1       11.481 -13.251   0.369  0.00  0.00    +0.080 C 
BRANCH  17  19
ATOM     18  C   LIG    1       12.472 -12.660  -1.847  0.00  0.00    +0.020 C 
ATOM     19  C   LIG    1       11.800 -13.769  -1.035  0.00  0.00    -0.060 C 
ATOM     20  C   LIG    1       10.505 -14.195  -1.728  0.00  0.00    +0.030 C 
ATOM     21  C   LIG    1       12.743 -14.970  -0.934  0.00  0.00    +0.040 C 
ENDBRANCH  17  19
ENDBRANCH  11  17
ENDBRANCH   7  14
ENDBRANCH   1   8
BRANCH   4  22
ATOM     22  O   LIG    1        5.051  -3.121  -0.038  0.00  0.00    -0.310 OA
BRANCH  22  23
ATOM     23  C   LIG    1        3.875  -3.226   0.767  0.00  0.00    +0.310 C 
BRANCH  23  24
ATOM     24  C   LIG    1        3.081  -1.949   0.664  0.00  0.00    +0.050 A 
ATOM     25  C   LIG    1        3.419  -0.868  -0.072  0.00  0.00    +0.120 A 
ATOM     26  N   LIG    1        2.437   0.068   0.110  0.00  0.00    -0.360 N 
ATOM     27  C   LIG    1        2.260   1.329  -0.381  0.00  0.00    +0.230 A 
ATOM     28  C   LIG    1        1.177   2.056  -0.035  0.00  0.00    +0.010 A 
ATOM     29  C   LIG    1        0.215   1.523   0.838  0.00  0.00    +0.050 A 
ATOM     30  C   LIG    1        0.379   0.267   1.335  0.00  0.00    +0.070 A 
ATOM     31  C   LIG    1        1.515  -0.480   0.964  0.00  0.00    +0.230 A 
ATOM     32  N   LIG    1        1.926  -1.698   1.285  0.00  0.00    -0.480 NA
ENDBRANCH  23  24
ENDBRANCH  22  23
ENDBRANCH   4  22
TORSDOF 7
