REMARK  Name = ZINCqH0000002wEG.0
REMARK                            x       y       z     vdW  Elec       q    Type
REMARK                         _______ _______ _______ _____ _____    ______ ____
ROOT
ATOM      1  C   LIG    1        1.419  -0.406  -0.014  0.00  0.00    +0.170 C 
ATOM      2  N   LIG    1        0.002  -0.004   0.002  0.00  0.00    -0.710 N 
ATOM      3  H   LIG    1       -0.768  -0.594   0.006  0.00  0.00    +0.440 HD
ATOM      4  C   LIG    1       -0.016   1.341   0.009  0.00  0.00    +0.710 C 
ATOM      5  N   LIG    1        1.213   1.869   0.001  0.00  0.00    -0.570 N 
ATOM      6  O   LIG    1       -1.036   2.003   0.018  0.00  0.00    -0.530 OA
ATOM      7  C   LIG    1        2.164   0.914  -0.014  0.00  0.00    +0.540 C 
ATOM      8  O   LIG    1        3.365   1.077  -0.025  0.00  0.00    -0.450 OA
ENDROOT
BRANCH   1   9
ATOM      9  C   LIG    1        1.757  -1.206   1.218  0.00  0.00    -0.110 A 
ATOM     10  C   LIG    1        2.750  -2.166   1.167  0.00  0.00    +0.080 A 
ATOM     11  C   LIG    1        3.064  -2.897   2.298  0.00  0.00    -0.010 A 
ATOM     12  C   LIG    1        2.377  -2.673   3.479  0.00  0.00    +0.110 A 
ATOM     13  C   LIG    1        1.379  -1.715   3.527  0.00  0.00    -0.010 A 
ATOM     14  F   LIG    1        2.680  -3.390   4.583  0.00  0.00    -0.130 F 
ATOM     15  C   LIG    1        1.070  -0.982   2.397  0.00  0.00    +0.070 A 
ENDBRANCH   1   9
BRANCH   1  16
ATOM     16  C   LIG    1        1.737  -1.208  -1.278  0.00  0.00    +0.070 C 
BRANCH  16  17
ATOM     17  C   LIG    1        1.435  -0.355  -2.512  0.00  0.00    +0.000 C 
BRANCH  17  19
ATOM     18  C   LIG    1        1.452  -0.304  -5.010  0.00  0.00    +0.010 C 
ATOM     19  C   LIG    1        1.754  -1.156  -3.776  0.00  0.00    +0.020 C 
ENDBRANCH  17  19
ENDBRANCH  16  17
ENDBRANCH   1  16
BRANCH   5  20
ATOM     20  C   LIG    1        1.491   3.307   0.005  0.00  0.00    +0.330 C 
BRANCH  20  21
ATOM     21  C   LIG    1        1.600   3.794   1.427  0.00  0.00    +0.410 C 
ATOM     22  O   LIG    1        1.459   3.015   2.348  0.00  0.00    -0.440 OA
BRANCH  21  23
ATOM     23  C   LIG    1        1.866   5.156   1.689  0.00  0.00    -0.310 A 
ATOM     24  C   LIG    1        1.983   5.719   2.934  0.00  0.00    +0.120 A 
ATOM     25  C   LIG    1        2.248   7.065   2.897  0.00  0.00    -0.010 A 
ATOM     26  C   LIG    1        2.337   7.594   1.669  0.00  0.00    -0.040 A 
ATOM     27  S   LIG    1        2.094   6.404   0.471  0.00  0.00    +0.230 S 
ENDBRANCH  21  23
ENDBRANCH  20  21
ENDBRANCH   5  20
TORSDOF 7
