REMARK  Name = ZINCvU00000005De.0
REMARK                            x       y       z     vdW  Elec       q    Type
REMARK                         _______ _______ _______ _____ _____    ______ ____
ROOT
ATOM      1  C   LIG    1        3.769  13.102  -0.681  0.00  0.00    -0.000 A 
ATOM      2  C   LIG    1        5.065  12.585  -0.711  0.00  0.00    +0.020 A 
ATOM      3  C   LIG    1        5.266  11.226  -0.624  0.00  0.00    +0.090 A 
ATOM      4  C   LIG    1        4.172  10.364  -0.507  0.00  0.00    -0.130 A 
ATOM      5  C   LIG    1        2.874  10.883  -0.484  0.00  0.00    +0.100 A 
ATOM      6  C   LIG    1        2.676  12.242  -0.564  0.00  0.00    +0.020 A 
ENDROOT
BRANCH   1  10
ATOM      7  C   LIG    1        3.151  17.301  -0.948  0.00  0.00    +0.090 A 
ATOM      8  C   LIG    1        2.062  16.446  -0.831  0.00  0.00    +0.010 A 
ATOM      9  C   LIG    1        2.259  15.085  -0.744  0.00  0.00    +0.050 A 
ATOM     10  C   LIG    1        3.553  14.566  -0.774  0.00  0.00    -0.050 A 
ATOM     11  C   LIG    1        4.645  15.427  -0.885  0.00  0.00    +0.050 A 
ATOM     12  C   LIG    1        4.440  16.787  -0.977  0.00  0.00    +0.020 A 
BRANCH   7  13
ATOM     13  O   LIG    1        2.953  18.642  -1.033  0.00  0.00    -0.300 OA
BRANCH  13  15
ATOM     14  C   LIG    1        2.494  20.784   0.107  0.00  0.00    +0.170 C 
ATOM     15  C   LIG    1        2.619  19.282   0.099  0.00  0.00    +0.460 C 
ATOM     16  O   LIG    1        2.419  18.654   1.112  0.00  0.00    -0.490 OA
ENDBRANCH  13  15
ENDBRANCH   7  13
ENDBRANCH   1  10
BRANCH   4  17
ATOM     17  C   LIG    1        4.387   8.907  -0.415  0.00  0.00    +0.510 C 
ATOM     18  O   LIG    1        5.515   8.457  -0.440  0.00  0.00    -0.500 OA
BRANCH  17  19
ATOM     19  O   LIG    1        3.332   8.077  -0.302  0.00  0.00    -0.330 OA
BRANCH  19  20
ATOM     20  C   LIG    1        3.618   6.656  -0.215  0.00  0.00    +0.270 C 
BRANCH  20  21
ATOM     21  C   LIG    1        2.326   5.890  -0.095  0.00  0.00    +0.520 C 
ATOM     22  N   LIG    1        2.345   4.545  -0.001  0.00  0.00    -0.660 N 
ATOM     23  H   LIG    1        3.192   4.077   0.071  0.00  0.00    +0.420 HD
ATOM     24  O   LIG    1        1.268   6.483  -0.083  0.00  0.00    -0.490 OA
BRANCH  22  25
ATOM     25  C   LIG    1        1.145   3.826  -0.005  0.00  0.00    +0.160 A 
ATOM     26  C   LIG    1        0.013   4.366  -0.602  0.00  0.00    +0.030 A 
ATOM     27  C   LIG    1       -1.170   3.653  -0.605  0.00  0.00    +0.050 A 
ATOM     28  C   LIG    1       -1.228   2.401  -0.021  0.00  0.00    +0.020 A 
ATOM     29  C   LIG    1       -0.102   1.863   0.578  0.00  0.00    -0.020 A 
ATOM     30 CL   LIG    1       -0.180   0.293   1.316  0.00  0.00    -0.060 Cl
ATOM     31  C   LIG    1        1.085   2.571   0.585  0.00  0.00    -0.110 A 
ATOM     32  C   LIG    1        2.311   1.982   1.234  0.00  0.00    +0.110 C 
ENDBRANCH  22  25
ENDBRANCH  20  21
ENDBRANCH  19  20
ENDBRANCH  17  19
ENDBRANCH   4  17
TORSDOF 8
