REMARK  Name = ZINCrD000000gRUP.0
REMARK                            x       y       z     vdW  Elec       q    Type
REMARK                         _______ _______ _______ _____ _____    ______ ____
ROOT
ATOM      1  S   LIG    1       -0.888   1.685  -1.458  0.00  0.00    +0.130 S 
ENDROOT
BRANCH   1   2
ATOM      2  C   LIG    1        0.122   0.990  -2.724  0.00  0.00    +0.170 A 
ATOM      3  N   LIG    1        1.196   0.252  -2.547  0.00  0.00    -0.290 NA
ATOM      4  N   LIG    1        1.689  -0.088  -3.683  0.00  0.00    -0.240 NA
ATOM      5  C   LIG    1        0.962   0.411  -4.655  0.00  0.00    +0.190 A 
ATOM      6  N   LIG    1       -0.068   1.112  -4.070  0.00  0.00    -0.300 N 
BRANCH   5   7
ATOM      7  C   LIG    1        1.200   0.246  -6.105  0.00  0.00    -0.000 A 
ATOM      8  C   LIG    1        2.079  -0.736  -6.564  0.00  0.00    +0.080 A 
ATOM      9  C   LIG    1        2.297  -0.886  -7.918  0.00  0.00    +0.050 A 
ATOM     10  C   LIG    1        1.647  -0.064  -8.821  0.00  0.00    +0.050 A 
ATOM     11  C   LIG    1        0.774   0.913  -8.373  0.00  0.00    -0.030 A 
ATOM     12 CL   LIG    1       -0.037   1.939  -9.515  0.00  0.00    -0.050 Cl
ATOM     13  C   LIG    1        0.543   1.069  -7.021  0.00  0.00    +0.010 A 
ENDBRANCH   5   7
BRANCH   6  14
ATOM     14  N   LIG    1       -1.069   1.791  -4.705  0.00  0.00    -0.590 N 
ATOM     15  H   LIG    1       -1.333   1.329  -5.562  0.00  0.00    +0.380 HD
ATOM     16  H   LIG    1       -0.803   2.749  -4.877  0.00  0.00    +0.370 HD
ENDBRANCH   6  14
ENDBRANCH   1   2
BRANCH   1  17
ATOM     17  C   LIG    1       -0.013   1.086   0.008  0.00  0.00    +0.120 C 
BRANCH  17  20
ATOM     18  N   LIG    1       -0.242   1.246   2.466  0.00  0.00    -0.620 N 
ATOM     19  H   LIG    1        0.555   0.699   2.544  0.00  0.00    +0.440 HD
ATOM     20  C   LIG    1       -0.718   1.572   1.248  0.00  0.00    +0.530 C 
ATOM     21  O   LIG    1       -1.714   2.256   1.150  0.00  0.00    -0.480 OA
BRANCH  18  25
ATOM     22  C   LIG    1       -1.514   2.124   5.657  0.00  0.00    +0.050 A 
ATOM     23  N   LIG    1       -2.324   2.680   4.801  0.00  0.00    -0.360 NA
ATOM     24  O   LIG    1       -1.993   2.458   3.660  0.00  0.00    +0.110 OA
ATOM     25  C   LIG    1       -0.891   1.693   3.607  0.00  0.00    +0.210 A 
ATOM     26  C   LIG    1       -0.533   1.449   4.902  0.00  0.00    -0.080 A 
BRANCH  22  28
ATOM     27  C   LIG    1       -0.542   3.150   7.695  0.00  0.00    +0.050 C 
ATOM     28  C   LIG    1       -1.606   2.190   7.160  0.00  0.00    +0.010 C 
ATOM     29  C   LIG    1       -1.377   0.796   7.747  0.00  0.00    +0.050 C 
ATOM     30  C   LIG    1       -2.994   2.692   7.564  0.00  0.00    +0.040 C 
ENDBRANCH  22  28
ENDBRANCH  18  25
ENDBRANCH  17  20
ENDBRANCH   1  17
TORSDOF 7
