REMARK  Name = ZINCtV00000L6jWa.0
REMARK                            x       y       z     vdW  Elec       q    Type
REMARK                         _______ _______ _______ _____ _____    ______ ____
ROOT
ATOM      1  C   LIG    1        3.968  -6.339   0.048  0.00  0.00    +0.040 C 
ATOM      2  C   LIG    1        3.803  -4.821  -0.059  0.00  0.00    +0.040 C 
ATOM      3  C   LIG    1        4.230  -5.632  -1.285  0.00  0.00    +0.000 C 
ATOM      4 CL   LIG    1        5.943  -5.483  -1.827  0.00  0.00    -0.070 Cl
ATOM      5 CL   LIG    1        3.015  -5.856  -2.599  0.00  0.00    -0.070 Cl
ENDROOT
BRANCH   1   6
ATOM      6  C   LIG    1        5.181  -6.865   0.818  0.00  0.00    +0.280 C 
BRANCH   6   7
ATOM      7  O   LIG    1        5.104  -8.312   0.912  0.00  0.00    -0.340 OA
BRANCH   7   9
ATOM      8  O   LIG    1        7.013  -8.289   2.043  0.00  0.00    -0.490 OA
ATOM      9  C   LIG    1        6.103  -8.936   1.566  0.00  0.00    +0.520 C 
BRANCH   9  10
ATOM     10  C   LIG    1        6.091 -10.407   1.701  0.00  0.00    -0.100 A 
ATOM     11  C   LIG    1        5.043 -11.152   1.158  0.00  0.00    +0.110 A 
ATOM     12  C   LIG    1        5.040 -12.528   1.283  0.00  0.00    -0.040 A 
ATOM     13  C   LIG    1        6.068 -13.166   1.956  0.00  0.00    +0.080 A 
ATOM     14  C   LIG    1        7.108 -12.432   2.501  0.00  0.00    -0.040 A 
ATOM     15 CL   LIG    1        8.393 -13.242   3.342  0.00  0.00    -0.040 Cl
ATOM     16 CL   LIG    1        3.741 -13.457   0.603  0.00  0.00    -0.040 Cl
ATOM     17  C   LIG    1        7.125 -11.057   2.378  0.00  0.00    +0.120 A 
ENDBRANCH   9  10
ENDBRANCH   7   9
ENDBRANCH   6   7
ENDBRANCH   1   6
BRANCH   2  18
ATOM     18  C   LIG    1        2.379  -4.263  -0.043  0.00  0.00    +0.280 C 
BRANCH  18  19
ATOM     19  O   LIG    1        2.428  -2.812  -0.036  0.00  0.00    -0.340 OA
BRANCH  19  20
ATOM     20  C   LIG    1        1.249  -2.160  -0.021  0.00  0.00    +0.520 C 
ATOM     21  O   LIG    1        0.209  -2.786  -0.014  0.00  0.00    -0.490 OA
BRANCH  20  22
ATOM     22  C   LIG    1        1.222  -0.683  -0.013  0.00  0.00    -0.100 A 
ATOM     23  C   LIG    1        0.002  -0.004   0.002  0.00  0.00    +0.120 A 
ATOM     24  C   LIG    1       -0.017   1.377   0.010  0.00  0.00    -0.040 A 
ATOM     25  C   LIG    1        1.171   2.088   0.002  0.00  0.00    +0.080 A 
ATOM     26  C   LIG    1        2.384   1.421  -0.013  0.00  0.00    -0.040 A 
ATOM     27 CL   LIG    1        3.868   2.322  -0.023  0.00  0.00    -0.040 Cl
ATOM     28 CL   LIG    1       -1.533   2.222   0.021  0.00  0.00    -0.040 Cl
ATOM     29  C   LIG    1        2.416   0.041  -0.021  0.00  0.00    +0.110 A 
ENDBRANCH  20  22
ENDBRANCH  19  20
ENDBRANCH  18  19
ENDBRANCH   2  18
TORSDOF 8
