REMARK  Name = ZINCrH000004vKbg.0
REMARK                            x       y       z     vdW  Elec       q    Type
REMARK                         _______ _______ _______ _____ _____    ______ ____
ROOT
ATOM      1  C   LIG    1       -0.463   3.239  -1.664  0.00  0.00    +0.570 C 
ATOM      2  N   LIG    1       -0.727   2.011  -1.176  0.00  0.00    -0.720 N 
ATOM      3  H   LIG    1       -1.387   1.448  -1.611  0.00  0.00    +0.400 HD
ATOM      4  O   LIG    1        0.364   3.945  -1.119  0.00  0.00    -0.520 OA
ENDROOT
BRANCH   1  11
ATOM      5  O   LIG    1       -3.289   6.638  -7.851  0.00  0.00    -0.500 OA
ATOM      6  C   LIG    1       -2.705   6.192  -6.886  0.00  0.00    +0.490 C 
ATOM      7  C   LIG    1       -1.429   6.838  -6.408  0.00  0.00    +0.300 C 
ATOM      8  O   LIG    1       -1.318   6.691  -4.990  0.00  0.00    -0.300 OA
ATOM      9  C   LIG    1       -1.574   5.455  -4.483  0.00  0.00    +0.070 A 
ATOM     10  C   LIG    1       -0.907   5.005  -3.362  0.00  0.00    +0.110 A 
ATOM     11  C   LIG    1       -1.177   3.728  -2.860  0.00  0.00    -0.130 A 
ATOM     12  C   LIG    1       -2.127   2.918  -3.487  0.00  0.00    +0.060 A 
ATOM     13  C   LIG    1       -2.794   3.375  -4.603  0.00  0.00    +0.010 A 
ATOM     14  C   LIG    1       -2.523   4.640  -5.105  0.00  0.00    +0.120 A 
ATOM     15  N   LIG    1       -3.195   5.115  -6.235  0.00  0.00    -0.660 N 
ATOM     16  H   LIG    1       -4.002   4.677  -6.547  0.00  0.00    +0.420 HD
ENDBRANCH   1  11
BRANCH   2  17
ATOM     17  C   LIG    1       -0.019   1.526   0.010  0.00  0.00    +0.340 C 
BRANCH  17  18
ATOM     18  C   LIG    1       -0.724   2.012   1.250  0.00  0.00    -0.190 A 
ATOM     19  C   LIG    1       -0.121   2.444   2.359  0.00  0.00    +0.020 A 
ATOM     20  C   LIG    1       -0.977   2.844   3.370  0.00  0.00    +0.010 A 
ATOM     21  C   LIG    1       -2.275   2.729   3.087  0.00  0.00    -0.050 A 
ATOM     22  S   LIG    1       -2.469   2.089   1.460  0.00  0.00    +0.100 S 
ENDBRANCH  17  18
BRANCH  17  23
ATOM     23  C   LIG    1        0.002  -0.004   0.002  0.00  0.00    +0.090 C 
BRANCH  23  24
ATOM     24  C   LIG    1        0.813  -0.489  -1.172  0.00  0.00    -0.080 A 
ATOM     25  C   LIG    1        0.196  -0.727  -2.387  0.00  0.00    +0.010 A 
ATOM     26  C   LIG    1        0.941  -1.167  -3.465  0.00  0.00    +0.000 A 
ATOM     27  C   LIG    1        2.299  -1.379  -3.326  0.00  0.00    +0.000 A 
ATOM     28  C   LIG    1        2.915  -1.147  -2.111  0.00  0.00    +0.000 A 
ATOM     29  C   LIG    1        2.171  -0.702  -1.034  0.00  0.00    +0.010 A 
ENDBRANCH  23  24
ENDBRANCH  17  23
ENDBRANCH   2  17
TORSDOF 5
