REMARK  Name = ZINCvU0000000IIe.0
REMARK                            x       y       z     vdW  Elec       q    Type
REMARK                         _______ _______ _______ _____ _____    ______ ____
ROOT
ATOM      1  C   LIG    1       -2.808   4.350   1.689  0.00  0.00    +0.110 C 
ATOM      2  C   LIG    1       -1.468   3.729   1.391  0.00  0.00    -0.090 A 
ATOM      3  C   LIG    1       -1.294   2.987   0.238  0.00  0.00    +0.040 A 
ATOM      4  C   LIG    1       -0.070   2.412  -0.039  0.00  0.00    +0.020 A 
ATOM      5  C   LIG    1        0.999   2.587   0.840  0.00  0.00    -0.110 A 
ATOM      6  C   LIG    1        0.825   3.341   2.001  0.00  0.00    +0.080 A 
ATOM      7  C   LIG    1       -0.409   3.910   2.273  0.00  0.00    +0.140 A 
ENDROOT
BRANCH   7   8
ATOM      8  N   LIG    1       -0.589   4.666   3.436  0.00  0.00    -0.660 N 
ATOM      9  H   LIG    1       -1.254   5.372   3.458  0.00  0.00    +0.420 HD
ATOM     10  C   LIG    1        0.162   4.414   4.527  0.00  0.00    +0.610 C 
ATOM     11  O   LIG    1        1.041   3.575   4.479  0.00  0.00    -0.490 OA
BRANCH  10  12
ATOM     12  C   LIG    1       -0.081   5.152   5.770  0.00  0.00    -0.090 A 
ATOM     13  C   LIG    1        0.602   4.997   6.942  0.00  0.00    +0.060 A 
ATOM     14  C   LIG    1        0.041   5.898   7.860  0.00  0.00    -0.070 A 
ATOM     15  C   LIG    1       -0.949   6.556   7.216  0.00  0.00    +0.210 A 
ATOM     16  O   LIG    1       -1.015   6.108   5.956  0.00  0.00    -0.170 OA
ENDBRANCH  10  12
ENDBRANCH   7   8
BRANCH   5  17
ATOM     17  C   LIG    1        2.312   1.977   0.542  0.00  0.00    +0.570 C 
ATOM     18  N   LIG    1        2.394   0.664   0.248  0.00  0.00    -0.600 N 
ATOM     19  O   LIG    1        3.318   2.659   0.563  0.00  0.00    -0.520 OA
BRANCH  18  20
ATOM     20  C   LIG    1        1.174  -0.140   0.142  0.00  0.00    +0.380 C 
BRANCH  20  21
ATOM     21  C   LIG    1        0.971  -0.558  -1.292  0.00  0.00    -0.210 A 
ATOM     22  C   LIG    1        1.542  -1.615  -1.873  0.00  0.00    +0.020 A 
ATOM     23  C   LIG    1        1.205  -1.802  -3.202  0.00  0.00    +0.000 A 
ATOM     24  C   LIG    1        0.360  -0.898  -3.701  0.00  0.00    -0.040 A 
ATOM     25  S   LIG    1       -0.061   0.267  -2.452  0.00  0.00    +0.100 S 
ENDBRANCH  20  21
ENDBRANCH  18  20
BRANCH  18  26
ATOM     26  C   LIG    1        3.703   0.042   0.033  0.00  0.00    +0.290 C 
BRANCH  26  27
ATOM     27  C   LIG    1        4.241  -0.485   1.365  0.00  0.00    +0.110 C 
BRANCH  27  28
ATOM     28  C   LIG    1        5.588  -1.126   1.145  0.00  0.00    -0.170 A 
ATOM     29  C   LIG    1        6.760  -0.494   1.215  0.00  0.00    +0.010 A 
ATOM     30  C   LIG    1        7.867  -1.290   0.975  0.00  0.00    +0.010 A 
ATOM     31  C   LIG    1        7.593  -2.568   0.709  0.00  0.00    -0.050 A 
ATOM     32  S   LIG    1        5.853  -2.822   0.762  0.00  0.00    +0.090 S 
ENDBRANCH  27  28
ENDBRANCH  26  27
ENDBRANCH  18  26
ENDBRANCH   5  17
TORSDOF 8
