REMARK  Name = ZINCrD0000073lJ4.0
REMARK                            x       y       z     vdW  Elec       q    Type
REMARK                         _______ _______ _______ _____ _____    ______ ____
ROOT
ATOM      1  C   LIG    1        4.612  -5.540   2.967  0.00  0.00    +0.150 C 
ENDROOT
BRANCH   1   4
ATOM      2  C   LIG    1        5.713  -8.946   2.298  0.00  0.00    +0.130 A 
ATOM      3  N   LIG    1        4.978  -7.872   2.240  0.00  0.00    -0.440 NA
ATOM      4  C   LIG    1        5.372  -6.841   2.954  0.00  0.00    +0.090 A 
ATOM      5  C   LIG    1        6.486  -7.020   3.671  0.00  0.00    -0.070 A 
ATOM      6  S   LIG    1        7.068  -8.659   3.386  0.00  0.00    +0.080 S 
BRANCH   2  10
ATOM      7  C   LIG    1        4.950 -12.568   0.211  0.00  0.00    +0.150 A 
ATOM      8  C   LIG    1        6.058 -12.468   1.043  0.00  0.00    -0.010 A 
ATOM      9  C   LIG    1        6.309 -11.294   1.721  0.00  0.00    +0.070 A 
ATOM     10  C   LIG    1        5.448 -10.206   1.571  0.00  0.00    -0.070 A 
ATOM     11  C   LIG    1        4.332 -10.312   0.739  0.00  0.00    +0.120 A 
ATOM     12  C   LIG    1        4.091 -11.487   0.059  0.00  0.00    -0.070 A 
BRANCH   7  14
ATOM     13  C   LIG    1        3.550 -13.761  -1.294  0.00  0.00    +0.240 C 
ATOM     14  O   LIG    1        4.707 -13.726  -0.456  0.00  0.00    -0.310 OA
ENDBRANCH   7  14
ENDBRANCH   2  10
ENDBRANCH   1   4
BRANCH   1  15
ATOM     15  C   LIG    1        4.452  -5.037   1.556  0.00  0.00    +0.520 C 
ATOM     16  N   LIG    1        3.800  -3.881   1.322  0.00  0.00    -0.730 N 
ATOM     17  H   LIG    1        3.433  -3.373   2.062  0.00  0.00    +0.400 HD
ATOM     18  O   LIG    1        4.911  -5.672   0.630  0.00  0.00    -0.520 OA
BRANCH  16  19
ATOM     19  C   LIG    1        3.645  -3.391  -0.050  0.00  0.00    +0.380 C 
BRANCH  19  20
ATOM     20  C   LIG    1        2.885  -2.090  -0.037  0.00  0.00    +0.040 A 
ATOM     21  C   LIG    1        3.434  -0.856  -0.035  0.00  0.00    +0.110 A 
ATOM     22  N   LIG    1        2.405   0.045  -0.021  0.00  0.00    -0.360 N 
ATOM     23  C   LIG    1        2.372   1.409  -0.013  0.00  0.00    +0.210 A 
ATOM     24  C   LIG    1        1.194   2.068   0.002  0.00  0.00    +0.010 A 
ATOM     25  C   LIG    1       -0.016   1.356   0.009  0.00  0.00    +0.050 A 
ATOM     26  C   LIG    1        0.002  -0.004   0.002  0.00  0.00    +0.070 A 
ATOM     27  C   LIG    1        1.240  -0.678  -0.013  0.00  0.00    +0.220 A 
ATOM     28  N   LIG    1        1.556  -1.965  -0.023  0.00  0.00    -0.480 NA
ENDBRANCH  19  20
ENDBRANCH  16  19
ENDBRANCH   1  15
TORSDOF 6
