REMARK  Name = ZINCrg000000ofYC.0
REMARK                            x       y       z     vdW  Elec       q    Type
REMARK                         _______ _______ _______ _____ _____    ______ ____
ROOT
ATOM      1  C   LIG    1        3.432   4.524  -1.718  0.00  0.00    +0.320 C 
ENDROOT
BRANCH   1   8
ATOM      2  C   LIG    1        1.655   1.561   2.378  0.00  0.00    +0.150 C 
ATOM      3  C   LIG    1        2.304   1.457   0.993  0.00  0.00    +0.250 C 
ATOM      4  N   LIG    1        1.371   2.013   0.001  0.00  0.00    -0.630 N 
ATOM      5  C   LIG    1       -0.019   1.530   0.011  0.00  0.00    +0.280 C 
ATOM      6  C   LIG    1       -0.555   1.631   1.444  0.00  0.00    +0.220 C 
ATOM      7  C   LIG    1        1.777   2.938  -0.891  0.00  0.00    +0.720 C 
ATOM      8  N   LIG    1        3.026   3.440  -0.820  0.00  0.00    -0.740 N 
ATOM      9  H   LIG    1        3.655   3.084  -0.174  0.00  0.00    +0.410 HD
ATOM     10  O   LIG    1        1.017   3.319  -1.761  0.00  0.00    -0.580 OA
ATOM     11  O   LIG    1        0.352   0.974   2.333  0.00  0.00    -0.360 OA
BRANCH   2  12
ATOM     12  C   LIG    1        2.515   0.818   3.403  0.00  0.00    +0.200 C 
BRANCH  12  13
ATOM     13  O   LIG    1        1.973   1.013   4.711  0.00  0.00    -0.380 OA
BRANCH  13  15
ATOM     14  C   LIG    1        2.040   0.634   7.096  0.00  0.00    +0.040 C 
ATOM     15  C   LIG    1        2.707   0.358   5.747  0.00  0.00    +0.160 C 
ENDBRANCH  13  15
ENDBRANCH  12  13
ENDBRANCH   2  12
ENDBRANCH   1   8
BRANCH   1  16
ATOM     16  C   LIG    1        4.863   4.900  -1.436  0.00  0.00    +0.510 C 
ATOM     17  N   LIG    1        5.455   5.882  -2.146  0.00  0.00    -0.710 N 
ATOM     18  H   LIG    1        4.958   6.346  -2.839  0.00  0.00    +0.410 HD
ATOM     19  O   LIG    1        5.484   4.320  -0.570  0.00  0.00    -0.530 OA
BRANCH  17  20
ATOM     20  C   LIG    1        6.846   6.247  -1.872  0.00  0.00    +0.290 C 
ATOM     21  C   LIG    1        7.085   7.698  -2.299  0.00  0.00    +0.010 C 
ATOM     22  C   LIG    1        8.596   7.963  -2.281  0.00  0.00    +0.260 C 
ATOM     23  O   LIG    1        9.210   7.139  -3.273  0.00  0.00    -0.310 OA
ATOM     24  C   LIG    1        8.888   5.819  -3.290  0.00  0.00    +0.140 A 
ATOM     25  C   LIG    1        9.716   4.944  -3.986  0.00  0.00    -0.020 A 
ATOM     26  C   LIG    1        9.418   3.597  -4.033  0.00  0.00    +0.050 A 
ATOM     27  C   LIG    1        8.295   3.115  -3.387  0.00  0.00    -0.040 A 
ATOM     28  C   LIG    1        7.472   3.982  -2.693  0.00  0.00    +0.060 A 
ATOM     29  C   LIG    1        7.766   5.334  -2.642  0.00  0.00    -0.180 A 
ENDBRANCH  17  20
ENDBRANCH   1  16
TORSDOF 6
