REMARK  Name = ZINCkj000018RDVm.1
REMARK                            x       y       z     vdW  Elec       q    Type
REMARK                         _______ _______ _______ _____ _____    ______ ____
ROOT
ATOM      1  N   LIG    1        1.293  -2.055  -0.021  0.00  0.00    -0.440 NA
ATOM      2  C   LIG    1        0.846  -2.615   1.280  0.00  0.00    +0.220 C 
ATOM      3  C   LIG    1        1.459  -4.032   1.326  0.00  0.00    +0.180 C 
ATOM      4  C   LIG    1        2.676  -3.972   0.379  0.00  0.00    +0.130 C 
ATOM      5  C   LIG    1        2.696  -2.525  -0.158  0.00  0.00    +0.240 C 
ENDROOT
BRANCH   1   8
ATOM      6  C   LIG    1        2.046   1.471  -0.710  0.00  0.00    +0.190 C 
ATOM      7  C   LIG    1        2.143   0.096  -0.744  0.00  0.00    +0.000 C 
ATOM      8  C   LIG    1        1.230  -0.665  -0.013  0.00  0.00    +0.230 C 
ATOM      9  C   LIG    1        0.254   0.003   0.725  0.00  0.00    +0.000 C 
ATOM     10  C   LIG    1        0.226   1.382   0.705  0.00  0.00    +0.370 C 
ATOM     11  N   LIG    1        1.107   2.067   0.001  0.00  0.00    -0.480 NA
ATOM     12  H   LIG    1        1.063   3.036   0.006  0.00  0.00    +0.450 HD
BRANCH   6  14
ATOM     13  C   LIG    1        2.544   2.449  -2.934  0.00  0.00    +0.060 C 
ATOM     14  C   LIG    1        3.030   2.305  -1.490  0.00  0.00    +0.110 C 
ENDBRANCH   6  14
ENDBRANCH   1   8
BRANCH   4  15
ATOM     15  C   LIG    1        3.946  -4.266   1.136  0.00  0.00    -0.000 A 
ATOM     16  N   LIG    1        4.577  -5.416   1.206  0.00  0.00    -0.260 NA
ATOM     17  N   LIG    1        5.619  -5.271   1.946  0.00  0.00    -0.240 N 
ATOM     18  H   LIG    1        6.251  -5.977   2.152  0.00  0.00    +0.480 HD
ATOM     19  N   LIG    1        5.708  -4.062   2.375  0.00  0.00    -0.270 NA
ATOM     20  C   LIG    1        4.695  -3.371   1.903  0.00  0.00    +0.170 A 
ENDBRANCH   4  15
BRANCH   3  21
ATOM     21  O   LIG    1        0.515  -4.997   0.859  0.00  0.00    -0.370 OA
ATOM     22  C   LIG    1       -0.246  -5.615   1.898  0.00  0.00    +0.230 C 
ENDBRANCH   3  21
TORSDOF 4
