REMARK  Name = ZINCkj000018RDVm.0
REMARK                            x       y       z     vdW  Elec       q    Type
REMARK                         _______ _______ _______ _____ _____    ______ ____
ROOT
ATOM      1  N   LIG    1        0.158   2.819   1.656  0.00  0.00    -0.480 NA
ATOM      2  C   LIG    1       -0.838   1.788   1.264  0.00  0.00    +0.190 C 
ATOM      3  C   LIG    1       -0.269   1.171  -0.032  0.00  0.00    +0.180 C 
ATOM      4  C   LIG    1        1.249   1.436   0.030  0.00  0.00    +0.130 C 
ATOM      5  C   LIG    1        1.470   2.190   1.359  0.00  0.00    +0.210 C 
ENDROOT
BRANCH   1   8
ATOM      6  C   LIG    1        0.148   2.507   5.314  0.00  0.00    +0.180 C 
ATOM      7  C   LIG    1        0.267   2.159   3.985  0.00  0.00    +0.000 C 
ATOM      8  C   LIG    1        0.048   3.129   3.008  0.00  0.00    +0.230 C 
ATOM      9  C   LIG    1       -0.279   4.421   3.421  0.00  0.00    +0.080 C 
ATOM     10  C   LIG    1       -0.384   4.686   4.770  0.00  0.00    +0.370 C 
ATOM     11  N   LIG    1       -0.169   3.740   5.665  0.00  0.00    -0.450 NA
ATOM     12  H   LIG    1       -0.246   3.956   6.607  0.00  0.00    +0.450 HD
BRANCH   6  14
ATOM     13  C   LIG    1        1.879   1.378   6.684  0.00  0.00    +0.060 C 
ATOM     14  C   LIG    1        0.382   1.468   6.380  0.00  0.00    +0.110 C 
ENDBRANCH   6  14
ENDBRANCH   1   8
BRANCH   4  15
ATOM     15  C   LIG    1        2.008   0.134   0.035  0.00  0.00    -0.020 A 
ATOM     16  C   LIG    1        2.297  -0.631   1.113  0.00  0.00    +0.140 A 
ATOM     17  N   LIG    1        2.984  -1.699   0.645  0.00  0.00    -0.380 N 
ATOM     18  H   LIG    1        3.330  -2.431   1.179  0.00  0.00    +0.450 HD
ATOM     19  N   LIG    1        3.103  -1.574  -0.630  0.00  0.00    -0.060 NA
ATOM     20  N   LIG    1        2.532  -0.491  -1.026  0.00  0.00    -0.250 NA
ENDBRANCH   4  15
BRANCH   3  21
ATOM     21  O   LIG    1       -0.837   1.808  -1.178  0.00  0.00    -0.360 OA
ATOM     22  C   LIG    1       -2.000   1.154  -1.691  0.00  0.00    +0.220 C 
ENDBRANCH   3  21
TORSDOF 4
