REMARK  Name = ZINCqH0000001FJw.0
REMARK                            x       y       z     vdW  Elec       q    Type
REMARK                         _______ _______ _______ _____ _____    ______ ____
ROOT
ATOM      1  N   LIG    1       -4.439  -0.200   2.923  0.00  0.00    -0.740 N 
ATOM      2  H   LIG    1       -3.894   0.121   3.659  0.00  0.00    +0.390 HD
ATOM      3  C   LIG    1       -4.060   0.037   1.652  0.00  0.00    +0.710 C 
ATOM      4  N   LIG    1       -2.925   0.719   1.403  0.00  0.00    -0.740 N 
ATOM      5  H   LIG    1       -2.380   1.039   2.139  0.00  0.00    +0.400 HD
ATOM      6  O   LIG    1       -4.743  -0.364   0.729  0.00  0.00    -0.580 OA
ENDROOT
BRANCH   1   7
ATOM      7  C   LIG    1       -5.674  -0.940   3.194  0.00  0.00    +0.310 C 
BRANCH   7   8
ATOM      8  C   LIG    1       -6.197  -0.564   4.556  0.00  0.00    -0.100 A 
ATOM      9  C   LIG    1       -5.319  -0.394   5.610  0.00  0.00    +0.040 A 
ATOM     10  C   LIG    1       -5.797  -0.043   6.859  0.00  0.00    -0.010 A 
ATOM     11  C   LIG    1       -7.157   0.127   7.056  0.00  0.00    +0.100 A 
ATOM     12  C   LIG    1       -8.036  -0.050   6.001  0.00  0.00    -0.010 A 
ATOM     13  F   LIG    1       -7.626   0.464   8.277  0.00  0.00    -0.140 F 
ATOM     14  C   LIG    1       -7.555  -0.395   4.752  0.00  0.00    +0.060 A 
ENDBRANCH   7   8
BRANCH   7  16
ATOM     15  C   LIG    1       -6.676  -3.216   3.438  0.00  0.00    +0.030 C 
ATOM     16  C   LIG    1       -5.386  -2.442   3.155  0.00  0.00    -0.030 C 
ATOM     17  C   LIG    1       -4.855  -2.825   1.772  0.00  0.00    +0.020 C 
ENDBRANCH   7  16
ENDBRANCH   1   7
BRANCH   4  18
ATOM     18  C   LIG    1       -2.513   0.976   0.021  0.00  0.00    +0.350 C 
BRANCH  18  19
ATOM     19  C   LIG    1       -1.219   1.749   0.017  0.00  0.00    -0.110 A 
ATOM     20  C   LIG    1       -0.013   1.076   0.008  0.00  0.00    +0.050 A 
ATOM     21  C   LIG    1        1.176   1.782   0.000  0.00  0.00    +0.020 A 
ATOM     22  C   LIG    1        1.160   3.169   0.007  0.00  0.00    +0.060 A 
ATOM     23  O   LIG    1        2.338   3.850   0.003  0.00  0.00    -0.310 OA
ATOM     24  C   LIG    1        2.280   5.233  -0.365  0.00  0.00    +0.220 C 
ATOM     25  C   LIG    1        1.114   5.883   0.391  0.00  0.00    +0.220 C 
ATOM     26  O   LIG    1       -0.092   5.207   0.023  0.00  0.00    -0.310 OA
ATOM     27  C   LIG    1       -0.054   3.846   0.020  0.00  0.00    +0.050 A 
ATOM     28  C   LIG    1       -1.242   3.131   0.030  0.00  0.00    +0.050 A 
ENDBRANCH  18  19
ENDBRANCH   4  18
TORSDOF 5
