REMARK  Name = ZINCrD00000F5LHD.0
REMARK                            x       y       z     vdW  Elec       q    Type
REMARK                         _______ _______ _______ _____ _____    ______ ____
ROOT
ATOM      1  N   LIG    1       -0.066  -3.381   5.904  0.00  0.00    -0.580 N 
ATOM      2  H   LIG    1        0.584  -3.355   6.624  0.00  0.00    +0.380 HD
ATOM      3  C   LIG    1       -0.897  -4.435   5.784  0.00  0.00    +0.580 C 
ATOM      4  O   LIG    1       -1.712  -4.467   4.881  0.00  0.00    -0.480 OA
ENDROOT
BRANCH   3   5
ATOM      5  C   LIG    1       -0.819  -5.550   6.746  0.00  0.00    -0.150 A 
ATOM      6  C   LIG    1        0.115  -5.512   7.769  0.00  0.00    +0.080 A 
ATOM      7  C   LIG    1        0.181  -6.573   8.684  0.00  0.00    -0.070 A 
ATOM      8  C   LIG    1        1.113  -6.565   9.738  0.00  0.00    +0.030 A 
ATOM      9  C   LIG    1        1.157  -7.612  10.606  0.00  0.00    +0.010 A 
ATOM     10  C   LIG    1        0.291  -8.695  10.468  0.00  0.00    +0.030 A 
ATOM     11  C   LIG    1       -0.624  -8.737   9.462  0.00  0.00    +0.020 A 
ATOM     12  C   LIG    1       -0.701  -7.676   8.544  0.00  0.00    -0.020 A 
ATOM     13  C   LIG    1       -1.635  -7.693   7.494  0.00  0.00    +0.000 A 
ATOM     14  C   LIG    1       -1.691  -6.652   6.615  0.00  0.00    +0.160 A 
BRANCH  14  15
ATOM     15  O   LIG    1       -2.596  -6.676   5.604  0.00  0.00    -0.480 OA
ATOM     16  H   LIG    1       -2.268  -7.088   4.793  0.00  0.00    +0.400 HD
ENDBRANCH  14  15
ENDBRANCH   3   5
BRANCH   1  18
ATOM     17  C   LIG    1        0.659  -1.306   5.106  0.00  0.00    +0.280 C 
ATOM     18  N   LIG    1       -0.141  -2.321   4.990  0.00  0.00    -0.250 NA
BRANCH  17  22
ATOM     19  N   LIG    1       -0.020   1.094   2.454  0.00  0.00    -0.440 N 
ATOM     20  C   LIG    1        0.990   1.756   3.086  0.00  0.00    +0.020 A 
ATOM     21  C   LIG    1        1.405   1.021   4.134  0.00  0.00    -0.020 A 
ATOM     22  C   LIG    1        0.581  -0.192   4.145  0.00  0.00    -0.160 A 
ATOM     23  C   LIG    1        1.551   3.094   2.678  0.00  0.00    +0.120 C 
ATOM     24  C   LIG    1       -0.278  -0.079   3.089  0.00  0.00    +0.090 A 
ATOM     25  C   LIG    1       -1.328  -1.085   2.693  0.00  0.00    +0.150 C 
BRANCH  19  26
ATOM     26  C   LIG    1       -0.729   1.579   1.267  0.00  0.00    +0.300 C 
BRANCH  26  27
ATOM     27  C   LIG    1       -0.013   1.086   0.008  0.00  0.00    +0.170 C 
BRANCH  27  29
ATOM     28  C   LIG    1       -0.114   1.152  -2.386  0.00  0.00    +0.200 C 
ATOM     29  O   LIG    1       -0.704   1.559  -1.150  0.00  0.00    -0.390 OA
ENDBRANCH  27  29
ENDBRANCH  26  27
ENDBRANCH  19  26
ENDBRANCH  17  22
ENDBRANCH   1  18
TORSDOF 7
