REMARK  Name = ZINCtV00000tRPsU.0
REMARK                            x       y       z     vdW  Elec       q    Type
REMARK                         _______ _______ _______ _____ _____    ______ ____
ROOT
ATOM      1  N   LIG    1        2.101   4.392  -1.096  0.00  0.00    -0.450 N 
ATOM      2  C   LIG    1        1.984   3.586   0.002  0.00  0.00    +0.180 A 
ATOM      3  N   LIG    1        2.111   4.343   1.055  0.00  0.00    -0.250 NA
ATOM      4  N   LIG    1        2.295   5.565   0.700  0.00  0.00    -0.290 NA
ATOM      5  C   LIG    1        2.295   5.653  -0.610  0.00  0.00    +0.170 A 
ENDROOT
BRANCH   1   6
ATOM      6  C   LIG    1        2.031   3.987  -2.502  0.00  0.00    +0.350 C 
BRANCH   6   8
ATOM      7  C   LIG    1        0.301   4.776  -4.033  0.00  0.00    +0.070 C 
ATOM      8  C   LIG    1        0.603   4.063  -2.976  0.00  0.00    -0.070 C 
ENDBRANCH   6   8
ENDBRANCH   1   6
BRANCH   2   9
ATOM      9  C   LIG    1        1.756   2.096  -0.004  0.00  0.00    +0.230 C 
BRANCH   9  10
ATOM     10  S   LIG    1       -0.022   1.758   0.012  0.00  0.00    +0.040 S 
BRANCH  10  11
ATOM     11  C   LIG    1        0.002  -0.004   0.002  0.00  0.00    +0.080 A 
ATOM     12  N   LIG    1        1.071  -0.726  -0.018  0.00  0.00    -0.470 NA
ATOM     13  C   LIG    1        0.926  -2.066  -0.018  0.00  0.00    +0.090 A 
ATOM     14  C   LIG    1        1.925  -3.062  -0.034  0.00  0.00    +0.080 A 
ATOM     15  C   LIG    1        1.582  -4.391  -0.038  0.00  0.00    +0.040 A 
ATOM     16  C   LIG    1        0.250  -4.776  -0.027  0.00  0.00    +0.040 A 
ATOM     17  C   LIG    1       -0.743  -3.821  -0.012  0.00  0.00    +0.060 A 
ATOM     18  C   LIG    1       -0.413  -2.468  -0.007  0.00  0.00    -0.170 A 
ATOM     19  S   LIG    1       -1.427  -1.027   0.010  0.00  0.00    +0.110 S 
ENDBRANCH  10  11
ENDBRANCH   9  10
ENDBRANCH   2   9
BRANCH   5  20
ATOM     20  S   LIG    1        2.510   7.121  -1.561  0.00  0.00    +0.010 S 
BRANCH  20  21
ATOM     21  C   LIG    1        2.709   8.332  -0.230  0.00  0.00    +0.140 C 
BRANCH  21  22
ATOM     22  C   LIG    1        2.913   9.702  -0.824  0.00  0.00    -0.020 C 
ATOM     23  C   LIG    1        2.007  10.650  -0.629  0.00  0.00    +0.050 C 
BRANCH  23  24
ATOM     24  C   LIG    1        2.207  11.994  -1.211  0.00  0.00    -0.060 A 
ATOM     25  C   LIG    1        3.350  12.269  -1.962  0.00  0.00    +0.020 A 
ATOM     26  C   LIG    1        3.528  13.524  -2.508  0.00  0.00    +0.000 A 
ATOM     27  C   LIG    1        2.581  14.511  -2.302  0.00  0.00    +0.000 A 
ATOM     28  C   LIG    1        1.448  14.247  -1.554  0.00  0.00    +0.000 A 
ATOM     29  C   LIG    1        1.256  12.994  -1.007  0.00  0.00    +0.030 A 
ENDBRANCH  23  24
ENDBRANCH  21  22
ENDBRANCH  20  21
ENDBRANCH   5  20
TORSDOF 9
