REMARK  Name = ZINCpk00000KfL1t.0
REMARK                            x       y       z     vdW  Elec       q    Type
REMARK                         _______ _______ _______ _____ _____    ______ ____
ROOT
ATOM      1  N   LIG    1       -0.399   6.197  -5.069  0.00  0.00    -0.740 N 
ATOM      2  H   LIG    1        0.184   5.424  -5.019  0.00  0.00    +0.390 HD
ATOM      3  C   LIG    1       -1.584   6.190  -4.427  0.00  0.00    +0.710 C 
ATOM      4  N   LIG    1       -1.914   5.152  -3.633  0.00  0.00    -0.630 N 
ATOM      5  C   LIG    1       -3.152   5.173  -2.839  0.00  0.00    +0.310 C 
ATOM      6  C   LIG    1       -2.803   4.835  -1.385  0.00  0.00    +0.180 C 
ATOM      7  N   LIG    1       -2.060   3.569  -1.345  0.00  0.00    -0.530 NA
ATOM      8  C   LIG    1       -0.780   3.679  -2.056  0.00  0.00    +0.150 C 
ATOM      9  C   LIG    1       -1.046   3.969  -3.537  0.00  0.00    +0.280 C 
ATOM     10  O   LIG    1       -2.356   7.119  -4.565  0.00  0.00    -0.590 OA
ENDROOT
BRANCH   1  11
ATOM     11  C   LIG    1        0.008   7.373  -5.843  0.00  0.00    +0.310 C 
BRANCH  11  15
ATOM     12  C   LIG    1        2.768   7.716  -8.604  0.00  0.00    +0.050 C 
ATOM     13  C   LIG    1        1.934   8.191  -7.412  0.00  0.00    -0.030 C 
ATOM     14  C   LIG    1        2.536   8.022  -6.016  0.00  0.00    +0.030 C 
ATOM     15  C   LIG    1        1.383   7.123  -6.466  0.00  0.00    -0.060 C 
ENDBRANCH  11  15
ENDBRANCH   1  11
BRANCH   7  16
ATOM     16  C   LIG    1       -1.856   3.122   0.040  0.00  0.00    +0.320 C 
BRANCH  16  17
ATOM     17  C   LIG    1       -1.316   1.715   0.040  0.00  0.00    +0.180 A 
ATOM     18  N   LIG    1       -2.019   0.614   0.062  0.00  0.00    -0.270 NA
ATOM     19  N   LIG    1       -1.231  -0.404   0.047  0.00  0.00    -0.290 NA
ATOM     20  C   LIG    1        0.006   0.003   0.010  0.00  0.00    +0.180 A 
ATOM     21  C   LIG    1        1.245  -0.854  -0.042  0.00  0.00    +0.150 C 
ATOM     22  C   LIG    1        2.257  -0.331   0.982  0.00  0.00    +0.020 C 
ATOM     23  C   LIG    1        3.126   0.745   0.338  0.00  0.00    +0.020 C 
ATOM     24  C   LIG    1        2.320   1.542  -0.687  0.00  0.00    +0.030 C 
ATOM     25  C   LIG    1        1.150   2.244   0.008  0.00  0.00    +0.280 C 
ATOM     26  N   LIG    1       -0.013   1.356   0.015  0.00  0.00    -0.470 N 
ENDBRANCH  16  17
ENDBRANCH   7  16
TORSDOF 4
