REMARK  Name = ZINCvU0000000C98.0
REMARK                            x       y       z     vdW  Elec       q    Type
REMARK                         _______ _______ _______ _____ _____    ______ ____
ROOT
ATOM      1  C   LIG    1       -3.382  -2.021   0.025  0.00  0.00    +0.050 C 
ENDROOT
BRANCH   1   2
ATOM      2  C   LIG    1       -3.611  -2.485  -1.391  0.00  0.00    -0.070 A 
ATOM      3  C   LIG    1       -4.170  -1.625  -2.317  0.00  0.00    +0.030 A 
ATOM      4  C   LIG    1       -4.376  -2.049  -3.617  0.00  0.00    +0.000 A 
ATOM      5  C   LIG    1       -4.030  -3.335  -3.988  0.00  0.00    +0.010 A 
ATOM      6  C   LIG    1       -3.475  -4.196  -3.060  0.00  0.00    +0.000 A 
ATOM      7  C   LIG    1       -3.266  -3.771  -1.761  0.00  0.00    +0.050 A 
ENDBRANCH   1   2
BRANCH   1   8
ATOM      8  C   LIG    1       -2.448  -0.839   0.022  0.00  0.00    +0.450 C 
ATOM      9  O   LIG    1       -2.897   0.289   0.033  0.00  0.00    -0.450 OA
BRANCH   8  15
ATOM     10  C   LIG    1        2.414   0.030  -0.021  0.00  0.00    -0.080 A 
ATOM     11  C   LIG    1        1.225  -0.693  -0.013  0.00  0.00    +0.080 A 
ATOM     12  N   LIG    1        0.944  -2.044  -0.018  0.00  0.00    -0.560 N 
ATOM     13  H   LIG    1        1.613  -2.747  -0.028  0.00  0.00    +0.420 HD
ATOM     14  C   LIG    1       -0.386  -2.254  -0.006  0.00  0.00    +0.330 A 
ATOM     15  C   LIG    1       -1.046  -1.044   0.007  0.00  0.00    -0.270 A 
ATOM     16  C   LIG    1        0.002  -0.004   0.002  0.00  0.00    -0.050 A 
ATOM     17  C   LIG    1       -0.017   1.387   0.010  0.00  0.00    +0.050 A 
ATOM     18  C   LIG    1        1.171   2.086   0.002  0.00  0.00    +0.000 A 
ATOM     19  C   LIG    1        2.381   1.408  -0.013  0.00  0.00    +0.030 A 
BRANCH  10  21
ATOM     20  C   LIG    1        4.109  -1.040  -1.480  0.00  0.00    +0.020 C 
ATOM     21  C   LIG    1        3.736  -0.693  -0.037  0.00  0.00    +0.050 C 
ENDBRANCH  10  21
ENDBRANCH   8  15
ENDBRANCH   1   8
BRANCH   1  22
ATOM     22  S   LIG    1       -4.963  -1.540   0.764  0.00  0.00    +0.050 S 
BRANCH  22  23
ATOM     23  C   LIG    1       -5.781  -3.100   0.780  0.00  0.00    +0.010 A 
ATOM     24  N   LIG    1       -5.273  -4.211   0.342  0.00  0.00    -0.460 NA
ATOM     25  C   LIG    1       -6.029  -5.290   0.434  0.00  0.00    +0.090 A 
ATOM     26  C   LIG    1       -7.233  -5.080   0.966  0.00  0.00    -0.220 A 
ATOM     27  C   LIG    1       -5.569  -6.648  -0.030  0.00  0.00    +0.150 C 
ATOM     28  S   LIG    1       -7.364  -3.370   1.368  0.00  0.00    +0.190 S 
BRANCH  26  29
ATOM     29  C   LIG    1       -8.298  -6.124   1.185  0.00  0.00    +0.170 C 
BRANCH  29  30
ATOM     30  C   LIG    1       -8.127  -6.737   2.551  0.00  0.00    +0.510 C 
ATOM     31  O   LIG    1       -7.229  -6.362   3.276  0.00  0.00    -0.530 OA
ATOM     32  N   LIG    1       -8.971  -7.701   2.968  0.00  0.00    -0.860 N 
ATOM     33  H   LIG    1       -8.861  -8.095   3.848  0.00  0.00    +0.400 HD
ATOM     34  H   LIG    1       -9.689  -8.000   2.389  0.00  0.00    +0.400 HD
ENDBRANCH  29  30
ENDBRANCH  26  29
ENDBRANCH  22  23
ENDBRANCH   1  22
TORSDOF 8
