REMARK  Name = ZINCvU00000004ev.0
REMARK                            x       y       z     vdW  Elec       q    Type
REMARK                         _______ _______ _______ _____ _____    ______ ____
ROOT
ATOM      1  N   LIG    1       -0.984  -0.979   0.007  0.00  0.00    -0.420 N 
ATOM      2  C   LIG    1        0.002  -0.004   0.002  0.00  0.00    +0.060 A 
ATOM      3  C   LIG    1       -0.017   1.382   0.010  0.00  0.00    +0.010 A 
ATOM      4  C   LIG    1        1.171   2.085   0.002  0.00  0.00    +0.030 A 
ATOM      5  C   LIG    1        2.384   1.414  -0.014  0.00  0.00    +0.010 A 
ATOM      6  C   LIG    1        2.422   0.037  -0.021  0.00  0.00    +0.060 A 
ATOM      7  C   LIG    1        1.229  -0.689  -0.013  0.00  0.00    +0.060 A 
ATOM      8  N   LIG    1        0.946  -2.018  -0.017  0.00  0.00    -0.490 NA
ATOM      9  C   LIG    1       -0.353  -2.193  -0.006  0.00  0.00    +0.250 A 
ENDROOT
BRANCH   1  13
ATOM     10  C   LIG    1       -5.105  -0.331   0.051  0.00  0.00    +0.150 A 
ATOM     11  C   LIG    1       -4.510  -0.934  -1.047  0.00  0.00    +0.000 A 
ATOM     12  C   LIG    1       -3.146  -1.149  -1.062  0.00  0.00    +0.080 A 
ATOM     13  C   LIG    1       -2.370  -0.761   0.022  0.00  0.00    +0.070 A 
ATOM     14  C   LIG    1       -2.967  -0.162   1.123  0.00  0.00    +0.070 A 
ATOM     15  C   LIG    1       -4.330   0.057   1.135  0.00  0.00    -0.060 A 
BRANCH  10  16
ATOM     16  O   LIG    1       -6.448  -0.121   0.066  0.00  0.00    -0.310 OA
BRANCH  16  18
ATOM     17  C   LIG    1       -8.507   0.657   1.063  0.00  0.00    +0.070 C 
ATOM     18  C   LIG    1       -6.994   0.505   1.229  0.00  0.00    +0.180 C 
ENDBRANCH  16  18
ENDBRANCH  10  16
ENDBRANCH   1  13
BRANCH   9  19
ATOM     19  S   LIG    1       -1.165  -3.757  -0.006  0.00  0.00    +0.080 S 
BRANCH  19  20
ATOM     20  C   LIG    1        0.272  -4.857  -0.025  0.00  0.00    +0.110 C 
BRANCH  20  21
ATOM     21  C   LIG    1       -0.193  -6.290  -0.029  0.00  0.00    +0.530 C 
ATOM     22  N   LIG    1        0.710  -7.292  -0.042  0.00  0.00    -0.600 N 
ATOM     23  C   LIG    1        2.142  -6.986  -0.054  0.00  0.00    +0.290 C 
ATOM     24  O   LIG    1       -1.379  -6.543  -0.019  0.00  0.00    -0.520 OA
BRANCH  22  25
ATOM     25  C   LIG    1        0.258  -8.685  -0.045  0.00  0.00    +0.350 C 
BRANCH  25  26
ATOM     26  C   LIG    1        0.089  -9.155  -1.467  0.00  0.00    -0.110 A 
ATOM     27  C   LIG    1       -1.128  -9.007  -2.105  0.00  0.00    +0.040 A 
ATOM     28  C   LIG    1       -1.281  -9.434  -3.411  0.00  0.00    +0.000 A 
ATOM     29  C   LIG    1       -0.220 -10.019  -4.075  0.00  0.00    +0.010 A 
ATOM     30  C   LIG    1        0.996 -10.172  -3.436  0.00  0.00    +0.000 A 
ATOM     31  C   LIG    1        1.151  -9.740  -2.132  0.00  0.00    +0.010 A 
ENDBRANCH  25  26
ENDBRANCH  22  25
ENDBRANCH  20  21
ENDBRANCH  19  20
ENDBRANCH   9  19
TORSDOF 8
