REMARK  Name = ZINCpk00000kJ21u.0
REMARK                            x       y       z     vdW  Elec       q    Type
REMARK                         _______ _______ _______ _____ _____    ______ ____
ROOT
ATOM      1  N   LIG    1        2.354   3.893   0.000  0.00  0.00    -0.500 N 
ATOM      2  C   LIG    1        2.511   4.668   1.237  0.00  0.00    +0.180 C 
ATOM      3  C   LIG    1        3.893   5.324   1.258  0.00  0.00    +0.030 C 
ATOM      4  C   LIG    1        4.037   6.239   0.038  0.00  0.00    +0.230 C 
ATOM      5  C   LIG    1        3.821   5.416  -1.235  0.00  0.00    +0.040 C 
ATOM      6  C   LIG    1        2.441   4.758  -1.183  0.00  0.00    +0.200 C 
ENDROOT
BRANCH   1  12
ATOM      7  C   LIG    1       -2.562   3.863   0.047  0.00  0.00    +0.090 C 
ATOM      8  C   LIG    1       -1.243   3.133   0.031  0.00  0.00    -0.090 A 
ATOM      9  C   LIG    1       -1.220   1.751   0.017  0.00  0.00    +0.050 A 
ATOM     10  C   LIG    1       -0.013   1.076   0.008  0.00  0.00    -0.010 A 
ATOM     11  C   LIG    1        1.175   1.783   0.000  0.00  0.00    +0.120 A 
ATOM     12  C   LIG    1        1.154   3.174   0.008  0.00  0.00    +0.050 A 
ATOM     13  F   LIG    1        2.355   1.124  -0.015  0.00  0.00    -0.130 F 
ATOM     14  C   LIG    1       -0.060   3.846   0.023  0.00  0.00    +0.010 A 
ENDBRANCH   1  12
BRANCH   4  15
ATOM     15  N   LIG    1        5.380   6.825   0.021  0.00  0.00    -0.700 N 
ATOM     16  H   LIG    1        6.085   6.405  -0.495  0.00  0.00    +0.410 HD
ATOM     17  C   LIG    1        5.634   7.947   0.723  0.00  0.00    +0.510 C 
ATOM     18  O   LIG    1        4.752   8.472   1.368  0.00  0.00    -0.520 OA
BRANCH  17  19
ATOM     19  C   LIG    1        7.016   8.549   0.705  0.00  0.00    +0.160 C 
ATOM     20  C   LIG    1        7.388   8.966  -0.730  0.00  0.00    +0.080 C 
ATOM     21  C   LIG    1        7.654  10.486  -0.653  0.00  0.00    +0.100 C 
ATOM     22  CA  LIG    1        7.973  10.707   0.847  0.00  0.00    +0.100 C 
ATOM     23  N   LIG    1        7.042   9.772   1.537  0.00  0.00    -0.480 N 
ATOM     24  H1  LIG    1        7.383   9.556   2.461  0.00  0.00    +0.430 HD
ATOM     25  H2  LIG    1        6.120  10.177   1.590  0.00  0.00    +0.440 HD
BRANCH  22  26
ATOM     26  C   LIG    1        7.689  12.132   1.247  0.00  0.00    +0.490 C 
ATOM     27  OXT LIG    1        8.572  12.970   1.185  0.00  0.00    -0.640 OA
ATOM     28  O   LIG    1        6.576  12.447   1.633  0.00  0.00    -0.660 OA
ENDBRANCH  22  26
ENDBRANCH  17  19
ENDBRANCH   4  15
TORSDOF 4
