REMARK  Name = ZINCpe000000XVh0.0
REMARK                            x       y       z     vdW  Elec       q    Type
REMARK                         _______ _______ _______ _____ _____    ______ ____
ROOT
ATOM      1  C   LIG    1        4.600   1.037  -0.074  0.00  0.00    +0.590 C 
ATOM      2  N   LIG    1        4.739  -0.296   0.066  0.00  0.00    -0.710 N 
ATOM      3  H   LIG    1        3.954  -0.859   0.156  0.00  0.00    +0.420 HD
ATOM      4  O   LIG    1        5.579   1.734  -0.272  0.00  0.00    -0.560 OA
ENDROOT
BRANCH   1  11
ATOM      5  C   LIG    1       -2.919   3.312   0.441  0.00  0.00    +0.120 C 
ATOM      6  C   LIG    1       -1.561   2.665   0.353  0.00  0.00    +0.010 A 
ATOM      7  C   LIG    1       -0.438   3.434   0.249  0.00  0.00    +0.020 A 
ATOM      8  C   LIG    1        0.820   2.814   0.169  0.00  0.00    +0.410 A 
ATOM      9  N   LIG    1        1.915   3.572   0.069  0.00  0.00    -0.550 NA
ATOM     10  C   LIG    1        3.118   3.043  -0.010  0.00  0.00    +0.460 A 
ATOM     11  C   LIG    1        3.269   1.649   0.013  0.00  0.00    -0.370 A 
ATOM     12  C   LIG    1        2.108   0.846   0.120  0.00  0.00    +0.530 A 
ATOM     13  O   LIG    1        2.195  -0.369   0.143  0.00  0.00    -0.520 OA
ATOM     14  N   LIG    1        0.903   1.451   0.196  0.00  0.00    -0.420 N 
ATOM     15  C   LIG    1       -0.221   0.692   0.300  0.00  0.00    +0.300 A 
ATOM     16  C   LIG    1       -1.442   1.270   0.373  0.00  0.00    +0.010 A 
ENDBRANCH   1  11
BRANCH   2  17
ATOM     17  C   LIG    1        6.076  -0.895   0.083  0.00  0.00    +0.270 C 
BRANCH  17  18
ATOM     18  C   LIG    1        5.951  -2.420   0.120  0.00  0.00    +0.100 C 
ATOM     19  C   LIG    1        7.339  -3.042   0.281  0.00  0.00    +0.020 C 
ATOM     20  C   LIG    1        5.319  -2.912  -1.183  0.00  0.00    +0.050 C 
BRANCH  18  21
ATOM     21  N   LIG    1        5.104  -2.813   1.254  0.00  0.00    -0.520 NA
ATOM     22  C   LIG    1        5.632  -2.277   2.517  0.00  0.00    +0.150 C 
ATOM     23  C   LIG    1        4.689  -2.659   3.662  0.00  0.00    +0.230 C 
ATOM     24  O   LIG    1        4.543  -4.082   3.697  0.00  0.00    -0.390 OA
ATOM     25  C   LIG    1        4.031  -4.638   2.483  0.00  0.00    +0.220 C 
ATOM     26  C   LIG    1        4.967  -4.275   1.327  0.00  0.00    +0.150 C 
ENDBRANCH  18  21
ENDBRANCH  17  18
ENDBRANCH   2  17
TORSDOF 4
