REMARK  Name = ZINCrD000000fOAU.0
REMARK                            x       y       z     vdW  Elec       q    Type
REMARK                         _______ _______ _______ _____ _____    ______ ____
ROOT
ATOM      1  C   LIG    1       -6.673   4.721  -1.716  0.00  0.00    +0.510 C 
ATOM      2  N   LIG    1       -5.496   4.119  -1.452  0.00  0.00    -0.730 N 
ATOM      3  H   LIG    1       -4.960   3.763  -2.178  0.00  0.00    +0.400 HD
ATOM      4  O   LIG    1       -7.343   5.166  -0.809  0.00  0.00    -0.540 OA
ENDROOT
BRANCH   1   5
ATOM      5  C   LIG    1       -7.156   4.839  -3.139  0.00  0.00    +0.060 C 
BRANCH   5   6
ATOM      6  C   LIG    1       -8.507   5.557  -3.160  0.00  0.00    +0.180 C 
BRANCH   6  10
ATOM      7  C   LIG    1       -9.966   5.316  -6.574  0.00  0.00    -0.280 A 
ATOM      8  C   LIG    1       -9.297   6.509  -6.603  0.00  0.00    +0.090 A 
ATOM      9  O   LIG    1       -8.732   6.702  -5.409  0.00  0.00    -0.170 OA
ATOM     10  C   LIG    1       -8.990   5.676  -4.583  0.00  0.00    -0.010 A 
ATOM     11  C   LIG    1       -9.217   7.448  -7.779  0.00  0.00    +0.190 C 
ATOM     12  C   LIG    1       -9.751   4.775  -5.222  0.00  0.00    -0.010 A 
BRANCH   7  14
ATOM     13  C   LIG    1      -11.413   3.374  -7.451  0.00  0.00    +0.070 C 
ATOM     14  C   LIG    1      -10.737   4.705  -7.662  0.00  0.00    +0.420 C 
ATOM     15  O   LIG    1      -10.829   5.269  -8.732  0.00  0.00    -0.470 OA
ENDBRANCH   7  14
ENDBRANCH   6  10
ENDBRANCH   5   6
ENDBRANCH   1   5
BRANCH   2  16
ATOM     16  C   LIG    1       -5.026   4.004  -0.070  0.00  0.00    +0.320 C 
BRANCH  16  17
ATOM     17  C   LIG    1       -3.695   3.297  -0.048  0.00  0.00    -0.130 A 
ATOM     18  C   LIG    1       -2.525   4.028  -0.141  0.00  0.00    +0.050 A 
ATOM     19  C   LIG    1       -1.304   3.383  -0.122  0.00  0.00    +0.020 A 
ATOM     20  C   LIG    1       -1.252   2.000  -0.010  0.00  0.00    +0.150 A 
ATOM     21  C   LIG    1       -2.429   1.269   0.078  0.00  0.00    -0.020 A 
ATOM     22  C   LIG    1       -3.647   1.920   0.064  0.00  0.00    +0.050 A 
BRANCH  20  23
ATOM     23  N   LIG    1       -0.016   1.344   0.009  0.00  0.00    -0.670 N 
ATOM     24  H   LIG    1        0.076   0.470  -0.402  0.00  0.00    +0.410 HD
ATOM     25  C   LIG    1        1.045   1.923   0.605  0.00  0.00    +0.540 C 
ATOM     26  O   LIG    1        0.953   3.049   1.046  0.00  0.00    -0.520 OA
BRANCH  25  27
ATOM     27  C   LIG    1        2.346   1.171   0.723  0.00  0.00    -0.070 C 
ATOM     28  C   LIG    1        2.787   0.738   2.123  0.00  0.00    +0.060 C 
ATOM     29  C   LIG    1        3.513   1.882   1.411  0.00  0.00    +0.080 C 
ENDBRANCH  25  27
ENDBRANCH  20  23
ENDBRANCH  16  17
ENDBRANCH   2  16
TORSDOF 8
