REMARK  Name = ZINCpe000027pHc1.0
REMARK                            x       y       z     vdW  Elec       q    Type
REMARK                         _______ _______ _______ _____ _____    ______ ____
ROOT
ATOM      1  O   LIG    1       -1.171   3.952   0.269  0.00  0.00    -0.580 OA
ATOM      2  C   LIG    1       -1.290   3.212   1.226  0.00  0.00    +0.710 C 
ATOM      3  N   LIG    1       -2.006   3.606   2.298  0.00  0.00    -0.630 N 
ATOM      4  C   LIG    1       -2.737   4.882   2.289  0.00  0.00    +0.320 C 
ATOM      5  C   LIG    1       -4.188   4.609   2.717  0.00  0.00    +0.190 C 
ATOM      6  N   LIG    1       -4.188   3.902   4.005  0.00  0.00    -0.480 N 
ATOM      7  C   LIG    1       -3.544   2.587   3.891  0.00  0.00    +0.200 C 
ATOM      8  C   LIG    1       -2.072   2.774   3.509  0.00  0.00    +0.270 C 
ATOM      9  N   LIG    1       -0.704   1.998   1.216  0.00  0.00    -0.740 N 
ATOM     10  H   LIG    1       -0.736   1.438   2.007  0.00  0.00    +0.390 HD
ENDROOT
BRANCH   6  11
ATOM     11  C   LIG    1       -5.479   3.783   4.507  0.00  0.00    +0.310 A 
ATOM     12  C   LIG    1       -6.256   4.922   4.689  0.00  0.00    -0.050 A 
ATOM     13  C   LIG    1       -7.538   4.788   5.190  0.00  0.00    +0.090 A 
ATOM     14  C   LIG    1       -8.003   3.515   5.492  0.00  0.00    -0.060 A 
ATOM     15  C   LIG    1       -7.177   2.428   5.287  0.00  0.00    +0.290 A 
ATOM     16  N   LIG    1       -5.960   2.585   4.803  0.00  0.00    -0.520 NA
ENDBRANCH   6  11
BRANCH   9  17
ATOM     17  C   LIG    1       -0.020   1.525   0.010  0.00  0.00    +0.250 C 
ATOM     18  C   LIG    1        1.415   2.055  -0.003  0.00  0.00    +0.000 C 
ATOM     19  C   LIG    1        2.130   1.561  -1.262  0.00  0.00    +0.040 C 
ATOM     20  C   LIG    1        2.151   0.031  -1.270  0.00  0.00    -0.060 C 
ATOM     21  C   LIG    1        0.716  -0.499  -1.257  0.00  0.00    +0.050 C 
ATOM     22  C   LIG    1        0.001  -0.005   0.002  0.00  0.00    +0.010 C 
BRANCH  20  23
ATOM     23  C   LIG    1        2.865  -0.463  -2.529  0.00  0.00    +0.170 C 
BRANCH  23  24
ATOM     24  O   LIG    1        4.206   0.031  -2.541  0.00  0.00    -0.550 OA
ATOM     25  H   LIG    1        4.720  -0.243  -3.313  0.00  0.00    +0.370 HD
ENDBRANCH  23  24
ENDBRANCH  20  23
BRANCH  20  26
ATOM     26  C   LIG    1        2.892  -0.475  -0.031  0.00  0.00    +0.180 C 
BRANCH  26  27
ATOM     27  O   LIG    1        4.233   0.019  -0.043  0.00  0.00    -0.550 OA
ATOM     28  H   LIG    1        4.763  -0.262   0.715  0.00  0.00    +0.370 HD
ENDBRANCH  26  27
ENDBRANCH  20  26
ENDBRANCH   9  17
TORSDOF 6
