REMARK  Name = ZINCrD000000AkXO.0
REMARK                            x       y       z     vdW  Elec       q    Type
REMARK                         _______ _______ _______ _____ _____    ______ ____
ROOT
ATOM      1  N   LIG    1       -0.013  -0.004  -0.007  0.00  0.00    -0.570 N 
ATOM      2  C   LIG    1       -0.972  -0.766  -0.549  0.00  0.00    +0.710 C 
ATOM      3  N   LIG    1       -0.713  -2.083  -0.423  0.00  0.00    -0.710 N 
ATOM      4  H   LIG    1       -1.263  -2.817  -0.739  0.00  0.00    +0.440 HD
ATOM      5  C   LIG    1        0.564  -2.183   0.283  0.00  0.00    +0.170 C 
ATOM      6  C   LIG    1        1.612  -2.925  -0.556  0.00  0.00    +0.080 C 
ATOM      7  C   LIG    1        1.512  -4.365  -0.004  0.00  0.00    +0.100 C 
ATOM      8  C   LIG    1        0.984  -4.213   1.408  0.00  0.00    -0.070 A 
ATOM      9  C   LIG    1        0.982  -5.107   2.465  0.00  0.00    +0.020 A 
ATOM     10  C   LIG    1        0.432  -4.747   3.680  0.00  0.00    +0.030 A 
ATOM     11  C   LIG    1       -0.120  -3.491   3.842  0.00  0.00    +0.010 A 
ATOM     12  C   LIG    1       -0.119  -2.597   2.789  0.00  0.00    +0.050 A 
ATOM     13  C   LIG    1        0.433  -2.953   1.570  0.00  0.00    -0.110 A 
ATOM     14  O   LIG    1       -1.962  -0.320  -1.093  0.00  0.00    -0.530 OA
ATOM     15  C   LIG    1        0.977  -0.754   0.525  0.00  0.00    +0.540 C 
ATOM     16  O   LIG    1        1.981  -0.362   1.080  0.00  0.00    -0.450 OA
ENDROOT
BRANCH   1  17
ATOM     17  C   LIG    1       -0.031   1.461   0.002  0.00  0.00    +0.370 C 
BRANCH  17  19
ATOM     18  O   LIG    1       -1.163   1.148   2.049  0.00  0.00    -0.500 OA
ATOM     19  C   LIG    1       -0.726   1.947   1.248  0.00  0.00    +0.510 C 
ATOM     20  N   LIG    1       -0.862   3.269   1.472  0.00  0.00    -0.660 N 
ATOM     21  H   LIG    1       -0.444   3.908   0.873  0.00  0.00    +0.420 HD
BRANCH  20  22
ATOM     22  C   LIG    1       -1.607   3.720   2.567  0.00  0.00    +0.170 A 
ATOM     23  C   LIG    1       -2.601   2.918   3.111  0.00  0.00    +0.040 A 
ATOM     24  C   LIG    1       -3.332   3.363   4.196  0.00  0.00    +0.060 A 
ATOM     25  C   LIG    1       -3.082   4.612   4.734  0.00  0.00    +0.030 A 
ATOM     26  C   LIG    1       -2.095   5.417   4.192  0.00  0.00    -0.010 A 
ATOM     27 CL   LIG    1       -1.784   6.984   4.873  0.00  0.00    -0.040 Cl
ATOM     28  C   LIG    1       -1.357   4.975   3.110  0.00  0.00    -0.070 A 
ATOM     29 CL   LIG    1       -0.120   5.985   2.430  0.00  0.00    -0.040 Cl
ENDBRANCH  20  22
ENDBRANCH  17  19
ENDBRANCH   1  17
TORSDOF 3
