REMARK  Name = ZINCrH000004jl0F.0
REMARK                            x       y       z     vdW  Elec       q    Type
REMARK                         _______ _______ _______ _____ _____    ______ ____
ROOT
ATOM      1  C   LIG    1        0.022  -0.514   1.420  0.00  0.00    +0.530 C 
ATOM      2  N   LIG    1        0.043  -1.840   1.659  0.00  0.00    -0.620 N 
ATOM      3  C   LIG    1        0.048  -2.898   0.632  0.00  0.00    +0.240 C 
ATOM      4  C   LIG    1        0.684  -4.126   1.331  0.00  0.00    +0.040 C 
ATOM      5  C   LIG    1        0.111  -3.998   2.767  0.00  0.00    +0.050 C 
ATOM      6  C   LIG    1        0.070  -2.471   2.986  0.00  0.00    +0.260 C 
ATOM      7  O   LIG    1        0.021   0.269   2.346  0.00  0.00    -0.510 OA
ENDROOT
BRANCH   6   8
ATOM      8  C   LIG    1       -1.172  -2.100   3.756  0.00  0.00    -0.080 A 
ATOM      9  C   LIG    1       -2.393  -2.046   3.111  0.00  0.00    +0.020 A 
ATOM     10  C   LIG    1       -3.534  -1.706   3.812  0.00  0.00    -0.040 A 
ATOM     11  C   LIG    1       -3.456  -1.418   5.165  0.00  0.00    +0.100 A 
ATOM     12  C   LIG    1       -2.227  -1.472   5.815  0.00  0.00    +0.100 A 
ATOM     13  C   LIG    1       -1.087  -1.819   5.107  0.00  0.00    -0.030 A 
BRANCH  12  14
ATOM     14  O   LIG    1       -2.145  -1.191   7.143  0.00  0.00    -0.310 OA
ATOM     15  C   LIG    1       -0.851  -1.267   7.744  0.00  0.00    +0.240 C 
ENDBRANCH  12  14
BRANCH  11  16
ATOM     16  O   LIG    1       -4.579  -1.083   5.856  0.00  0.00    -0.310 OA
ATOM     17  C   LIG    1       -5.805  -1.048   5.124  0.00  0.00    +0.230 C 
ENDBRANCH  11  16
ENDBRANCH   6   8
BRANCH   1  18
ATOM     18  C   LIG    1        0.002  -0.004   0.002  0.00  0.00    +0.150 C 
BRANCH  18  23
ATOM     19  C   LIG    1        1.084   2.388   0.004  0.00  0.00    +0.040 A 
ATOM     20  N   LIG    1        0.588   3.592   0.015  0.00  0.00    -0.360 NA
ATOM     21  O   LIG    1       -0.621   3.575   0.026  0.00  0.00    +0.100 OA
ATOM     22  C   LIG    1       -1.097   2.322   0.019  0.00  0.00    -0.010 A 
ATOM     23  C   LIG    1       -0.018   1.503   0.010  0.00  0.00    -0.180 A 
BRANCH  19  25
ATOM     24  C   LIG    1        3.024   1.893  -1.458  0.00  0.00    +0.040 C 
ATOM     25  C   LIG    1        2.543   2.013  -0.010  0.00  0.00    +0.110 C 
ENDBRANCH  19  25
BRANCH  22  26
ATOM     26  C   LIG    1       -2.546   1.907   0.023  0.00  0.00    +0.140 C 
ATOM     27  C   LIG    1       -3.030   1.759   1.466  0.00  0.00    +0.050 C 
ENDBRANCH  22  26
ENDBRANCH  18  23
ENDBRANCH   1  18
TORSDOF 7
