REMARK  Name = ZINCrg00000zVMTe.0
REMARK                            x       y       z     vdW  Elec       q    Type
REMARK                         _______ _______ _______ _____ _____    ______ ____
ROOT
ATOM      1  N   LIG    1        2.391   4.319   0.192  0.00  0.00    -0.470 N 
ATOM      2  C   LIG    1        3.147   4.697   1.261  0.00  0.00    +0.490 A 
ATOM      3  N   LIG    1        4.264   5.225   0.852  0.00  0.00    -0.450 NA
ATOM      4  C   LIG    1        4.296   5.218  -0.502  0.00  0.00    -0.050 A 
ATOM      5  C   LIG    1        5.220   5.645  -1.471  0.00  0.00    +0.390 A 
ATOM      6  N   LIG    1        4.922   5.463  -2.754  0.00  0.00    -0.560 NA
ATOM      7  C   LIG    1        3.781   4.909  -3.119  0.00  0.00    +0.550 A 
ATOM      8  N   LIG    1        2.884   4.499  -2.247  0.00  0.00    -0.520 NA
ATOM      9  C   LIG    1        3.097   4.631  -0.942  0.00  0.00    +0.290 A 
ENDROOT
BRANCH   5  10
ATOM     10  N   LIG    1        6.420   6.225  -1.098  0.00  0.00    -0.410 N 
ATOM     11  C   LIG    1        6.249   7.668  -0.827  0.00  0.00    +0.220 C 
ATOM     12  C   LIG    1        7.550   7.894  -1.578  0.00  0.00    -0.110 C 
ATOM     13  C   LIG    1        7.646   9.151  -2.445  0.00  0.00    +0.280 C 
ATOM     14  N   LIG    1        8.542  10.056  -1.708  0.00  0.00    -0.730 N 
ATOM     15  H   LIG    1        8.630  11.005  -1.888  0.00  0.00    +0.410 HD
ATOM     16  C   LIG    1        9.226   9.399  -0.753  0.00  0.00    +0.520 C 
ATOM     17  O   LIG    1       10.036   9.905  -0.006  0.00  0.00    -0.530 OA
ATOM     18  C   LIG    1        8.835   7.933  -0.747  0.00  0.00    +0.090 C 
ATOM     19  C   LIG    1        7.223   6.589  -2.284  0.00  0.00    +0.240 C 
ENDBRANCH   5  10
BRANCH   1  20
ATOM     20  C   LIG    1        1.070   3.687   0.244  0.00  0.00    +0.290 C 
BRANCH  20  26
ATOM     21  C   LIG    1        0.742  -0.511   1.242  0.00  0.00    +0.020 C 
ATOM     22  C   LIG    1        0.002  -0.004   0.002  0.00  0.00    -0.020 C 
ATOM     23  C   LIG    1        0.801  -0.364  -1.252  0.00  0.00    +0.000 C 
ATOM     24  C   LIG    1        2.183   0.288  -1.181  0.00  0.00    +0.010 C 
ATOM     25  C   LIG    1        2.026   1.808  -1.095  0.00  0.00    -0.000 C 
ATOM     26  C   LIG    1        1.227   2.168   0.159  0.00  0.00    +0.120 C 
ATOM     27  C   LIG    1       -0.155   1.515   0.088  0.00  0.00    +0.050 C 
BRANCH  26  28
ATOM     28  O   LIG    1        1.918   1.694   1.316  0.00  0.00    -0.540 OA
ATOM     29  H   LIG    1        2.804   2.067   1.426  0.00  0.00    +0.360 HD
ENDBRANCH  26  28
ENDBRANCH  20  26
ENDBRANCH   1  20
TORSDOF 4
