REMARK  Name = ZINCqH0000004mR6.0
REMARK                            x       y       z     vdW  Elec       q    Type
REMARK                         _______ _______ _______ _____ _____    ______ ____
ROOT
ATOM      1  N   LIG    1       -0.453   1.393   3.718  0.00  0.00    -0.730 N 
ATOM      2  H   LIG    1       -1.248   1.939   3.817  0.00  0.00    +0.400 HD
ATOM      3  C   LIG    1        0.000   1.080   2.488  0.00  0.00    +0.520 C 
ATOM      4  O   LIG    1        0.994   0.397   2.363  0.00  0.00    -0.530 OA
ENDROOT
BRANCH   1   5
ATOM      5  C   LIG    1        0.256   0.907   4.905  0.00  0.00    +0.290 C 
BRANCH   5   6
ATOM      6  C   LIG    1       -0.701   0.837   6.067  0.00  0.00    -0.080 A 
ATOM      7  C   LIG    1       -1.634   1.840   6.255  0.00  0.00    +0.020 A 
ATOM      8  C   LIG    1       -2.515   1.773   7.319  0.00  0.00    +0.050 A 
ATOM      9  C   LIG    1       -2.455   0.709   8.200  0.00  0.00    -0.090 A 
ATOM     10  C   LIG    1       -1.518  -0.291   8.015  0.00  0.00    +0.060 A 
ATOM     11 BR   LIG    1       -3.656   0.621   9.659  0.00  0.00    -0.050 Br
ATOM     12  C   LIG    1       -0.641  -0.226   6.948  0.00  0.00    +0.040 A 
ENDBRANCH   5   6
BRANCH   5  14
ATOM     13  C   LIG    1        2.434   1.842   4.116  0.00  0.00    +0.020 C 
ATOM     14  C   LIG    1        1.400   1.865   5.243  0.00  0.00    +0.010 C 
ENDBRANCH   5  14
ENDBRANCH   1   5
BRANCH   3  15
ATOM     15  C   LIG    1       -0.729   1.579   1.267  0.00  0.00    +0.060 C 
BRANCH  15  16
ATOM     16  C   LIG    1       -0.013   1.086   0.008  0.00  0.00    +0.140 C 
BRANCH  16  17
ATOM     17  C   LIG    1       -0.742   1.585  -1.213  0.00  0.00    -0.190 A 
ATOM     18  C   LIG    1       -0.348   2.730  -1.827  0.00  0.00    +0.210 A 
ATOM     19  N   LIG    1       -1.022   3.153  -2.930  0.00  0.00    -0.330 N 
ATOM     20  N   LIG    1       -0.880   4.257  -3.780  0.00  0.00    -0.340 NA
ATOM     21  C   LIG    1       -1.821   4.166  -4.689  0.00  0.00    +0.480 A 
ATOM     22  N   LIG    1       -2.548   3.079  -4.471  0.00  0.00    -0.530 NA
ATOM     23  C   LIG    1       -2.086   2.437  -3.403  0.00  0.00    +0.450 A 
ATOM     24  N   LIG    1       -2.470   1.312  -2.788  0.00  0.00    -0.460 NA
ATOM     25  C   LIG    1        0.822   3.519  -1.297  0.00  0.00    +0.160 C 
ATOM     26  C   LIG    1       -1.836   0.876  -1.724  0.00  0.00    +0.240 A 
ATOM     27  C   LIG    1       -2.288  -0.394  -1.050  0.00  0.00    +0.160 C 
ENDBRANCH  16  17
ENDBRANCH  15  16
ENDBRANCH   3  15
TORSDOF 6
