REMARK  Name = ZINCvU0000000AnK.0
REMARK                            x       y       z     vdW  Elec       q    Type
REMARK                         _______ _______ _______ _____ _____    ______ ____
ROOT
ATOM      1  C   LIG    1        0.008   1.381   0.140  0.00  0.00    +0.160 A 
ATOM      2  N   LIG    1        1.270   1.751   0.113  0.00  0.00    -0.280 NA
ATOM      3  N   LIG    1        2.027   0.729  -0.067  0.00  0.00    -0.250 NA
ATOM      4  C   LIG    1        1.297  -0.358  -0.166  0.00  0.00    +0.230 A 
ATOM      5  N   LIG    1       -0.020   0.026  -0.036  0.00  0.00    -0.410 N 
ENDROOT
BRANCH   5   6
ATOM      6  C   LIG    1       -1.152  -0.800  -0.077  0.00  0.00    +0.110 A 
ATOM      7  C   LIG    1       -2.043  -0.707  -1.138  0.00  0.00    +0.070 A 
ATOM      8  C   LIG    1       -3.158  -1.521  -1.177  0.00  0.00    +0.080 A 
ATOM      9  C   LIG    1       -3.388  -2.430  -0.160  0.00  0.00    -0.010 A 
ATOM     10  C   LIG    1       -2.500  -2.526   0.900  0.00  0.00    -0.020 A 
ATOM     11 CL   LIG    1       -2.791  -3.669   2.174  0.00  0.00    -0.020 Cl
ATOM     12 CL   LIG    1       -4.789  -3.453  -0.211  0.00  0.00    -0.020 Cl
ATOM     13  C   LIG    1       -1.381  -1.717   0.940  0.00  0.00    +0.070 A 
ENDBRANCH   5   6
BRANCH   4  14
ATOM     14  C   LIG    1        1.794  -1.734  -0.376  0.00  0.00    +0.020 A 
ATOM     15  C   LIG    1        3.135  -2.059  -0.139  0.00  0.00    +0.020 A 
ATOM     16  C   LIG    1        3.555  -3.356  -0.343  0.00  0.00    +0.280 A 
ATOM     17  N   LIG    1        2.714  -4.282  -0.765  0.00  0.00    -0.470 NA
ATOM     18  C   LIG    1        1.444  -4.018  -1.006  0.00  0.00    +0.270 A 
ATOM     19  C   LIG    1        0.938  -2.748  -0.823  0.00  0.00    -0.030 A 
ENDBRANCH   4  14
BRANCH   1  20
ATOM     20  S   LIG    1       -1.386   2.437   0.355  0.00  0.00    +0.100 S 
BRANCH  20  21
ATOM     21  C   LIG    1       -0.550   4.034   0.519  0.00  0.00    +0.110 C 
BRANCH  21  24
ATOM     22  N   LIG    1       -1.181   6.400   0.865  0.00  0.00    -0.710 N 
ATOM     23  H   LIG    1       -0.237   6.622   0.842  0.00  0.00    +0.400 HD
ATOM     24  C   LIG    1       -1.575   5.120   0.718  0.00  0.00    +0.530 C 
ATOM     25  O   LIG    1       -2.755   4.842   0.747  0.00  0.00    -0.520 OA
BRANCH  22  30
ATOM     26  C   LIG    1        0.278  10.192  -1.225  0.00  0.00    +0.020 C 
ATOM     27  C   LIG    1       -0.888   9.648  -0.397  0.00  0.00    -0.020 C 
ATOM     28  C   LIG    1       -0.370   9.179   0.965  0.00  0.00    +0.010 C 
ATOM     29  C   LIG    1       -1.536   8.634   1.793  0.00  0.00    +0.020 C 
ATOM     30  C   LIG    1       -2.178   7.456   1.058  0.00  0.00    +0.240 C 
ATOM     31  C   LIG    1       -2.695   7.925  -0.303  0.00  0.00    +0.010 C 
ATOM     32  C   LIG    1       -1.530   8.469  -1.132  0.00  0.00    +0.010 C 
ENDBRANCH  22  30
ENDBRANCH  21  24
ENDBRANCH  20  21
ENDBRANCH   1  20
TORSDOF 6
