REMARK  Name = ZINCqH0000036wYF.0
REMARK                            x       y       z     vdW  Elec       q    Type
REMARK                         _______ _______ _______ _____ _____    ______ ____
ROOT
ATOM      1  N   LIG    1       -2.915   2.015   0.936  0.00  0.00    -0.550 N 
ATOM      2  C   LIG    1       -4.357   2.284   0.973  0.00  0.00    +0.320 C 
ATOM      3  C   LIG    1       -5.032   0.897   1.069  0.00  0.00    +0.010 C 
ATOM      4  C   LIG    1       -3.964  -0.018   0.428  0.00  0.00    +0.090 C 
ATOM      5  C   LIG    1       -2.665   0.733   0.621  0.00  0.00    +0.520 C 
ATOM      6  O   LIG    1       -1.559   0.247   0.511  0.00  0.00    -0.500 OA
ENDROOT
BRANCH   3   7
ATOM      7  C   LIG    1       -5.279   0.516   2.506  0.00  0.00    +0.530 C 
ATOM      8  N   LIG    1       -5.832  -0.677   2.801  0.00  0.00    -0.550 N 
ATOM      9  C   LIG    1       -6.181  -1.103   4.087  0.00  0.00    +0.140 A 
ATOM     10  C   LIG    1       -6.050  -0.436   5.306  0.00  0.00    +0.010 A 
ATOM     11  C   LIG    1       -6.461  -1.038   6.476  0.00  0.00    +0.040 A 
ATOM     12  C   LIG    1       -7.006  -2.309   6.450  0.00  0.00    -0.010 A 
ATOM     13  C   LIG    1       -7.148  -2.972   5.245  0.00  0.00    +0.050 A 
ATOM     14  C   LIG    1       -6.733  -2.374   4.071  0.00  0.00    -0.130 A 
ATOM     15  C   LIG    1       -6.757  -2.871   2.643  0.00  0.00    +0.110 C 
ATOM     16  C   LIG    1       -6.152  -1.720   1.823  0.00  0.00    +0.220 C 
ATOM     17  C   LIG    1       -7.168  -1.199   0.804  0.00  0.00    +0.040 C 
ATOM     18  O   LIG    1       -4.979   1.282   3.397  0.00  0.00    -0.500 OA
ENDBRANCH   3   7
BRANCH   1  22
ATOM     19  C   LIG    1        0.031   4.871   1.687  0.00  0.00    -0.110 A 
ATOM     20  C   LIG    1        0.380   3.533   1.547  0.00  0.00    +0.060 A 
ATOM     21  C   LIG    1       -0.596   2.588   1.302  0.00  0.00    +0.030 A 
ATOM     22  C   LIG    1       -1.925   2.975   1.190  0.00  0.00    +0.160 A 
ATOM     23  C   LIG    1       -2.275   4.311   1.335  0.00  0.00    +0.000 A 
ATOM     24  C   LIG    1       -1.299   5.257   1.580  0.00  0.00    +0.020 A 
BRANCH  19  26
ATOM     25  C   LIG    1        0.331   7.623   2.097  0.00  0.00    +0.130 C 
ATOM     26  S   LIG    1        1.276   6.078   2.000  0.00  0.00    -0.120 S 
ENDBRANCH  19  26
ENDBRANCH   1  22
TORSDOF 3
