REMARK  Name = ZINCkj00000y7KTo.0
REMARK                            x       y       z     vdW  Elec       q    Type
REMARK                         _______ _______ _______ _____ _____    ______ ____
ROOT
ATOM      1  N   LIG    1        0.330   0.155  -5.100  0.00  0.00    -0.490 NA
ATOM      2  C   LIG    1        0.592   0.234  -6.561  0.00  0.00    +0.200 C 
ATOM      3  C   LIG    1       -0.560   1.098  -7.116  0.00  0.00    +0.210 C 
ATOM      4  C   LIG    1       -1.042   1.942  -5.918  0.00  0.00    +0.030 C 
ATOM      5  F   LIG    1       -1.597   0.285  -7.585  0.00  0.00    -0.190 F 
ATOM      6  C   LIG    1       -0.140   1.518  -4.740  0.00  0.00    +0.130 C 
ENDROOT
BRANCH   1   7
ATOM      7  C   LIG    1        1.554  -0.192  -4.364  0.00  0.00    +0.320 C 
BRANCH   7  11
ATOM      8  C   LIG    1        1.546  -5.120  -3.480  0.00  0.00    +0.250 C 
ATOM      9  C   LIG    1        1.783  -3.757  -4.075  0.00  0.00    +0.200 A 
ATOM     10  N   LIG    1        1.341  -2.613  -3.610  0.00  0.00    -0.480 NA
ATOM     11  C   LIG    1        1.794  -1.676  -4.461  0.00  0.00    +0.170 A 
ATOM     12  N   LIG    1        2.483  -2.285  -5.380  0.00  0.00    -0.370 NA
ATOM     13  O   LIG    1        2.489  -3.481  -5.176  0.00  0.00    +0.080 OA
ENDBRANCH   7  11
ENDBRANCH   1   7
BRANCH   6  14
ATOM     14  C   LIG    1       -0.944   1.478  -3.439  0.00  0.00    +0.290 C 
BRANCH  14  15
ATOM     15  N   LIG    1       -1.391   2.835  -3.097  0.00  0.00    -0.500 N 
ATOM     16  H   LIG    1       -0.593   3.452  -3.060  0.00  0.00    +0.430 HD
ATOM     17  H   LIG    1       -2.037   3.163  -3.799  0.00  0.00    +0.430 HD
BRANCH  15  18
ATOM     18  C   LIG    1       -2.057   2.816  -1.788  0.00  0.00    +0.180 C 
ATOM     19  C   LIG    1       -2.413   4.253  -1.370  0.00  0.00    +0.070 C 
ATOM     20  C   LIG    1       -3.388   4.145  -0.168  0.00  0.00    +0.160 C 
ATOM     21  S   LIG    1       -4.496   2.778  -0.689  0.00  0.00    -0.210 S 
ATOM     22  C   LIG    1       -3.353   1.985  -1.879  0.00  0.00    +0.120 C 
ENDBRANCH  15  18
ENDBRANCH  14  15
ENDBRANCH   6  14
TORSDOF 5
