REMARK  Name = ZINCrH000004rzgZ.0
REMARK                            x       y       z     vdW  Elec       q    Type
REMARK                         _______ _______ _______ _____ _____    ______ ____
ROOT
ATOM      1  C   LIG    1       -1.131   1.622   2.247  0.00  0.00    +0.200 C 
ATOM      2  C   LIG    1        0.299   1.263   2.666  0.00  0.00    +0.280 C 
ATOM      3  N   LIG    1        0.496   1.695   4.059  0.00  0.00    -0.600 N 
ATOM      4  C   LIG    1       -0.505   1.288   5.058  0.00  0.00    +0.250 C 
ATOM      5  C   LIG    1       -1.896   1.646   4.522  0.00  0.00    +0.220 C 
ATOM      6  C   LIG    1        1.562   2.441   4.410  0.00  0.00    +0.600 C 
ATOM      7  O   LIG    1        2.387   2.755   3.572  0.00  0.00    -0.530 OA
ATOM      8  O   LIG    1       -2.050   1.099   3.210  0.00  0.00    -0.370 OA
ENDROOT
BRANCH   1  13
ATOM      9  C   LIG    1       -2.256  -0.672  -2.937  0.00  0.00    +0.090 C 
ATOM     10  C   LIG    1       -1.963  -0.073  -1.585  0.00  0.00    -0.080 A 
ATOM     11  C   LIG    1       -2.328  -0.750  -0.436  0.00  0.00    -0.010 A 
ATOM     12  C   LIG    1       -2.058  -0.201   0.804  0.00  0.00    +0.050 A 
ATOM     13  C   LIG    1       -1.425   1.024   0.895  0.00  0.00    -0.100 A 
ATOM     14  C   LIG    1       -1.060   1.700  -0.254  0.00  0.00    -0.070 A 
ATOM     15  C   LIG    1       -0.369   3.036  -0.155  0.00  0.00    +0.100 C 
ATOM     16  C   LIG    1       -1.333   1.154  -1.494  0.00  0.00    +0.000 A 
ENDBRANCH   1  13
BRANCH   6  17
ATOM     17  C   LIG    1        1.728   2.875   5.801  0.00  0.00    -0.080 A 
ATOM     18  C   LIG    1        1.238   2.256   6.917  0.00  0.00    +0.220 A 
ATOM     19  N   LIG    1        1.612   2.971   7.978  0.00  0.00    -0.490 NA
ATOM     20  C   LIG    1        2.312   4.007   7.589  0.00  0.00    +0.440 A 
ATOM     21  N   LIG    1        2.417   3.989   6.246  0.00  0.00    -0.380 N 
BRANCH  21  22
ATOM     22  C   LIG    1        3.094   4.923   5.451  0.00  0.00    +0.090 A 
ATOM     23  C   LIG    1        4.119   4.509   4.611  0.00  0.00    +0.070 A 
ATOM     24  C   LIG    1        4.781   5.432   3.825  0.00  0.00    +0.020 A 
ATOM     25  C   LIG    1        4.431   6.769   3.882  0.00  0.00    +0.030 A 
ATOM     26  C   LIG    1        3.414   7.185   4.721  0.00  0.00    +0.020 A 
ATOM     27  C   LIG    1        2.745   6.266   5.506  0.00  0.00    +0.020 A 
ENDBRANCH  21  22
ENDBRANCH   6  17
TORSDOF 3
