REMARK  Name = ZINCvU0000000DNT.0
REMARK                            x       y       z     vdW  Elec       q    Type
REMARK                         _______ _______ _______ _____ _____    ______ ____
ROOT
ATOM      1  O   LIG    1       -0.564  -2.546  -0.366  0.00  0.00    -0.500 OA
ATOM      2  C   LIG    1       -1.542  -1.824  -0.346  0.00  0.00    +0.520 C 
ENDROOT
BRANCH   2   3
ATOM      3  C   LIG    1       -2.890  -2.412  -0.242  0.00  0.00    -0.220 A 
ATOM      4  C   LIG    1       -3.057  -3.803  -0.164  0.00  0.00    +0.180 A 
ATOM      5  C   LIG    1       -4.338  -4.304  -0.067  0.00  0.00    -0.030 A 
ATOM      6  C   LIG    1       -5.415  -3.423  -0.050  0.00  0.00    +0.350 A 
ATOM      7  N   LIG    1       -5.225  -2.114  -0.126  0.00  0.00    -0.530 NA
ATOM      8  C   LIG    1       -4.020  -1.592  -0.213  0.00  0.00    +0.390 A 
BRANCH   6   9
ATOM      9  O   LIG    1       -6.676  -3.910   0.045  0.00  0.00    -0.230 OA
BRANCH   9  10
ATOM     10  C   LIG    1       -7.696  -3.021   0.164  0.00  0.00    +0.110 A 
ATOM     11  C   LIG    1       -8.169  -2.670   1.420  0.00  0.00    +0.050 A 
ATOM     12  C   LIG    1       -9.204  -1.762   1.539  0.00  0.00    +0.060 A 
ATOM     13  C   LIG    1       -9.775  -1.210   0.408  0.00  0.00    +0.060 A 
ATOM     14  C   LIG    1       -9.310  -1.561  -0.847  0.00  0.00    -0.020 A 
ATOM     15 CL   LIG    1      -10.030  -0.866  -2.265  0.00  0.00    -0.040 Cl
ATOM     16  C   LIG    1       -8.271  -2.466  -0.972  0.00  0.00    -0.030 A 
ATOM     17 CL   LIG    1       -7.687  -2.907  -2.546  0.00  0.00    -0.030 Cl
ENDBRANCH   9  10
ENDBRANCH   6   9
ENDBRANCH   2   3
BRANCH   2  18
ATOM     18  O   LIG    1       -1.393  -0.487  -0.420  0.00  0.00    -0.350 OA
BRANCH  18  19
ATOM     19  C   LIG    1       -0.037   0.021  -0.522  0.00  0.00    +0.230 C 
BRANCH  19  20
ATOM     20  C   LIG    1       -0.069   1.549  -0.595  0.00  0.00    +0.060 C 
BRANCH  20  21
ATOM     21  C   LIG    1        1.361   2.085  -0.702  0.00  0.00    +0.200 C 
BRANCH  21  22
ATOM     22  O   LIG    1        1.331   3.512  -0.770  0.00  0.00    -0.310 OA
BRANCH  22  23
ATOM     23  C   LIG    1        2.527   4.150  -0.869  0.00  0.00    +0.150 A 
ATOM     24  C   LIG    1        3.704   3.417  -0.899  0.00  0.00    -0.060 A 
ATOM     25  C   LIG    1        4.921   4.064  -0.999  0.00  0.00    +0.080 A 
ATOM     26  C   LIG    1        4.970   5.446  -1.071  0.00  0.00    -0.010 A 
ATOM     27  O   LIG    1        6.022   6.310  -1.173  0.00  0.00    -0.310 OA
ATOM     28  C   LIG    1        5.501   7.598  -0.793  0.00  0.00    +0.430 C 
ATOM     29  O   LIG    1        4.102   7.511  -1.124  0.00  0.00    -0.310 OA
ATOM     30  C   LIG    1        3.789   6.185  -1.041  0.00  0.00    +0.080 A 
ATOM     31  C   LIG    1        2.570   5.534  -0.945  0.00  0.00    +0.020 A 
ENDBRANCH  22  23
ENDBRANCH  21  22
ENDBRANCH  20  21
ENDBRANCH  19  20
ENDBRANCH  18  19
ENDBRANCH   2  18
TORSDOF 9
