REMARK  Name = ZINCpe000000WrRj.0
REMARK                            x       y       z     vdW  Elec       q    Type
REMARK                         _______ _______ _______ _____ _____    ______ ____
ROOT
ATOM      1  N   LIG    1        1.586  -0.317   6.689  0.00  0.00    -0.670 N 
ATOM      2  H   LIG    1        2.080  -1.067   6.324  0.00  0.00    +0.420 HD
ATOM      3  C   LIG    1        0.879   0.486   5.870  0.00  0.00    +0.530 C 
ATOM      4  O   LIG    1        0.184   1.366   6.335  0.00  0.00    -0.510 OA
ENDROOT
BRANCH   1   8
ATOM      5  C   LIG    1        1.650   0.422  10.794  0.00  0.00    +0.090 A 
ATOM      6  C   LIG    1        1.713  -0.880  10.323  0.00  0.00    -0.020 A 
ATOM      7  C   LIG    1        1.692  -1.125   8.963  0.00  0.00    +0.030 A 
ATOM      8  C   LIG    1        1.608  -0.068   8.068  0.00  0.00    +0.130 A 
ATOM      9  C   LIG    1        1.551   1.238   8.539  0.00  0.00    +0.030 A 
ATOM     10  C   LIG    1        1.565   1.482   9.899  0.00  0.00    +0.090 A 
ATOM     11  F   LIG    1        1.503   2.751  10.358  0.00  0.00    -0.130 F 
BRANCH   5  13
ATOM     12  C   LIG    1        1.759  -0.474  12.995  0.00  0.00    +0.250 C 
ATOM     13  O   LIG    1        1.671   0.663  12.133  0.00  0.00    -0.310 OA
ENDBRANCH   5  13
ENDBRANCH   1   8
BRANCH   3  14
ATOM     14  C   LIG    1        0.950   0.292   4.378  0.00  0.00    +0.010 C 
ATOM     15  C   LIG    1        0.293  -1.045   3.962  0.00  0.00    +0.080 C 
ATOM     16  C   LIG    1       -0.398  -0.730   2.654  0.00  0.00    +0.520 C 
ATOM     17  N   LIG    1       -0.504   0.601   2.496  0.00  0.00    -0.610 N 
ATOM     18  O   LIG    1       -0.796  -1.557   1.861  0.00  0.00    -0.510 OA
ATOM     19  C   LIG    1        0.062   1.320   3.643  0.00  0.00    +0.300 C 
BRANCH  17  20
ATOM     20  C   LIG    1       -1.112   1.249   1.331  0.00  0.00    +0.280 C 
ATOM     21  C   LIG    1       -0.348   0.862   0.053  0.00  0.00    +0.070 C 
ATOM     22  C   LIG    1       -1.196   1.267  -1.169  0.00  0.00    -0.310 C 
ATOM     23  S   LIG    1       -2.929   1.205  -0.587  0.00  0.00    +2.400 S 
ATOM     24  O   LIG    1       -3.602   0.128  -1.225  0.00  0.00    -0.930 OA
ATOM     25  O   LIG    1       -3.486   2.512  -0.625  0.00  0.00    -0.930 OA
ATOM     26  C   LIG    1       -2.566   0.750   1.151  0.00  0.00    -0.330 C 
ENDBRANCH  17  20
ENDBRANCH   3  14
TORSDOF 4
