REMARK  Name = ZINCpk00000y6uoG.1
REMARK                            x       y       z     vdW  Elec       q    Type
REMARK                         _______ _______ _______ _____ _____    ______ ____
ROOT
ATOM      1  C   LIG    1       -2.650   1.712  -2.663  0.00  0.00    +0.240 C 
ATOM      2  C   LIG    1       -3.322   0.699  -3.628  0.00  0.00    +0.050 C 
ATOM      3  C   LIG    1       -3.949   1.611  -4.704  0.00  0.00    +0.270 C 
ATOM      4  N   LIG    1       -3.223   2.889  -4.671  0.00  0.00    -0.610 N 
ATOM      5  C   LIG    1       -3.482   3.959  -5.447  0.00  0.00    +0.570 C 
ATOM      6  O   LIG    1       -2.883   5.002  -5.265  0.00  0.00    -0.520 OA
ATOM      7  C   LIG    1       -2.164   2.804  -3.649  0.00  0.00    +0.260 C 
ENDROOT
BRANCH   5   8
ATOM      8  C   LIG    1       -4.493   3.867  -6.520  0.00  0.00    -0.120 A 
ATOM      9  C   LIG    1       -5.285   2.721  -6.637  0.00  0.00    +0.050 A 
ATOM     10  C   LIG    1       -6.231   2.638  -7.633  0.00  0.00    +0.020 A 
ATOM     11  C   LIG    1       -6.391   3.693  -8.534  0.00  0.00    +0.010 A 
ATOM     12  C   LIG    1       -5.596   4.835  -8.422  0.00  0.00    +0.070 A 
ATOM     13  C   LIG    1       -4.654   4.922  -7.422  0.00  0.00    +0.100 A 
BRANCH  11  14
ATOM     14  C   LIG    1       -7.404   3.600  -9.608  0.00  0.00    +0.210 A 
ATOM     15  N   LIG    1       -7.666   4.514 -10.517  0.00  0.00    -0.270 NA
ATOM     16  N   LIG    1       -8.602   4.094 -11.291  0.00  0.00    -0.290 NA
ATOM     17  C   LIG    1       -8.993   2.904 -10.916  0.00  0.00    +0.400 A 
ATOM     18  N   LIG    1       -8.251   2.550  -9.841  0.00  0.00    -0.580 N 
ATOM     19  H   LIG    1       -8.307   1.723  -9.338  0.00  0.00    +0.430 HD
ENDBRANCH  11  14
ENDBRANCH   5   8
BRANCH   1  21
ATOM     20  C   LIG    1       -1.045   1.658  -0.831  0.00  0.00    +0.550 C 
ATOM     21  N   LIG    1       -1.521   1.098  -1.961  0.00  0.00    -0.720 N 
ATOM     22  H   LIG    1       -1.115   0.288  -2.309  0.00  0.00    +0.400 HD
ATOM     23  O   LIG    1       -1.552   2.671  -0.396  0.00  0.00    -0.520 OA
BRANCH  20  27
ATOM     24  C   LIG    1       -0.108   2.985   1.611  0.00  0.00    +0.070 C 
ATOM     25  C   LIG    1        0.613   1.712   1.166  0.00  0.00    -0.010 C 
ATOM     26  C   LIG    1        1.448   1.782  -0.114  0.00  0.00    +0.060 C 
ATOM     27  C   LIG    1        0.117   1.027  -0.109  0.00  0.00    -0.080 C 
ENDBRANCH  20  27
ENDBRANCH   1  21
TORSDOF 4
