REMARK  Name = ZINCtV00000L6kAM.0
REMARK                            x       y       z     vdW  Elec       q    Type
REMARK                         _______ _______ _______ _____ _____    ______ ____
ROOT
ATOM      1  O   LIG    1       -0.979  -2.185   0.101  0.00  0.00    -0.550 OA
ATOM      2  C   LIG    1        0.086  -2.773   0.087  0.00  0.00    +0.720 C 
ATOM      3  N   LIG    1        0.115  -4.117   0.181  0.00  0.00    -0.620 N 
ATOM      4  C   LIG    1        1.324  -4.974   0.179  0.00  0.00    +0.320 C 
ATOM      5  C   LIG    1        0.837  -6.449   0.177  0.00  0.00    +0.090 C 
ATOM      6  C   LIG    1       -0.582  -6.310  -0.397  0.00  0.00    -0.010 C 
ATOM      7  C   LIG    1       -1.560  -7.393   0.025  0.00  0.00    +0.030 C 
ATOM      8  C   LIG    1       -2.942  -7.008  -0.522  0.00  0.00    +0.010 C 
ATOM      9  C   LIG    1       -3.386  -5.637  -0.019  0.00  0.00    +0.010 C 
ATOM     10  C   LIG    1       -2.335  -4.559  -0.330  0.00  0.00    +0.030 C 
ATOM     11  C   LIG    1       -1.034  -4.999   0.308  0.00  0.00    +0.230 C 
ATOM     12  N   LIG    1        1.236  -2.080  -0.021  0.00  0.00    -0.690 N 
ATOM     13  H   LIG    1        2.081  -2.551  -0.096  0.00  0.00    +0.410 HD
ENDROOT
BRANCH   4  14
ATOM     14  C   LIG    1        2.144  -4.702  -1.055  0.00  0.00    +0.260 A 
ATOM     15  N   LIG    1        3.200  -5.374  -1.411  0.00  0.00    -0.470 NA
ATOM     16  C   LIG    1        3.695  -4.867  -2.570  0.00  0.00    +0.050 A 
ATOM     17  C   LIG    1        4.785  -5.197  -3.378  0.00  0.00    +0.070 A 
ATOM     18  C   LIG    1        5.031  -4.480  -4.516  0.00  0.00    +0.010 A 
ATOM     19  C   LIG    1        4.207  -3.425  -4.879  0.00  0.00    +0.040 A 
ATOM     20  C   LIG    1        3.126  -3.081  -4.096  0.00  0.00    +0.010 A 
ATOM     21  C   LIG    1        2.860  -3.797  -2.938  0.00  0.00    +0.050 A 
ATOM     22  N   LIG    1        1.885  -3.722  -1.963  0.00  0.00    -0.600 N 
ATOM     23  H   LIG    1        1.153  -3.087  -1.930  0.00  0.00    +0.420 HD
ENDBRANCH   4  14
BRANCH  12  24
ATOM     24  C   LIG    1        1.213  -0.680  -0.027  0.00  0.00    +0.180 A 
ATOM     25  C   LIG    1        0.156  -0.005  -0.622  0.00  0.00    +0.060 A 
ATOM     26  C   LIG    1        0.136   1.378  -0.626  0.00  0.00    -0.010 A 
ATOM     27  C   LIG    1        1.168   2.088  -0.038  0.00  0.00    +0.040 A 
ATOM     28  C   LIG    1        2.222   1.418   0.555  0.00  0.00    +0.070 A 
ATOM     29 CL   LIG    1       -1.181   2.224  -1.376  0.00  0.00    -0.050 Cl
ATOM     30  C   LIG    1        2.248   0.036   0.563  0.00  0.00    -0.060 A 
ATOM     31 CL   LIG    1        3.572  -0.804   1.308  0.00  0.00    -0.050 Cl
ENDBRANCH  12  24
TORSDOF 2
