REMARK  Name = ZINCpe000000ZhfF.0
REMARK                            x       y       z     vdW  Elec       q    Type
REMARK                         _______ _______ _______ _____ _____    ______ ____
ROOT
ATOM      1  N   LIG    1       -1.610   2.895  -1.297  0.00  0.00    -0.530 N 
ATOM      2  H   LIG    1       -2.177   2.931  -0.511  0.00  0.00    +0.420 HD
ATOM      3  C   LIG    1       -0.443   2.222  -1.257  0.00  0.00    +0.540 C 
ATOM      4  O   LIG    1        0.265   2.177  -2.240  0.00  0.00    -0.510 OA
ENDROOT
BRANCH   3   5
ATOM      5  C   LIG    1       -0.019   1.525   0.010  0.00  0.00    -0.010 C 
ATOM      6  C   LIG    1        0.002  -0.004   0.002  0.00  0.00    +0.040 C 
ATOM      7  C   LIG    1       -0.105  -0.730  -1.317  0.00  0.00    -0.090 A 
ATOM      8  C   LIG    1       -1.107  -1.566  -1.790  0.00  0.00    +0.050 A 
ATOM      9  C   LIG    1       -1.006  -2.135  -3.044  0.00  0.00    +0.010 A 
ATOM     10  C   LIG    1        0.098  -1.872  -3.833  0.00  0.00    +0.060 A 
ATOM     11  C   LIG    1        1.097  -1.040  -3.364  0.00  0.00    -0.080 A 
ATOM     12 BR   LIG    1        2.607  -0.681  -4.443  0.00  0.00    -0.050 Br
ATOM     13  C   LIG    1        0.996  -0.467  -2.103  0.00  0.00    -0.030 A 
ATOM     14  C   LIG    1        1.946   0.462  -1.387  0.00  0.00    +0.140 C 
ATOM     15  C   LIG    1        1.319   0.782  -0.006  0.00  0.00    +0.030 C 
ENDBRANCH   3   5
BRANCH   1  20
ATOM     16  O   LIG    1       -3.514   4.778  -3.538  0.00  0.00    -0.560 OA
ATOM     17  C   LIG    1       -3.172   4.216  -2.515  0.00  0.00    +0.710 C 
ATOM     18  N   LIG    1       -3.959   4.266  -1.423  0.00  0.00    -0.730 N 
ATOM     19  H   LIG    1       -3.686   3.818  -0.607  0.00  0.00    +0.400 HD
ATOM     20  N   LIG    1       -2.005   3.543  -2.475  0.00  0.00    -0.530 N 
ATOM     21  H   LIG    1       -1.438   3.507  -3.261  0.00  0.00    +0.450 HD
BRANCH  18  22
ATOM     22  C   LIG    1       -5.227   4.998  -1.467  0.00  0.00    +0.290 C 
ATOM     23  C   LIG    1       -4.994   6.479  -1.120  0.00  0.00    +0.060 C 
ATOM     24  C   LIG    1       -6.357   7.141  -0.839  0.00  0.00    -0.310 C 
ATOM     25  S   LIG    1       -7.428   5.789  -0.230  0.00  0.00    +2.400 S 
ATOM     26  O   LIG    1       -7.716   5.996   1.147  0.00  0.00    -0.930 OA
ATOM     27  O   LIG    1       -8.489   5.577  -1.150  0.00  0.00    -0.930 OA
ATOM     28  C   LIG    1       -6.200   4.439  -0.397  0.00  0.00    -0.320 C 
ENDBRANCH  18  22
ENDBRANCH   1  20
TORSDOF 3
