REMARK  Name = ZINCvU0000000D3h.0
REMARK                            x       y       z     vdW  Elec       q    Type
REMARK                         _______ _______ _______ _____ _____    ______ ____
ROOT
ATOM      1  C   LIG    1       -3.038  -3.253   1.109  0.00  0.00    +0.290 A 
ATOM      2  N   LIG    1       -4.149  -3.828   0.753  0.00  0.00    -0.470 NA
ATOM      3  C   LIG    1       -4.233  -3.859  -0.602  0.00  0.00    +0.050 A 
ATOM      4  C   LIG    1       -5.186  -4.352  -1.497  0.00  0.00    +0.070 A 
ATOM      5  C   LIG    1       -4.981  -4.232  -2.843  0.00  0.00    +0.000 A 
ATOM      6  C   LIG    1       -3.835  -3.623  -3.333  0.00  0.00    +0.030 A 
ATOM      7  C   LIG    1       -2.881  -3.129  -2.468  0.00  0.00    +0.010 A 
ATOM      8  C   LIG    1       -3.072  -3.243  -1.098  0.00  0.00    +0.050 A 
ATOM      9  N   LIG    1       -2.337  -2.867   0.009  0.00  0.00    -0.480 N 
ENDROOT
BRANCH   1  13
ATOM     10  O   LIG    1       -4.099  -2.548   5.739  0.00  0.00    -0.510 OA
ATOM     11  C   LIG    1       -3.606  -2.993   4.724  0.00  0.00    +0.530 C 
ATOM     12  C   LIG    1       -3.698  -2.345   3.361  0.00  0.00    +0.100 C 
ATOM     13  C   LIG    1       -2.593  -3.042   2.534  0.00  0.00    +0.090 C 
ATOM     14  C   LIG    1       -2.450  -4.390   3.274  0.00  0.00    +0.300 C 
ATOM     15  N   LIG    1       -2.897  -4.133   4.647  0.00  0.00    -0.580 N 
BRANCH  15  16
ATOM     16  C   LIG    1       -2.622  -4.966   5.737  0.00  0.00    +0.170 A 
ATOM     17  C   LIG    1       -1.475  -4.767   6.494  0.00  0.00    +0.030 A 
ATOM     18  C   LIG    1       -1.206  -5.591   7.569  0.00  0.00    +0.040 A 
ATOM     19  C   LIG    1       -2.077  -6.615   7.893  0.00  0.00    +0.030 A 
ATOM     20  C   LIG    1       -3.221  -6.817   7.142  0.00  0.00    +0.050 A 
ATOM     21  C   LIG    1       -3.499  -5.992   6.069  0.00  0.00    -0.090 A 
ATOM     22 BR   LIG    1       -5.067  -6.264   5.047  0.00  0.00    -0.030 Br
ENDBRANCH  15  16
ENDBRANCH   1  13
BRANCH   9  23
ATOM     23  C   LIG    1       -1.041  -2.184   0.000  0.00  0.00    +0.330 C 
BRANCH  23  24
ATOM     24  C   LIG    1       -1.262  -0.670   0.011  0.00  0.00    +0.180 C 
BRANCH  24  25
ATOM     25  O   LIG    1        0.002  -0.004   0.002  0.00  0.00    -0.310 OA
BRANCH  25  26
ATOM     26  C   LIG    1       -0.016   1.355   0.009  0.00  0.00    +0.130 A 
ATOM     27  C   LIG    1       -1.226   2.033   0.019  0.00  0.00    -0.080 A 
ATOM     28  C   LIG    1       -1.242   3.414   0.031  0.00  0.00    +0.050 A 
ATOM     29  C   LIG    1       -0.054   4.121   0.024  0.00  0.00    -0.020 A 
ATOM     30  C   LIG    1        1.153   3.447   0.009  0.00  0.00    +0.050 A 
ATOM     31  C   LIG    1        1.175   2.066   0.002  0.00  0.00    -0.020 A 
ENDBRANCH  25  26
ENDBRANCH  24  25
ENDBRANCH  23  24
ENDBRANCH   9  23
TORSDOF 6
