REMARK  Name = ZINCkj000018RCJ8.0
REMARK                            x       y       z     vdW  Elec       q    Type
REMARK                         _______ _______ _______ _____ _____    ______ ____
ROOT
ATOM      1  C   LIG    1       -0.914   1.398  -3.698  0.00  0.00    -0.070 A 
ATOM      2  C   LIG    1       -0.452   2.032  -4.802  0.00  0.00    +0.190 A 
ATOM      3  N   LIG    1       -1.525   2.183  -5.626  0.00  0.00    -0.210 N 
ATOM      4  N   LIG    1       -2.554   1.676  -5.040  0.00  0.00    -0.030 NA
ATOM      5  N   LIG    1       -2.223   1.201  -3.892  0.00  0.00    -0.240 NA
ENDROOT
BRANCH   3   6
ATOM      6  C   LIG    1       -1.513   2.789  -6.892  0.00  0.00    +0.280 A 
ATOM      7  N   LIG    1       -0.467   3.310  -7.487  0.00  0.00    -0.250 NA
ATOM      8  N   LIG    1       -0.874   3.807  -8.732  0.00  0.00    -0.410 N 
ATOM      9  C   LIG    1       -2.198   3.576  -8.861  0.00  0.00    +0.310 A 
ATOM     10  C   LIG    1       -2.620   2.949  -7.740  0.00  0.00    -0.050 A 
BRANCH   8  11
ATOM     11  C   LIG    1       -0.015   4.467  -9.718  0.00  0.00    +0.680 C 
ATOM     12  F   LIG    1       -0.511   4.226 -11.004  0.00  0.00    -0.170 F 
ATOM     13  F   LIG    1        1.285   3.961  -9.617  0.00  0.00    -0.170 F 
ENDBRANCH   8  11
ENDBRANCH   3   6
BRANCH   1  14
ATOM     14  C   LIG    1       -0.111   0.998  -2.487  0.00  0.00    +0.220 C 
BRANCH  14  15
ATOM     15  C   LIG    1       -0.753   1.593  -1.232  0.00  0.00    +0.190 C 
BRANCH  15  16
ATOM     16  N   LIG    1       -0.669   3.058  -1.286  0.00  0.00    -0.640 N 
ATOM     17  H   LIG    1       -1.157   3.393  -2.104  0.00  0.00    +0.440 HD
ATOM     18  H   LIG    1        0.299   3.339  -1.335  0.00  0.00    +0.440 HD
ATOM     19  H   LIG    1       -1.092   3.450  -0.458  0.00  0.00    +0.430 HD
ENDBRANCH  15  16
BRANCH  15  20
ATOM     20  C   LIG    1       -0.013   1.086   0.008  0.00  0.00    +0.070 C 
BRANCH  20  21
ATOM     21  C   LIG    1       -0.729   1.579   1.267  0.00  0.00    +0.360 C 
ATOM     22  F   LIG    1        0.009   1.213   2.397  0.00  0.00    -0.180 F 
ATOM     23  F   LIG    1       -2.002   1.004   1.335  0.00  0.00    -0.190 F 
ENDBRANCH  20  21
ENDBRANCH  15  20
ENDBRANCH  14  15
ENDBRANCH   1  14
TORSDOF 7
