REMARK  Name = ZINCqH00000368bC.0
REMARK                            x       y       z     vdW  Elec       q    Type
REMARK                         _______ _______ _______ _____ _____    ______ ____
ROOT
ATOM      1  C   LIG    1       -0.150   5.687  -0.180  0.00  0.00    +0.270 C 
ATOM      2  C   LIG    1       -1.663   5.988  -0.231  0.00  0.00    +0.050 C 
ATOM      3  C   LIG    1       -2.288   4.727   0.422  0.00  0.00    +0.040 C 
ATOM      4  C   LIG    1       -1.338   3.612  -0.081  0.00  0.00    +0.240 C 
ATOM      5  N   LIG    1        0.001   4.228  -0.078  0.00  0.00    -0.610 N 
ATOM      6  C   LIG    1        1.171   3.564   0.009  0.00  0.00    +0.570 C 
ATOM      7  O   LIG    1        2.214   4.181   0.109  0.00  0.00    -0.510 OA
ENDROOT
BRANCH   6   8
ATOM      8  C   LIG    1        1.186   2.087  -0.015  0.00  0.00    -0.140 A 
ATOM      9  C   LIG    1        0.140   1.385  -0.619  0.00  0.00    +0.120 A 
ATOM     10  C   LIG    1        0.160   0.007  -0.639  0.00  0.00    +0.020 A 
ATOM     11  C   LIG    1        1.214  -0.682  -0.063  0.00  0.00    +0.070 A 
ATOM     12  C   LIG    1        2.254   0.008   0.538  0.00  0.00    -0.660 A 
ATOM     13 CL   LIG    1        1.232  -2.418  -0.093  0.00  0.00    -0.030 Cl
ATOM     14  C   LIG    1        2.246   1.387   0.564  0.00  0.00    +0.220 A 
BRANCH  12  15
ATOM     15  S   LIG    1        3.591  -0.877   1.269  0.00  0.00    +2.490 S 
ATOM     16  O   LIG    1        4.461   0.137   1.751  0.00  0.00    -0.930 OA
ATOM     17  O   LIG    1        4.010  -1.780   0.254  0.00  0.00    -0.920 OA
ATOM     18  C   LIG    1        2.836  -1.778   2.650  0.00  0.00    -0.240 C 
ENDBRANCH  12  15
ENDBRANCH   6   8
BRANCH   1  22
ATOM     19  C   LIG    1        1.727   7.097  -3.751  0.00  0.00    +0.130 A 
ATOM     20  C   LIG    1        1.836   7.824  -2.574  0.00  0.00    -0.020 A 
ATOM     21  C   LIG    1        1.228   7.367  -1.421  0.00  0.00    +0.070 A 
ATOM     22  C   LIG    1        0.511   6.184  -1.439  0.00  0.00    -0.130 A 
ATOM     23  C   LIG    1        0.406   5.455  -2.609  0.00  0.00    +0.060 A 
ATOM     24  C   LIG    1        1.007   5.912  -3.766  0.00  0.00    -0.080 A 
BRANCH  19  26
ATOM     25  C   LIG    1        2.170   6.745  -6.060  0.00  0.00    +0.250 C 
ATOM     26  O   LIG    1        2.324   7.545  -4.886  0.00  0.00    -0.320 OA
ENDBRANCH  19  26
ENDBRANCH   1  22
TORSDOF 4
