REMARK  Name = ZINCqH0000002xzt.0
REMARK                            x       y       z     vdW  Elec       q    Type
REMARK                         _______ _______ _______ _____ _____    ______ ____
ROOT
ATOM      1  N   LIG    1        0.217   5.614   3.593  0.00  0.00    -0.530 NA
ATOM      2  C   LIG    1        1.463   5.976   2.903  0.00  0.00    +0.190 C 
ATOM      3  C   LIG    1        1.384   5.524   1.443  0.00  0.00    +0.180 C 
ATOM      4  N   LIG    1        1.162   4.072   1.394  0.00  0.00    -0.530 NA
ATOM      5  C   LIG    1       -0.084   3.710   2.084  0.00  0.00    +0.180 C 
ATOM      6  C   LIG    1       -0.005   4.162   3.544  0.00  0.00    +0.180 C 
ENDROOT
BRANCH   1   7
ATOM      7  C   LIG    1        0.224   6.099   4.980  0.00  0.00    +0.270 C 
BRANCH   7  10
ATOM      8  C   LIG    1       -3.243   6.565   5.984  0.00  0.00    +0.060 A 
ATOM      9  N   LIG    1       -2.107   6.823   5.430  0.00  0.00    -0.460 NA
ATOM     10  C   LIG    1       -1.149   5.929   5.577  0.00  0.00    +0.080 A 
ATOM     11  C   LIG    1       -1.494   4.863   6.306  0.00  0.00    -0.090 A 
ATOM     12  S   LIG    1       -3.172   5.066   6.804  0.00  0.00    +0.120 S 
BRANCH   8  13
ATOM     13  C   LIG    1       -4.455   7.458   5.922  0.00  0.00    +0.140 C 
BRANCH  13  14
ATOM     14  C   LIG    1       -5.303   7.085   4.705  0.00  0.00    +0.020 C 
BRANCH  14  16
ATOM     15  C   LIG    1       -7.381   7.618   3.425  0.00  0.00    +0.010 C 
ATOM     16  C   LIG    1       -6.534   7.992   4.643  0.00  0.00    +0.000 C 
ENDBRANCH  14  16
ENDBRANCH  13  14
ENDBRANCH   8  13
ENDBRANCH   7  10
ENDBRANCH   1   7
BRANCH   4  17
ATOM     17  C   LIG    1        1.156   3.587   0.007  0.00  0.00    +0.230 C 
BRANCH  17  18
ATOM     18  C   LIG    1        1.173   2.080   0.002  0.00  0.00    -0.110 A 
ATOM     19  C   LIG    1        2.376   1.400  -0.011  0.00  0.00    +0.070 A 
ATOM     20  C   LIG    1        2.397   0.021  -0.021  0.00  0.00    -0.010 A 
ATOM     21  C   LIG    1        1.205  -0.699  -0.018  0.00  0.00    +0.110 A 
ATOM     22  O   LIG    1        0.997  -2.044  -0.037  0.00  0.00    -0.310 OA
ATOM     23  C   LIG    1       -0.341  -2.324   0.408  0.00  0.00    +0.240 C 
ATOM     24  C   LIG    1       -1.107  -1.038   0.018  0.00  0.00    +0.070 C 
ATOM     25  C   LIG    1        0.002  -0.004   0.002  0.00  0.00    -0.180 A 
ATOM     26  C   LIG    1       -0.017   1.373   0.010  0.00  0.00    +0.060 A 
ENDBRANCH  17  18
ENDBRANCH   4  17
TORSDOF 7
