REMARK  Name = ZINCtV000002HO2b.0
REMARK                            x       y       z     vdW  Elec       q    Type
REMARK                         _______ _______ _______ _____ _____    ______ ____
ROOT
ATOM      1  N   LIG    1       -1.756   6.864  -1.758  0.00  0.00    -0.560 N 
ATOM      2  C   LIG    1       -0.926   6.005  -1.134  0.00  0.00    +0.530 C 
ATOM      3  O   LIG    1        0.246   5.962  -1.443  0.00  0.00    -0.510 OA
ENDROOT
BRANCH   1   8
ATOM      4  C   LIG    1        0.267  10.481  -5.558  0.00  0.00    +0.110 C 
ATOM      5  C   LIG    1       -0.267   9.536  -4.512  0.00  0.00    -0.130 A 
ATOM      6  C   LIG    1       -0.235   9.887  -3.170  0.00  0.00    +0.070 A 
ATOM      7  C   LIG    1       -0.735   8.990  -2.241  0.00  0.00    -0.020 A 
ATOM      8  C   LIG    1       -1.249   7.776  -2.682  0.00  0.00    +0.350 A 
ATOM      9  N   LIG    1       -1.257   7.476  -3.971  0.00  0.00    -0.480 NA
ATOM     10  C   LIG    1       -0.792   8.313  -4.879  0.00  0.00    +0.270 A 
ENDBRANCH   1   8
BRANCH   1  11
ATOM     11  C   LIG    1       -3.191   6.840  -1.464  0.00  0.00    +0.240 C 
ATOM     12  C   LIG    1       -3.969   6.538  -2.746  0.00  0.00    +0.010 C 
ATOM     13  C   LIG    1       -5.468   6.512  -2.439  0.00  0.00    +0.010 C 
ATOM     14  C   LIG    1       -5.899   7.873  -1.890  0.00  0.00    +0.010 C 
ATOM     15  C   LIG    1       -5.121   8.176  -0.608  0.00  0.00    +0.020 C 
ATOM     16  C   LIG    1       -3.622   8.201  -0.915  0.00  0.00    +0.010 C 
ENDBRANCH   1  11
BRANCH   2  17
ATOM     17  C   LIG    1       -1.454   5.097  -0.053  0.00  0.00    +0.070 C 
BRANCH  17  18
ATOM     18  C   LIG    1       -0.315   4.230   0.485  0.00  0.00    +0.040 C 
ATOM     19  C   LIG    1        0.722   5.119   1.174  0.00  0.00    +0.040 C 
BRANCH  18  20
ATOM     20  C   LIG    1       -0.865   3.238   1.478  0.00  0.00    -0.030 A 
ATOM     21  C   LIG    1       -1.510   3.685   2.616  0.00  0.00    +0.010 A 
ATOM     22  C   LIG    1       -2.015   2.775   3.526  0.00  0.00    +0.050 A 
ATOM     23  C   LIG    1       -1.874   1.419   3.299  0.00  0.00    +0.020 A 
ATOM     24  C   LIG    1       -1.232   0.972   2.159  0.00  0.00    +0.070 A 
ATOM     25  C   LIG    1       -0.723   1.882   1.251  0.00  0.00    -0.180 A 
BRANCH  25  26
ATOM     26  C   LIG    1       -0.019   1.395   0.011  0.00  0.00    +0.510 C 
ATOM     27  F   LIG    1       -0.696   1.858  -1.122  0.00  0.00    -0.170 F 
ATOM     28  F   LIG    1        1.294   1.878   0.000  0.00  0.00    -0.170 F 
ATOM     29  F   LIG    1       -0.001  -0.004   0.004  0.00  0.00    -0.180 F 
ENDBRANCH  25  26
ENDBRANCH  18  20
ENDBRANCH  17  18
ENDBRANCH   2  17
TORSDOF 6
