REMARK  Name = ZINCtV00000L6jMD.0
REMARK                            x       y       z     vdW  Elec       q    Type
REMARK                         _______ _______ _______ _____ _____    ______ ____
ROOT
ATOM      1  P   LIG    1        3.642  -2.300  -0.044  0.00  0.00    +2.410 P 
ATOM      2  O   LIG    1        5.043  -2.775  -0.060  0.00  0.00    -1.010 OA
ENDROOT
BRANCH   1   3
ATOM      3  N   LIG    1        3.621  -0.660  -0.035  0.00  0.00    -1.090 N 
ATOM      4  H   LIG    1        4.455  -0.164  -0.041  0.00  0.00    +0.430 HD
BRANCH   3  10
ATOM      5  C   LIG    1        2.380   1.418  -0.013  0.00  0.00    +0.100 A 
ATOM      6  C   LIG    1        1.169   2.090   0.002  0.00  0.00    -0.030 A 
ATOM      7  C   LIG    1       -0.017   1.378   0.010  0.00  0.00    +0.020 A 
ATOM      8  C   LIG    1        0.002  -0.004   0.002  0.00  0.00    +0.040 A 
ATOM      9  C   LIG    1        1.207  -0.682  -0.013  0.00  0.00    -0.040 A 
ATOM     10  C   LIG    1        2.400   0.024  -0.020  0.00  0.00    +0.140 A 
BRANCH   5  11
ATOM     11  O   LIG    1        3.547   2.116  -0.020  0.00  0.00    -0.320 OA
BRANCH  11  12
ATOM     12  C   LIG    1        3.450   3.542  -0.012  0.00  0.00    +0.180 C 
BRANCH  12  14
ATOM     13  C   LIG    1        4.751   5.675  -0.013  0.00  0.00    +0.040 C 
ATOM     14  C   LIG    1        4.855   4.149  -0.021  0.00  0.00    +0.020 C 
ENDBRANCH  12  14
ENDBRANCH  11  12
ENDBRANCH   5  11
ENDBRANCH   3  10
ENDBRANCH   1   3
BRANCH   1  15
ATOM     15  O   LIG    1        2.877  -2.839  -1.355  0.00  0.00    -0.640 OA
BRANCH  15  16
ATOM     16  C   LIG    1        3.589  -2.705  -2.505  0.00  0.00    +0.090 A 
ATOM     17  C   LIG    1        3.471  -1.550  -3.264  0.00  0.00    +0.000 A 
ATOM     18  C   LIG    1        4.200  -1.414  -4.430  0.00  0.00    +0.030 A 
ATOM     19  C   LIG    1        5.038  -2.432  -4.845  0.00  0.00    -0.080 A 
ATOM     20  C   LIG    1        5.154  -3.586  -4.093  0.00  0.00    +0.040 A 
ATOM     21  C   LIG    1        5.828  -2.283  -6.120  0.00  0.00    +0.090 C 
ATOM     22  C   LIG    1        4.431  -3.725  -2.923  0.00  0.00    +0.040 A 
ENDBRANCH  15  16
ENDBRANCH   1  15
BRANCH   1  23
ATOM     23  O   LIG    1        2.902  -2.853   1.274  0.00  0.00    -0.640 OA
BRANCH  23  24
ATOM     24  C   LIG    1        3.589  -2.635   2.426  0.00  0.00    +0.080 A 
ATOM     25  C   LIG    1        4.492  -3.582   2.887  0.00  0.00    +0.040 A 
ATOM     26  C   LIG    1        5.194  -3.354   4.055  0.00  0.00    +0.040 A 
ATOM     27  C   LIG    1        4.988  -2.190   4.771  0.00  0.00    -0.080 A 
ATOM     28  C   LIG    1        4.085  -1.247   4.317  0.00  0.00    +0.030 A 
ATOM     29  C   LIG    1        5.750  -1.948   6.048  0.00  0.00    +0.090 C 
ATOM     30  C   LIG    1        3.385  -1.467   3.146  0.00  0.00    +0.000 A 
ENDBRANCH  23  24
ENDBRANCH   1  23
TORSDOF 9
