REMARK  Name = ZINCqH0000004LhZ.0
REMARK                            x       y       z     vdW  Elec       q    Type
REMARK                         _______ _______ _______ _____ _____    ______ ____
ROOT
ATOM      1  C   LIG    1        3.924  -4.709   0.127  0.00  0.00    -0.050 A 
ATOM      2  C   LIG    1        4.042  -6.093   0.211  0.00  0.00    +0.090 A 
ATOM      3  C   LIG    1        2.910  -6.883   0.211  0.00  0.00    +0.000 A 
ATOM      4  C   LIG    1        1.656  -6.305   0.127  0.00  0.00    +0.050 A 
ATOM      5  C   LIG    1        1.525  -4.932   0.049  0.00  0.00    +0.020 A 
ATOM      6  C   LIG    1        2.654  -4.126   0.042  0.00  0.00    +0.170 A 
ENDROOT
BRANCH   1   9
ATOM      7  C   LIG    1        7.225  -3.281   0.112  0.00  0.00    +0.300 A 
ATOM      8  N   LIG    1        6.402  -4.297   0.105  0.00  0.00    -0.520 NA
ATOM      9  C   LIG    1        5.137  -3.856   0.127  0.00  0.00    +0.280 A 
ATOM     10  N   LIG    1        5.149  -2.540   0.143  0.00  0.00    -0.330 NA
ATOM     11  N   LIG    1        6.498  -2.149   0.139  0.00  0.00    -0.480 N 
ATOM     12  H   LIG    1        6.839  -1.241   0.150  0.00  0.00    +0.440 HD
BRANCH   7  14
ATOM     13  C   LIG    1        9.206  -4.238   1.256  0.00  0.00    +0.050 C 
ATOM     14  C   LIG    1        8.729  -3.364   0.094  0.00  0.00    +0.140 C 
ENDBRANCH   7  14
ENDBRANCH   1   9
BRANCH   6  15
ATOM     15  N   LIG    1        2.524  -2.738  -0.043  0.00  0.00    -0.650 N 
ATOM     16  H   LIG    1        3.181  -2.218  -0.532  0.00  0.00    +0.420 HD
ATOM     17  C   LIG    1        1.486  -2.120   0.556  0.00  0.00    +0.570 C 
ATOM     18  O   LIG    1        0.619  -2.777   1.098  0.00  0.00    -0.510 OA
BRANCH  17  19
ATOM     19  C   LIG    1        1.403  -0.644   0.553  0.00  0.00    -0.160 A 
ATOM     20  C   LIG    1        0.330   0.009   1.171  0.00  0.00    +0.160 A 
ATOM     21  C   LIG    1        0.299   1.393   1.140  0.00  0.00    +0.030 A 
ATOM     22  C   LIG    1        1.319   2.078   0.506  0.00  0.00    +0.060 A 
ATOM     23  N   LIG    1        2.319   1.436  -0.068  0.00  0.00    -0.440 NA
ATOM     24  C   LIG    1        2.393   0.121  -0.066  0.00  0.00    +0.320 A 
BRANCH  22  25
ATOM     25  C   LIG    1        1.289   3.585   0.471  0.00  0.00    +0.520 C 
ATOM     26  F   LIG    1       -0.039   4.025   0.480  0.00  0.00    -0.170 F 
ATOM     27  F   LIG    1        1.922   4.037  -0.693  0.00  0.00    -0.160 F 
ATOM     28  F   LIG    1        1.956   4.091   1.591  0.00  0.00    -0.170 F 
ENDBRANCH  22  25
ENDBRANCH  17  19
ENDBRANCH   6  15
TORSDOF 5
