REMARK  Name = ZINCvU0000000EtK.0
REMARK                            x       y       z     vdW  Elec       q    Type
REMARK                         _______ _______ _______ _____ _____    ______ ____
ROOT
ATOM      1  O   LIG    1        0.253  -0.253  -0.230  0.00  0.00    -0.570 OA
ATOM      2  C   LIG    1        0.227   0.925   0.069  0.00  0.00    +0.710 C 
ATOM      3  N   LIG    1        1.319   1.693  -0.120  0.00  0.00    -0.630 N 
ATOM      4  C   LIG    1        1.266   3.141   0.122  0.00  0.00    +0.270 C 
ATOM      5  C   LIG    1        1.760   3.872  -1.125  0.00  0.00    +0.040 C 
ATOM      6  C   LIG    1        3.147   3.347  -1.505  0.00  0.00    +0.000 C 
ATOM      7  C   LIG    1        3.060   1.852  -1.821  0.00  0.00    +0.040 C 
ATOM      8  C   LIG    1        2.582   1.098  -0.577  0.00  0.00    +0.300 C 
ATOM      9  N   LIG    1       -0.896   1.465   0.584  0.00  0.00    -0.690 N 
ATOM     10  H   LIG    1       -0.944   2.419   0.748  0.00  0.00    +0.400 HD
ENDROOT
BRANCH   6  11
ATOM     11  C   LIG    1        3.650   4.088  -2.717  0.00  0.00    +0.530 C 
ATOM     12  N   LIG    1        4.137   5.338  -2.588  0.00  0.00    -0.610 N 
ATOM     13  C   LIG    1        4.068   6.047  -1.301  0.00  0.00    +0.280 C 
ATOM     14  C   LIG    1        5.494   6.278  -0.794  0.00  0.00    +0.110 C 
ATOM     15  C   LIG    1        6.348   6.790  -1.934  0.00  0.00    -0.170 A 
ATOM     16  C   LIG    1        6.040   6.683  -3.241  0.00  0.00    -0.110 A 
ATOM     17  C   LIG    1        6.998   7.227  -4.090  0.00  0.00    +0.020 A 
ATOM     18  C   LIG    1        8.054   7.770  -3.493  0.00  0.00    -0.040 A 
ATOM     19  S   LIG    1        7.891   7.614  -1.751  0.00  0.00    +0.110 S 
ATOM     20  C   LIG    1        4.758   6.027  -3.729  0.00  0.00    +0.400 C 
ATOM     21  O   LIG    1        3.616   3.560  -3.808  0.00  0.00    -0.520 OA
BRANCH  20  22
ATOM     22  C   LIG    1        3.821   7.081  -4.260  0.00  0.00    -0.180 A 
ATOM     23  C   LIG    1        3.627   7.357  -5.551  0.00  0.00    +0.020 A 
ATOM     24  C   LIG    1        2.714   8.367  -5.800  0.00  0.00    +0.010 A 
ATOM     25  C   LIG    1        2.172   8.916  -4.712  0.00  0.00    -0.060 A 
ATOM     26  S   LIG    1        2.821   8.139  -3.274  0.00  0.00    +0.110 S 
ENDBRANCH  20  22
ENDBRANCH   6  11
BRANCH   9  27
ATOM     27  C   LIG    1       -1.992   0.648   0.881  0.00  0.00    +0.160 A 
ATOM     28  C   LIG    1       -1.791  -0.650   1.334  0.00  0.00    +0.010 A 
ATOM     29  C   LIG    1       -2.875  -1.452   1.631  0.00  0.00    +0.030 A 
ATOM     30  C   LIG    1       -4.160  -0.968   1.468  0.00  0.00    -0.020 A 
ATOM     31  C   LIG    1       -4.364   0.321   1.012  0.00  0.00    +0.030 A 
ATOM     32  C   LIG    1       -3.284   1.130   0.718  0.00  0.00    -0.030 A 
ENDBRANCH   9  27
TORSDOF 3
