REMARK  Name = ZINCrD000000BOwA.0
REMARK                            x       y       z     vdW  Elec       q    Type
REMARK                         _______ _______ _______ _____ _____    ______ ____
ROOT
ATOM      1  C   LIG    1        1.564   5.732  -0.739  0.00  0.00    +0.270 C 
ATOM      2  C   LIG    1        0.154   5.673  -0.108  0.00  0.00    +0.070 C 
ATOM      3  C   LIG    1       -0.147   4.193  -0.011  0.00  0.00    +0.520 C 
ATOM      4  N   LIG    1        0.984   3.481  -0.149  0.00  0.00    -0.560 N 
ATOM      5  O   LIG    1       -1.250   3.719   0.166  0.00  0.00    -0.500 OA
ATOM      6  C   LIG    1        2.147   4.358  -0.333  0.00  0.00    +0.290 C 
ENDROOT
BRANCH   4   7
ATOM      7  C   LIG    1        1.047   2.082  -0.117  0.00  0.00    +0.160 A 
ATOM      8  C   LIG    1       -0.123   1.336  -0.058  0.00  0.00    +0.020 A 
ATOM      9  C   LIG    1       -0.061  -0.043  -0.026  0.00  0.00    +0.030 A 
ATOM     10  C   LIG    1        1.170  -0.683  -0.052  0.00  0.00    +0.060 A 
ATOM     11  C   LIG    1        2.339   0.062  -0.110  0.00  0.00    +0.050 A 
ATOM     12  C   LIG    1        2.278   1.441  -0.142  0.00  0.00    +0.000 A 
BRANCH  10  13
ATOM     13  O   LIG    1        1.231  -2.041  -0.020  0.00  0.00    -0.250 OA
BRANCH  13  14
ATOM     14  C   LIG    1        0.754  -2.726  -1.093  0.00  0.00    +0.120 A 
ATOM     15  C   LIG    1        0.335  -2.042  -2.224  0.00  0.00    -0.070 A 
ATOM     16  C   LIG    1       -0.145  -2.741  -3.314  0.00  0.00    +0.050 A 
ATOM     17  C   LIG    1       -0.217  -4.122  -3.275  0.00  0.00    -0.020 A 
ATOM     18  C   LIG    1        0.196  -4.806  -2.147  0.00  0.00    +0.050 A 
ATOM     19  C   LIG    1        0.681  -4.112  -1.056  0.00  0.00    -0.020 A 
ENDBRANCH  13  14
ENDBRANCH  10  13
ENDBRANCH   4   7
BRANCH   1  22
ATOM     20  O   LIG    1        1.337   8.076  -2.054  0.00  0.00    -0.520 OA
ATOM     21  C   LIG    1        1.370   7.084  -2.757  0.00  0.00    +0.600 C 
ATOM     22  N   LIG    1        1.482   5.863  -2.196  0.00  0.00    -0.730 N 
ATOM     23  H   LIG    1        1.508   5.072  -2.756  0.00  0.00    +0.400 HD
BRANCH  21  24
ATOM     24  C   LIG    1        1.288   7.215  -4.215  0.00  0.00    -0.070 A 
ATOM     25  C   LIG    1        1.166   8.393  -4.922  0.00  0.00    +0.050 A 
ATOM     26  C   LIG    1        1.127   8.056  -6.279  0.00  0.00    -0.060 A 
ATOM     27  C   LIG    1        1.214   6.708  -6.375  0.00  0.00    +0.200 A 
ATOM     28  N   LIG    1        1.313   6.185  -5.128  0.00  0.00    -0.540 N 
ATOM     29  H   LIG    1        1.388   5.242  -4.914  0.00  0.00    +0.410 HD
ENDBRANCH  21  24
ENDBRANCH   1  22
TORSDOF 5
