REMARK  Name = ZINCrD00000hQ6kG.0
REMARK                            x       y       z     vdW  Elec       q    Type
REMARK                         _______ _______ _______ _____ _____    ______ ____
ROOT
ATOM      1  S   LIG    1       -3.421   2.521  -1.619  0.00  0.00    +2.710 S 
ATOM      2  O   LIG    1       -2.815   3.224  -2.695  0.00  0.00    -0.930 OA
ATOM      3  O   LIG    1       -4.325   3.127  -0.706  0.00  0.00    -0.940 OA
ENDROOT
BRANCH   1   4
ATOM      4  C   LIG    1       -4.275   1.156  -2.334  0.00  0.00    -0.690 A 
ATOM      5  C   LIG    1       -5.585   0.898  -1.979  0.00  0.00    +0.170 A 
ATOM      6  C   LIG    1       -6.256  -0.173  -2.540  0.00  0.00    -0.010 A 
ATOM      7  C   LIG    1       -5.619  -0.987  -3.458  0.00  0.00    +0.120 A 
ATOM      8  C   LIG    1       -4.309  -0.734  -3.816  0.00  0.00    -0.070 A 
ATOM      9  C   LIG    1       -3.635   0.344  -3.259  0.00  0.00    +0.200 A 
BRANCH   9  10
ATOM     10  O   LIG    1       -2.349   0.599  -3.614  0.00  0.00    -0.310 OA
BRANCH  10  11
ATOM     11  C   LIG    1       -1.753  -0.279  -4.572  0.00  0.00    +0.610 C 
ATOM     12  F   LIG    1       -1.753  -1.585  -4.069  0.00  0.00    -0.160 F 
ATOM     13  F   LIG    1       -0.438   0.126  -4.821  0.00  0.00    -0.120 F 
ATOM     14  F   LIG    1       -2.487  -0.238  -5.762  0.00  0.00    -0.160 F 
ENDBRANCH  10  11
ENDBRANCH   9  10
ENDBRANCH   1   4
BRANCH   1  18
ATOM     15  C   LIG    1       -0.802   1.617   1.234  0.00  0.00    +0.170 C 
ATOM     16  C   LIG    1       -0.013   1.086   0.008  0.00  0.00    +0.030 C 
ATOM     17  C   LIG    1       -0.821   1.627  -1.190  0.00  0.00    +0.270 C 
ATOM     18  N   LIG    1       -2.183   1.902  -0.710  0.00  0.00    -1.010 NA
ATOM     19  C   LIG    1       -2.264   1.534   0.716  0.00  0.00    +0.300 C 
BRANCH  15  20
ATOM     20  O   LIG    1       -0.608   0.775   2.372  0.00  0.00    -0.370 OA
BRANCH  20  21
ATOM     21  C   LIG    1        0.483   1.169   3.207  0.00  0.00    +0.280 C 
BRANCH  21  25
ATOM     22  C   LIG    1        2.481  -0.568   7.404  0.00  0.00    +0.180 C 
ATOM     23  C   LIG    1        1.511  -0.539   6.251  0.00  0.00    +0.050 A 
ATOM     24  N   LIG    1        1.519   0.334   5.301  0.00  0.00    -0.470 NA
ATOM     25  C   LIG    1        0.594   0.216   4.370  0.00  0.00    +0.060 A 
ATOM     26  C   LIG    1       -0.233  -0.819   4.537  0.00  0.00    -0.050 A 
ATOM     27  S   LIG    1        0.246  -1.663   6.008  0.00  0.00    +0.120 S 
ENDBRANCH  21  25
ENDBRANCH  20  21
ENDBRANCH  15  20
ENDBRANCH   1  18
TORSDOF 7
