REMARK  Name = ZINCvU00000009yk.0
REMARK                            x       y       z     vdW  Elec       q    Type
REMARK                         _______ _______ _______ _____ _____    ______ ____
ROOT
ATOM      1  C   LIG    1        1.140  -3.021   0.866  0.00  0.00    -0.190 A 
ATOM      2  C   LIG    1        1.798  -4.171   0.509  0.00  0.00    +0.250 A 
ATOM      3  N   LIG    1        2.995  -3.808  -0.020  0.00  0.00    -0.220 N 
ATOM      4  N   LIG    1        3.145  -2.535  -0.033  0.00  0.00    -0.240 NA
ATOM      5  C   LIG    1        2.071  -1.931   0.482  0.00  0.00    +0.140 A 
ENDROOT
BRANCH   3   6
ATOM      6  C   LIG    1        3.947  -4.711  -0.492  0.00  0.00    +0.110 A 
ATOM      7  C   LIG    1        3.700  -6.079  -0.432  0.00  0.00    +0.010 A 
ATOM      8  C   LIG    1        4.643  -6.969  -0.905  0.00  0.00    +0.050 A 
ATOM      9  C   LIG    1        5.837  -6.503  -1.428  0.00  0.00    +0.030 A 
ATOM     10  C   LIG    1        6.088  -5.144  -1.484  0.00  0.00    +0.040 A 
ATOM     11  C   LIG    1        5.148  -4.247  -1.018  0.00  0.00    +0.040 A 
ENDBRANCH   3   6
BRANCH   5  12
ATOM     12  C   LIG    1        1.868  -0.551   0.635  0.00  0.00    +0.050 A 
ATOM     13  C   LIG    1        2.903   0.440   0.958  0.00  0.00    +0.030 A 
ATOM     14  C   LIG    1        2.284   1.646   1.012  0.00  0.00    +0.040 A 
ATOM     15  C   LIG    1        0.867   1.407   0.724  0.00  0.00    -0.020 A 
ATOM     16  O   LIG    1        0.690   0.091   0.511  0.00  0.00    -0.110 OA
BRANCH  15  17
ATOM     17  C   LIG    1       -0.143   2.396   0.673  0.00  0.00    +0.050 A 
ATOM     18  C   LIG    1        0.172   3.748   0.921  0.00  0.00    +0.050 A 
ATOM     19  C   LIG    1       -0.811   4.694   0.863  0.00  0.00    +0.120 A 
ATOM     20  C   LIG    1       -2.118   4.328   0.572  0.00  0.00    -0.010 A 
ATOM     21  C   LIG    1       -2.441   3.000   0.331  0.00  0.00    +0.120 A 
ATOM     22  C   LIG    1       -1.474   2.037   0.378  0.00  0.00    +0.030 A 
BRANCH  20  23
ATOM     23  N   LIG    1       -3.175   5.363   0.518  0.00  0.00    -0.020 N 
ATOM     24  O   LIG    1       -2.874   6.625   0.746  0.00  0.00    -0.170 OA
ATOM     25  O   LIG    1       -4.417   5.022   0.242  0.00  0.00    -0.170 OA
ENDBRANCH  20  23
ENDBRANCH  15  17
ENDBRANCH   5  12
BRANCH   1  27
ATOM     26  C   LIG    1       -1.018  -3.966   1.435  0.00  0.00    -0.020 C 
ATOM     27  C   LIG    1       -0.140  -2.901   1.463  0.00  0.00    +0.270 C 
BRANCH  26  29
ATOM     28  N   LIG    1       -3.228  -3.845   2.737  0.00  0.00    -0.390 NA
ATOM     29  C   LIG    1       -2.250  -3.898   2.161  0.00  0.00    +0.260 C 
ENDBRANCH  26  29
BRANCH  26  30
ATOM     30  C   LIG    1       -0.695  -5.140   0.680  0.00  0.00    +0.260 C 
ATOM     31  N   LIG    1       -0.439  -6.070   0.081  0.00  0.00    -0.400 NA
ENDBRANCH  26  30
ENDBRANCH   1  27
TORSDOF 7
