REMARK  Name = ZINCvU00000009ip.0
REMARK                            x       y       z     vdW  Elec       q    Type
REMARK                         _______ _______ _______ _____ _____    ______ ____
ROOT
ATOM      1  C   LIG    1        1.109   1.660   0.111  0.00  0.00    +0.310 A 
ATOM      2  C   LIG    1        2.078   2.642   0.118  0.00  0.00    -0.110 A 
ATOM      3  C   LIG    1        1.730   3.988   0.082  0.00  0.00    +0.230 A 
ATOM      4  C   LIG    1        0.424   4.377   0.039  0.00  0.00    -0.750 A 
ATOM      5  C   LIG    1       -0.591   3.411   0.031  0.00  0.00    +0.100 A 
ATOM      6  C   LIG    1       -1.954   3.757  -0.013  0.00  0.00    -0.050 A 
ATOM      7  C   LIG    1       -2.881   2.760  -0.035  0.00  0.00    +0.280 A 
ATOM      8  N   LIG    1       -2.534   1.481  -0.000  0.00  0.00    -0.500 NA
ATOM      9  C   LIG    1       -1.282   1.086   0.047  0.00  0.00    +0.320 A 
ATOM     10  C   LIG    1       -0.250   2.034   0.061  0.00  0.00    -0.180 A 
ENDROOT
BRANCH   4  11
ATOM     11  S   LIG    1        0.014   6.090  -0.006  0.00  0.00    +2.690 S 
ATOM     12  O   LIG    1       -0.949   6.245  -1.040  0.00  0.00    -0.960 OA
ATOM     13  O   LIG    1        1.245   6.799   0.023  0.00  0.00    -0.960 OA
BRANCH  11  14
ATOM     14  N   LIG    1       -0.763   6.446   1.413  0.00  0.00    -0.990 NA
ATOM     15  C   LIG    1       -2.227   6.454   1.464  0.00  0.00    +0.290 C 
BRANCH  14  16
ATOM     16  C   LIG    1        0.014   6.753   2.616  0.00  0.00    +0.250 C 
ATOM     17  C   LIG    1       -0.336   5.751   3.719  0.00  0.00    +0.030 C 
BRANCH  16  18
ATOM     18  C   LIG    1       -0.318   8.169   3.091  0.00  0.00    +0.050 C 
BRANCH  18  19
ATOM     19  C   LIG    1        0.146   9.180   2.041  0.00  0.00    -0.050 C 
ATOM     20  C   LIG    1        1.240  10.169   2.447  0.00  0.00    +0.000 C 
ATOM     21  C   LIG    1       -0.201  10.652   2.275  0.00  0.00    +0.000 C 
ENDBRANCH  18  19
ENDBRANCH  16  18
ENDBRANCH  14  16
ENDBRANCH  11  14
ENDBRANCH   4  11
BRANCH   1  22
ATOM     22  N   LIG    1        1.468   0.316   0.147  0.00  0.00    -0.720 N 
ATOM     23  H   LIG    1        0.782  -0.370   0.142  0.00  0.00    +0.410 HD
BRANCH  22  24
ATOM     24  C   LIG    1        2.882  -0.063   0.193  0.00  0.00    +0.320 C 
BRANCH  24  29
ATOM     25  C   LIG    1        3.330  -5.823   0.317  0.00  0.00    +0.090 C 
ATOM     26  C   LIG    1        3.213  -4.321   0.285  0.00  0.00    -0.070 A 
ATOM     27  C   LIG    1        3.335  -3.593   1.454  0.00  0.00    +0.000 A 
ATOM     28  C   LIG    1        3.228  -2.215   1.424  0.00  0.00    +0.040 A 
ATOM     29  C   LIG    1        2.999  -1.565   0.225  0.00  0.00    -0.130 A 
ATOM     30  C   LIG    1        2.872  -2.294  -0.943  0.00  0.00    -0.060 A 
ATOM     31  C   LIG    1        2.616  -1.586  -2.248  0.00  0.00    +0.100 C 
ATOM     32  C   LIG    1        2.984  -3.671  -0.914  0.00  0.00    +0.010 A 
ENDBRANCH  24  29
ENDBRANCH  22  24
ENDBRANCH   1  22
TORSDOF 8
