REMARK  Name = ZINCqH0000007jCf.0
REMARK                            x       y       z     vdW  Elec       q    Type
REMARK                         _______ _______ _______ _____ _____    ______ ____
ROOT
ATOM      1  N   LIG    1       -1.983   2.356   3.450  0.00  0.00    -0.660 N 
ATOM      2  H   LIG    1       -1.054   2.622   3.360  0.00  0.00    +0.410 HD
ATOM      3  C   LIG    1       -2.714   2.804   4.489  0.00  0.00    +0.600 C 
ATOM      4  O   LIG    1       -3.851   2.402   4.652  0.00  0.00    -0.530 OA
ENDROOT
BRANCH   1   8
ATOM      5  C   LIG    1       -3.712  -0.182   0.622  0.00  0.00    +0.150 A 
ATOM      6  C   LIG    1       -4.098  -0.257   1.952  0.00  0.00    -0.100 A 
ATOM      7  C   LIG    1       -3.525   0.583   2.888  0.00  0.00    +0.110 A 
ATOM      8  C   LIG    1       -2.563   1.503   2.500  0.00  0.00    +0.080 A 
ATOM      9  C   LIG    1       -2.174   1.579   1.164  0.00  0.00    +0.140 A 
ATOM     10  C   LIG    1       -2.753   0.740   0.228  0.00  0.00    -0.090 A 
BRANCH   5  12
ATOM     11  C   LIG    1       -5.261  -1.930   0.177  0.00  0.00    +0.250 C 
ATOM     12  O   LIG    1       -4.277  -1.009  -0.297  0.00  0.00    -0.320 OA
ENDBRANCH   5  12
BRANCH   9  13
ATOM     13  O   LIG    1       -1.231   2.481   0.780  0.00  0.00    -0.310 OA
ATOM     14  C   LIG    1       -0.881   2.503  -0.605  0.00  0.00    +0.250 C 
ENDBRANCH   9  13
ENDBRANCH   1   8
BRANCH   3  15
ATOM     15  C   LIG    1       -2.137   3.782   5.429  0.00  0.00    -0.300 A 
ATOM     16  C   LIG    1       -2.766   4.331   6.529  0.00  0.00    +0.170 A 
ATOM     17  N   LIG    1       -1.892   5.170   7.114  0.00  0.00    -0.310 N 
ATOM     18  N   LIG    1       -0.705   5.160   6.374  0.00  0.00    -0.290 NA
ATOM     19  C   LIG    1       -4.171   4.042   6.991  0.00  0.00    +0.180 C 
ATOM     20  C   LIG    1       -0.839   4.338   5.370  0.00  0.00    +0.290 A 
BRANCH  17  21
ATOM     21  C   LIG    1       -2.132   5.931   8.267  0.00  0.00    +0.140 A 
ATOM     22  C   LIG    1       -2.800   5.367   9.345  0.00  0.00    +0.000 A 
ATOM     23  C   LIG    1       -3.036   6.119  10.480  0.00  0.00    +0.040 A 
ATOM     24  C   LIG    1       -2.607   7.431  10.542  0.00  0.00    +0.020 A 
ATOM     25  C   LIG    1       -1.941   7.996   9.470  0.00  0.00    -0.070 A 
ATOM     26  C   LIG    1       -1.474   9.427   9.542  0.00  0.00    +0.100 C 
ATOM     27  C   LIG    1       -1.698   7.248   8.335  0.00  0.00    +0.030 A 
ENDBRANCH  17  21
ENDBRANCH   3  15
TORSDOF 5
