REMARK  Name = ZINCvU000000074s.0
REMARK                            x       y       z     vdW  Elec       q    Type
REMARK                         _______ _______ _______ _____ _____    ______ ____
ROOT
ATOM      1  C   LIG    1       -5.022   1.383  -0.164  0.00  0.00    +0.160 C 
ATOM      2  N   LIG    1       -3.806   1.800  -0.072  0.00  0.00    -0.230 NA
ATOM      3  N   LIG    1       -3.681   3.188  -0.047  0.00  0.00    -0.460 N 
ATOM      4  C   LIG    1       -5.021   3.788  -0.148  0.00  0.00    +0.270 C 
ATOM      5  C   LIG    1       -2.522   3.869   0.047  0.00  0.00    +0.590 C 
ATOM      6  O   LIG    1       -2.535   5.080   0.153  0.00  0.00    -0.490 OA
ATOM      7  C   LIG    1       -5.959   2.568  -0.229  0.00  0.00    +0.100 C 
ENDROOT
BRANCH   4   8
ATOM      8  C   LIG    1       -5.133   4.627  -1.395  0.00  0.00    -0.120 A 
ATOM      9  C   LIG    1       -4.298   4.385  -2.469  0.00  0.00    +0.050 A 
ATOM     10  C   LIG    1       -4.405   5.151  -3.615  0.00  0.00    +0.010 A 
ATOM     11  C   LIG    1       -5.340   6.167  -3.683  0.00  0.00    +0.050 A 
ATOM     12  C   LIG    1       -6.173   6.415  -2.608  0.00  0.00    -0.010 A 
ATOM     13  C   LIG    1       -6.070   5.645  -1.462  0.00  0.00    +0.110 A 
ATOM     14  F   LIG    1       -6.884   5.885  -0.411  0.00  0.00    -0.140 F 
ENDBRANCH   4   8
BRANCH   5  15
ATOM     15  C   LIG    1       -1.235   3.144   0.022  0.00  0.00    -0.140 A 
ATOM     16  C   LIG    1       -1.216   1.748   0.029  0.00  0.00    +0.130 A 
ATOM     17  C   LIG    1       -0.011   1.077   0.012  0.00  0.00    -0.010 A 
ATOM     18  C   LIG    1        1.178   1.784  -0.025  0.00  0.00    +0.050 A 
ATOM     19  C   LIG    1        1.168   3.167  -0.038  0.00  0.00    +0.010 A 
ATOM     20  C   LIG    1       -0.031   3.852  -0.014  0.00  0.00    +0.020 A 
ATOM     21 CL   LIG    1       -0.042   5.588  -0.030  0.00  0.00    -0.040 Cl
ENDBRANCH   5  15
BRANCH   1  25
ATOM     22  C   LIG    1       -6.213  -2.693  -0.284  0.00  0.00    +0.190 A 
ATOM     23  C   LIG    1       -7.169  -1.687  -0.352  0.00  0.00    -0.110 A 
ATOM     24  C   LIG    1       -6.787  -0.363  -0.313  0.00  0.00    +0.130 A 
ATOM     25  C   LIG    1       -5.435  -0.031  -0.205  0.00  0.00    -0.110 A 
ATOM     26  C   LIG    1       -4.471  -1.048  -0.142  0.00  0.00    +0.210 A 
ATOM     27  C   LIG    1       -4.867  -2.373  -0.177  0.00  0.00    -0.110 A 
BRANCH  22  29
ATOM     28  C   LIG    1       -7.998  -4.255  -0.434  0.00  0.00    +0.240 C 
ATOM     29  O   LIG    1       -6.598  -3.995  -0.322  0.00  0.00    -0.310 OA
ENDBRANCH  22  29
BRANCH  26  30
ATOM     30  O   LIG    1       -3.154  -0.733  -0.043  0.00  0.00    -0.290 OA
ATOM     31  C   LIG    1       -2.229  -1.821   0.016  0.00  0.00    +0.240 C 
ENDBRANCH  26  30
ENDBRANCH   1  25
TORSDOF 5
