REMARK  Name = ZINCrD000000CdJn.0
REMARK                            x       y       z     vdW  Elec       q    Type
REMARK                         _______ _______ _______ _____ _____    ______ ____
ROOT
ATOM      1  O   LIG    1       -5.583  -2.579   0.042  0.00  0.00    -0.490 OA
ATOM      2  C   LIG    1       -5.826  -1.388   0.050  0.00  0.00    +0.560 C 
ATOM      3  N   LIG    1       -4.817  -0.494   0.045  0.00  0.00    -0.620 N 
ATOM      4  H   LIG    1       -5.011   0.456   0.051  0.00  0.00    +0.430 HD
ENDROOT
BRANCH   2   5
ATOM      5  C   LIG    1       -7.228  -0.919   0.065  0.00  0.00    -0.110 A 
ATOM      6  C   LIG    1       -7.509   0.448   0.080  0.00  0.00    +0.070 A 
ATOM      7  C   LIG    1       -8.819   0.882   0.089  0.00  0.00    +0.060 A 
ATOM      8  C   LIG    1       -9.855  -0.032   0.095  0.00  0.00    +0.060 A 
ATOM      9  C   LIG    1       -9.585  -1.395   0.085  0.00  0.00    +0.130 A 
ATOM     10  C   LIG    1       -8.274  -1.842   0.070  0.00  0.00    +0.120 A 
BRANCH   9  11
ATOM     11  N   LIG    1      -10.641  -2.319   0.091  0.00  0.00    -0.330 N 
ATOM     12  C   LIG    1      -11.965  -2.052   0.104  0.00  0.00    +0.470 A 
ATOM     13  N   LIG    1      -12.593  -3.199   0.105  0.00  0.00    -0.320 NA
ATOM     14  N   LIG    1      -11.756  -4.173   0.092  0.00  0.00    -0.030 NA
ATOM     15  N   LIG    1      -10.548  -3.722   0.077  0.00  0.00    -0.070 NA
ENDBRANCH   9  11
ENDBRANCH   2   5
BRANCH   3  16
ATOM     16  C   LIG    1       -3.500  -0.934   0.031  0.00  0.00    +0.270 A 
ATOM     17  N   LIG    1       -2.454  -0.168   0.025  0.00  0.00    -0.490 NA
ATOM     18  C   LIG    1       -1.270  -0.766   0.011  0.00  0.00    +0.110 A 
ATOM     19  C   LIG    1       -1.304  -2.110  -0.002  0.00  0.00    -0.080 A 
ATOM     20  S   LIG    1       -2.990  -2.620   0.017  0.00  0.00    +0.220 S 
BRANCH  18  21
ATOM     21  C   LIG    1        0.002  -0.004   0.002  0.00  0.00    -0.020 A 
ATOM     22  C   LIG    1       -0.017   1.389   0.010  0.00  0.00    +0.050 A 
ATOM     23  C   LIG    1        1.173   2.094   0.002  0.00  0.00    +0.090 A 
ATOM     24  C   LIG    1        2.381   1.417  -0.013  0.00  0.00    +0.030 A 
ATOM     25  C   LIG    1        2.406   0.035  -0.021  0.00  0.00    +0.030 A 
ATOM     26  F   LIG    1        1.156   3.445   0.009  0.00  0.00    -0.130 F 
ATOM     27  C   LIG    1        1.223  -0.680  -0.013  0.00  0.00    +0.100 A 
ATOM     28  F   LIG    1        1.249  -2.031  -0.021  0.00  0.00    -0.120 F 
ENDBRANCH  18  21
ENDBRANCH   3  16
TORSDOF 4
