REMARK  Name = ZINCrD0000075BzF.0
REMARK                            x       y       z     vdW  Elec       q    Type
REMARK                         _______ _______ _______ _____ _____    ______ ____
ROOT
ATOM      1  C   LIG    1        0.010   0.660  -0.164  0.00  0.00    +0.010 C 
ENDROOT
BRANCH   1   3
ATOM      2  O   LIG    1       -0.181   2.012   1.761  0.00  0.00    -0.530 OA
ATOM      3  C   LIG    1       -0.705   1.173   1.059  0.00  0.00    +0.520 C 
ATOM      4  N   LIG    1       -1.927   0.700   1.374  0.00  0.00    -0.730 N 
ATOM      5  H   LIG    1       -2.347   0.029   0.813  0.00  0.00    +0.400 HD
BRANCH   4   6
ATOM      6  C   LIG    1       -2.622   1.198   2.563  0.00  0.00    +0.250 C 
BRANCH   6   7
ATOM      7  C   LIG    1       -3.979   0.503   2.690  0.00  0.00    +0.270 C 
BRANCH   7   8
ATOM      8  C   LIG    1       -4.746   1.103   3.841  0.00  0.00    +0.090 A 
ATOM      9  C   LIG    1       -6.011   1.614   3.626  0.00  0.00    -0.010 A 
ATOM     10  C   LIG    1       -6.710   2.159   4.693  0.00  0.00    +0.070 A 
ATOM     11  C   LIG    1       -6.102   2.179   5.938  0.00  0.00    -0.030 A 
ATOM     12  C   LIG    1       -4.831   1.653   6.076  0.00  0.00    +0.260 A 
ATOM     13  N   LIG    1       -4.198   1.138   5.040  0.00  0.00    -0.470 NA
ENDBRANCH   7   8
BRANCH   7  14
ATOM     14  O   LIG    1       -3.780  -0.892   2.925  0.00  0.00    -0.550 OA
ATOM     15  H   LIG    1       -3.283  -1.088   3.732  0.00  0.00    +0.390 HD
ENDBRANCH   7  14
ENDBRANCH   6   7
ENDBRANCH   4   6
ENDBRANCH   1   3
BRANCH   1  16
ATOM     16  C   LIG    1       -0.832   0.955  -1.407  0.00  0.00    +0.090 C 
BRANCH  16  17
ATOM     17  C   LIG    1       -0.189   0.316  -2.612  0.00  0.00    -0.080 A 
ATOM     18  C   LIG    1        0.641   1.060  -3.428  0.00  0.00    +0.010 A 
ATOM     19  C   LIG    1        1.235   0.473  -4.530  0.00  0.00    +0.000 A 
ATOM     20  C   LIG    1        0.990  -0.856  -4.821  0.00  0.00    +0.000 A 
ATOM     21  C   LIG    1        0.155  -1.599  -4.008  0.00  0.00    +0.000 A 
ATOM     22  C   LIG    1       -0.435  -1.013  -2.903  0.00  0.00    +0.000 A 
ENDBRANCH  16  17
ENDBRANCH   1  16
BRANCH   1  23
ATOM     23  C   LIG    1        1.367   1.355  -0.290  0.00  0.00    +0.100 C 
BRANCH  23  24
ATOM     24  C   LIG    1        2.257   0.931   0.849  0.00  0.00    -0.090 A 
ATOM     25  C   LIG    1        2.381   1.736   1.966  0.00  0.00    +0.050 A 
ATOM     26  C   LIG    1        3.193   1.345   3.014  0.00  0.00    -0.010 A 
ATOM     27  C   LIG    1        3.890   0.153   2.940  0.00  0.00    +0.000 A 
ATOM     28  C   LIG    1        3.770  -0.650   1.821  0.00  0.00    -0.010 A 
ATOM     29  C   LIG    1        2.953  -0.261   0.775  0.00  0.00    +0.000 A 
ENDBRANCH  23  24
ENDBRANCH   1  23
TORSDOF 9
