REMARK  Name = ZINCvU00000009pX.0
REMARK                            x       y       z     vdW  Elec       q    Type
REMARK                         _______ _______ _______ _____ _____    ______ ____
ROOT
ATOM      1  C   LIG    1       -6.356  -0.385  -0.157  0.00  0.00    +0.280 A 
ATOM      2  N   LIG    1       -5.073  -0.187  -0.014  0.00  0.00    -0.490 NA
ATOM      3  C   LIG    1       -4.804   1.123  -0.094  0.00  0.00    +0.270 A 
ATOM      4  N   LIG    1       -5.929   1.772  -0.301  0.00  0.00    -0.290 NA
ATOM      5  N   LIG    1       -6.949   0.808  -0.344  0.00  0.00    -0.360 N 
ENDROOT
BRANCH   3   6
ATOM      6  C   LIG    1       -3.459   1.739   0.024  0.00  0.00    -0.010 A 
ATOM      7  C   LIG    1       -2.354   0.938   0.241  0.00  0.00    +0.110 A 
ATOM      8  C   LIG    1       -1.086   1.528   0.346  0.00  0.00    -0.110 A 
ATOM      9  C   LIG    1        0.065   0.749   0.574  0.00  0.00    +0.090 A 
ATOM     10  C   LIG    1        1.268   1.389   0.671  0.00  0.00    -0.040 A 
ATOM     11  C   LIG    1        1.329   2.775   0.550  0.00  0.00    +0.300 A 
ATOM     12  N   LIG    1        0.254   3.498   0.343  0.00  0.00    -0.480 NA
ATOM     13  C   LIG    1       -0.953   2.935   0.238  0.00  0.00    +0.140 A 
ATOM     14  C   LIG    1       -2.099   3.721   0.016  0.00  0.00    +0.050 A 
ATOM     15  C   LIG    1       -3.319   3.132  -0.087  0.00  0.00    +0.070 A 
ENDBRANCH   3   6
BRANCH   5  16
ATOM     16  C   LIG    1       -8.378   1.053  -0.553  0.00  0.00    +0.240 C 
ATOM     17  C   LIG    1       -8.911   2.073   0.482  0.00  0.00    +0.030 C 
ATOM     18  C   LIG    1       -8.880   3.398  -0.322  0.00  0.00    +0.220 C 
ATOM     19  O   LIG    1       -9.264   2.993  -1.653  0.00  0.00    -0.360 OA
ATOM     20  C   LIG    1       -8.615   1.737  -1.914  0.00  0.00    +0.150 C 
ATOM     21  C   LIG    1       -9.512   0.860  -2.789  0.00  0.00    +0.070 C 
ENDBRANCH   5  16
BRANCH   1  23
ATOM     22  C   LIG    1       -7.139  -2.215   1.323  0.00  0.00    +0.070 C 
ATOM     23  C   LIG    1       -7.053  -1.721  -0.123  0.00  0.00    +0.260 C 
BRANCH  23  24
ATOM     24  O   LIG    1       -6.314  -2.663  -0.904  0.00  0.00    -0.280 OA
BRANCH  24  25
ATOM     25  C   LIG    1       -7.005  -3.715  -1.418  0.00  0.00    +0.150 A 
ATOM     26  C   LIG    1       -8.338  -3.901  -1.082  0.00  0.00    -0.070 A 
ATOM     27  C   LIG    1       -9.040  -4.968  -1.610  0.00  0.00    +0.070 A 
ATOM     28  C   LIG    1       -8.412  -5.856  -2.463  0.00  0.00    -0.010 A 
ATOM     29  C   LIG    1       -7.081  -5.676  -2.795  0.00  0.00    +0.090 A 
ATOM     30  C   LIG    1       -6.376  -4.608  -2.275  0.00  0.00    -0.120 A 
ATOM     31 BR   LIG    1       -4.557  -4.362  -2.730  0.00  0.00    -0.030 Br
ENDBRANCH  24  25
ENDBRANCH  23  24
ENDBRANCH   1  23
TORSDOF 5
