REMARK  Name = ZINCpk000000pFpS.0
REMARK                            x       y       z     vdW  Elec       q    Type
REMARK                         _______ _______ _______ _____ _____    ______ ____
ROOT
ATOM      1  C   LIG    1       -0.545   1.551  -1.578  0.00  0.00    +0.520 C 
ATOM      2  N   LIG    1       -1.803   1.390  -2.034  0.00  0.00    -0.590 N 
ATOM      3  C   LIG    1       -2.767   0.723  -1.185  0.00  0.00    +0.280 C 
ATOM      4  C   LIG    1       -2.751  -0.798  -1.479  0.00  0.00    +0.020 C 
ATOM      5  C   LIG    1       -3.317  -1.052  -2.818  0.00  0.00    +0.170 C 
ATOM      6  N   LIG    1       -2.566  -0.444  -3.916  0.00  0.00    -0.510 NA
ATOM      7  C   LIG    1       -3.022   0.908  -4.159  0.00  0.00    +0.190 C 
ATOM      8  C   LIG    1       -2.139   1.906  -3.378  0.00  0.00    +0.260 C 
ATOM      9  O   LIG    1       -0.215   1.056  -0.522  0.00  0.00    -0.520 OA
ENDROOT
BRANCH   1  10
ATOM     10  C   LIG    1        0.451   2.348  -2.381  0.00  0.00    +0.160 C 
BRANCH  10  12
ATOM     11  C   LIG    1        0.970   4.607  -3.313  0.00  0.00    +0.020 C 
ATOM     12  C   LIG    1        0.040   3.822  -2.386  0.00  0.00    +0.020 C 
ENDBRANCH  10  12
BRANCH  10  13
ATOM     13  O   LIG    1        1.748   2.217  -1.796  0.00  0.00    -0.280 OA
BRANCH  13  14
ATOM     14  C   LIG    1        2.805   2.150  -2.648  0.00  0.00    +0.130 A 
ATOM     15  C   LIG    1        2.594   2.166  -4.019  0.00  0.00    -0.080 A 
ATOM     16  C   LIG    1        3.671   2.098  -4.883  0.00  0.00    +0.030 A 
ATOM     17  C   LIG    1        4.956   2.014  -4.382  0.00  0.00    -0.030 A 
ATOM     18  C   LIG    1        5.169   1.997  -3.015  0.00  0.00    +0.050 A 
ATOM     19  C   LIG    1        4.096   2.071  -2.148  0.00  0.00    -0.110 A 
ATOM     20  C   LIG    1        4.329   2.060  -0.659  0.00  0.00    +0.090 C 
ENDBRANCH  13  14
ENDBRANCH  10  13
ENDBRANCH   1  10
BRANCH   6  21
ATOM     21  C   LIG    1       -2.663  -1.259  -5.134  0.00  0.00    +0.260 C 
BRANCH  21  22
ATOM     22  C   LIG    1       -4.095  -1.294  -5.603  0.00  0.00    +0.480 C 
ATOM     23  N   LIG    1       -4.431  -2.015  -6.691  0.00  0.00    -0.730 N 
ATOM     24  H   LIG    1       -3.751  -2.513  -7.172  0.00  0.00    +0.400 HD
ATOM     25  C   LIG    1       -5.823  -2.049  -7.146  0.00  0.00    +0.280 C 
ATOM     26  O   LIG    1       -4.945  -0.672  -5.001  0.00  0.00    -0.540 OA
ENDBRANCH  21  22
ENDBRANCH   6  21
TORSDOF 6
