REMARK  Name = ZINCkj00000dE7sD.0
REMARK                            x       y       z     vdW  Elec       q    Type
REMARK                         _______ _______ _______ _____ _____    ______ ____
ROOT
ATOM      1  C   LIG    1       -1.672   4.715   0.041  0.00  0.00    +0.590 C 
ATOM      2  N   LIG    1       -3.005   4.514   0.052  0.00  0.00    -0.710 N 
ATOM      3  H   LIG    1       -3.359   3.611   0.051  0.00  0.00    +0.410 HD
ATOM      4  O   LIG    1       -1.227   5.848   0.042  0.00  0.00    -0.490 OA
ENDROOT
BRANCH   2   5
ATOM      5  C   LIG    1       -3.918   5.660   0.065  0.00  0.00    +0.250 C 
ATOM      6  C   LIG    1       -4.203   6.151  -1.370  0.00  0.00    +0.090 C 
ATOM      7  C   LIG    1       -5.648   6.602  -1.354  0.00  0.00    -0.080 A 
ATOM      8  C   LIG    1       -6.346   7.408  -2.239  0.00  0.00    +0.020 A 
ATOM      9  C   LIG    1       -7.681   7.690  -2.021  0.00  0.00    +0.030 A 
ATOM     10  C   LIG    1       -8.326   7.168  -0.916  0.00  0.00    -0.010 A 
ATOM     11  C   LIG    1       -7.631   6.362  -0.028  0.00  0.00    +0.120 A 
ATOM     12  C   LIG    1       -6.289   6.078  -0.248  0.00  0.00    -0.130 A 
ATOM     13  C   LIG    1       -5.319   5.239   0.556  0.00  0.00    +0.090 C 
BRANCH  11  14
ATOM     14  O   LIG    1       -8.265   5.848   1.059  0.00  0.00    -0.500 OA
ATOM     15  H   LIG    1       -8.675   4.986   0.904  0.00  0.00    +0.390 HD
ENDBRANCH  11  14
ENDBRANCH   2   5
BRANCH   1  19
ATOM     16  C   LIG    1       -0.018   1.503   0.010  0.00  0.00    -0.090 A 
ATOM     17  C   LIG    1        1.069   2.305   0.004  0.00  0.00    +0.030 A 
ATOM     18  C   LIG    1        0.606   3.630   0.015  0.00  0.00    +0.050 A 
ATOM     19  C   LIG    1       -0.758   3.568   0.027  0.00  0.00    -0.020 A 
ATOM     20  O   LIG    1       -1.118   2.268   0.019  0.00  0.00    -0.160 OA
BRANCH  16  21
ATOM     21  C   LIG    1        0.002  -0.004   0.002  0.00  0.00    +0.400 C 
BRANCH  21  22
ATOM     22  N   LIG    1        0.022  -0.501   1.384  0.00  0.00    -0.640 N 
ATOM     23  H   LIG    1        0.846  -0.156   1.854  0.00  0.00    +0.440 HD
ATOM     24  H   LIG    1        0.036  -1.510   1.379  0.00  0.00    +0.440 HD
ATOM     25  H   LIG    1       -0.802  -0.179   1.869  0.00  0.00    +0.440 HD
ENDBRANCH  21  22
ENDBRANCH  16  21
ENDBRANCH   1  19
TORSDOF 5
