REMARK  Name = ZINCqH0000050gAN.0
REMARK                            x       y       z     vdW  Elec       q    Type
REMARK                         _______ _______ _______ _____ _____    ______ ____
ROOT
ATOM      1  N   LIG    1        4.533  -0.817   2.642  0.00  0.00    -0.630 N 
ATOM      2  H   LIG    1        3.841  -1.338   3.079  0.00  0.00    +0.420 HD
ATOM      3  C   LIG    1        4.215  -0.001   1.617  0.00  0.00    +0.540 C 
ATOM      4  O   LIG    1        5.080   0.650   1.070  0.00  0.00    -0.480 OA
ENDROOT
BRANCH   1  13
ATOM      5  C   LIG    1        5.819  -4.254   6.942  0.00  0.00    +0.110 C 
ATOM      6  C   LIG    1        6.485  -3.295   5.990  0.00  0.00    -0.080 A 
ATOM      7  C   LIG    1        7.869  -3.079   6.073  0.00  0.00    +0.030 A 
ATOM      8  C   LIG    1        8.495  -2.196   5.199  0.00  0.00    +0.060 A 
ATOM      9  C   LIG    1        7.742  -1.527   4.242  0.00  0.00    +0.140 A 
ATOM     10  N   LIG    1        8.050  -0.618   3.261  0.00  0.00    -0.500 N 
ATOM     11  H   LIG    1        8.937  -0.272   3.074  0.00  0.00    +0.450 HD
ATOM     12  N   LIG    1        6.883  -0.275   2.571  0.00  0.00    -0.220 NA
ATOM     13  C   LIG    1        5.860  -0.913   3.075  0.00  0.00    +0.310 A 
ATOM     14  C   LIG    1        6.353  -1.752   4.168  0.00  0.00    -0.150 A 
ATOM     15  C   LIG    1        5.739  -2.644   5.055  0.00  0.00    +0.100 A 
BRANCH   7  16
ATOM     16  C   LIG    1        8.640  -3.770   7.061  0.00  0.00    +0.250 C 
ATOM     17  N   LIG    1        9.252  -4.319   7.846  0.00  0.00    -0.400 NA
ENDBRANCH   7  16
ENDBRANCH   1  13
BRANCH   3  18
ATOM     18  C   LIG    1        2.786   0.102   1.151  0.00  0.00    -0.030 C 
ATOM     19  C   LIG    1        2.449  -0.469  -0.227  0.00  0.00    +0.100 C 
ATOM     20  C   LIG    1        2.490   1.046  -0.016  0.00  0.00    +0.060 C 
BRANCH  20  21
ATOM     21  C   LIG    1        1.175   1.782   0.000  0.00  0.00    -0.060 A 
ATOM     22  C   LIG    1       -0.013   1.076   0.008  0.00  0.00    +0.040 A 
ATOM     23  C   LIG    1       -1.220   1.750   0.017  0.00  0.00    +0.040 A 
ATOM     24  C   LIG    1       -1.241   3.132   0.030  0.00  0.00    +0.020 A 
ATOM     25  C   LIG    1       -0.053   3.842   0.022  0.00  0.00    +0.070 A 
ATOM     26  F   LIG    1       -0.073   5.193   0.030  0.00  0.00    -0.130 F 
ATOM     27  C   LIG    1        1.157   3.166   0.008  0.00  0.00    +0.080 A 
ATOM     28  F   LIG    1        2.318   3.858  -0.000  0.00  0.00    -0.120 F 
ENDBRANCH  20  21
ENDBRANCH   3  18
TORSDOF 4
