REMARK  Name = ZINCb800000011iS.0
REMARK                            x       y       z     vdW  Elec       q    Type
REMARK                         _______ _______ _______ _____ _____    ______ ____
ROOT
ATOM      1  N   LIG    1       -0.920   1.705  -3.501  0.00  0.00    -0.870 N 
ATOM      2  H   LIG    1       -0.594   1.480  -4.386  0.00  0.00    +0.420 HD
ATOM      3  H   LIG    1       -1.715   2.251  -3.401  0.00  0.00    +0.400 HD
ATOM      4  C   LIG    1       -0.268   1.258  -2.409  0.00  0.00    +0.710 C 
ATOM      5  N   LIG    1       -0.721   1.571  -1.179  0.00  0.00    -0.740 N 
ATOM      6  H   LIG    1       -1.516   2.118  -1.079  0.00  0.00    +0.400 HD
ATOM      7  O   LIG    1        0.729   0.574  -2.534  0.00  0.00    -0.590 OA
ENDROOT
BRANCH   5   8
ATOM      8  C   LIG    1       -0.013   1.086   0.008  0.00  0.00    +0.340 C 
BRANCH   8   9
ATOM      9  C   LIG    1       -0.718   1.572   1.248  0.00  0.00    -0.070 A 
ATOM     10  C   LIG    1       -0.372   2.780   1.834  0.00  0.00    -0.010 A 
ATOM     11  C   LIG    1       -1.044   3.195   2.968  0.00  0.00    +0.260 A 
ATOM     12  N   LIG    1       -1.996   2.453   3.498  0.00  0.00    -0.480 NA
ATOM     13  C   LIG    1       -2.349   1.297   2.970  0.00  0.00    +0.260 A 
ATOM     14  C   LIG    1       -1.725   0.819   1.833  0.00  0.00    -0.010 A 
ENDBRANCH   8   9
ENDBRANCH   5   8
TORSDOF 2
