REMARK  Name = ZINCAx0000000ea6.0
REMARK                            x       y       z     vdW  Elec       q    Type
REMARK                         _______ _______ _______ _____ _____    ______ ____
ROOT
ATOM      1  C   LIG    1        0.177   1.845   1.761  0.00  0.00    +0.110 C 
ATOM      2  C   LIG    1        0.914   0.717   2.488  0.00  0.00    +0.170 C 
ATOM      3  N   LIG    1        2.307   0.666   2.018  0.00  0.00    -0.510 NA
ATOM      4  C   LIG    1        2.358   0.447   0.565  0.00  0.00    +0.160 C 
ATOM      5  C   LIG    1        1.606   1.578  -0.142  0.00  0.00    +0.240 C 
ATOM      6  C   LIG    1        0.819   3.188   2.116  0.00  0.00    +0.040 C 
ATOM      7  O   LIG    1        0.264   1.633   0.350  0.00  0.00    -0.370 OA
ENDROOT
BRANCH   1   8
ATOM      8  C   LIG    1       -1.292   1.853   2.188  0.00  0.00    +0.310 C 
BRANCH   8  10
ATOM      9  C   LIG    1       -3.312   3.130   1.711  0.00  0.00    +0.490 C 
ATOM     10  N   LIG    1       -1.997   2.931   1.490  0.00  0.00    -0.720 N 
ATOM     11  H   LIG    1       -1.518   3.502   0.869  0.00  0.00    +0.410 HD
ATOM     12  O   LIG    1       -3.911   2.416   2.487  0.00  0.00    -0.520 OA
BRANCH   9  13
ATOM     13  C   LIG    1       -4.037   4.239   0.993  0.00  0.00    +0.340 C 
BRANCH  13  23
ATOM     14  C   LIG    1       -6.312   2.675  -0.401  0.00  0.00    +0.190 C 
ATOM     15  C   LIG    1       -6.461   3.567   0.804  0.00  0.00    +0.290 A 
ATOM     16  N   LIG    1       -7.580   3.797   1.428  0.00  0.00    -0.490 NA
ATOM     17  C   LIG    1       -7.359   4.648   2.463  0.00  0.00    +0.050 A 
ATOM     18  C   LIG    1       -8.185   5.219   3.434  0.00  0.00    +0.070 A 
ATOM     19  C   LIG    1       -7.654   6.061   4.370  0.00  0.00    +0.000 A 
ATOM     20  C   LIG    1       -6.298   6.357   4.368  0.00  0.00    +0.030 A 
ATOM     21  C   LIG    1       -5.464   5.805   3.419  0.00  0.00    +0.010 A 
ATOM     22  C   LIG    1       -5.985   4.948   2.460  0.00  0.00    +0.060 A 
ATOM     23  N   LIG    1       -5.444   4.246   1.401  0.00  0.00    -0.480 N 
ENDBRANCH  13  23
ENDBRANCH   9  13
ENDBRANCH   8  10
ENDBRANCH   1   8
BRANCH   3  24
ATOM     24  C   LIG    1        3.066  -0.368   2.733  0.00  0.00    +0.200 C 
BRANCH  24  25
ATOM     25  C   LIG    1        4.512  -0.312   2.312  0.00  0.00    +0.520 C 
ATOM     26  N   LIG    1        5.378  -1.247   2.748  0.00  0.00    -0.580 N 
ATOM     27  O   LIG    1        4.895   0.576   1.579  0.00  0.00    -0.510 OA
BRANCH  26  28
ATOM     28  C   LIG    1        6.802  -1.135   2.424  0.00  0.00    +0.200 C 
ATOM     29  C   LIG    1        7.323   0.238   1.995  0.00  0.00    +0.030 C 
ATOM     30  C   LIG    1        7.177  -0.882   0.962  0.00  0.00    +0.010 C 
ENDBRANCH  26  28
BRANCH  26  31
ATOM     31  C   LIG    1        4.895  -2.377   3.546  0.00  0.00    +0.330 C 
BRANCH  31  32
ATOM     32  C   LIG    1        4.737  -3.586   2.661  0.00  0.00    -0.110 A 
ATOM     33  C   LIG    1        3.519  -3.849   2.061  0.00  0.00    +0.010 A 
ATOM     34  C   LIG    1        3.375  -4.955   1.245  0.00  0.00    +0.000 A 
ATOM     35  C   LIG    1        4.446  -5.805   1.037  0.00  0.00    +0.010 A 
ATOM     36  C   LIG    1        5.662  -5.545   1.641  0.00  0.00    +0.000 A 
ATOM     37  C   LIG    1        5.807  -4.436   2.453  0.00  0.00    +0.020 A 
ENDBRANCH  31  32
ENDBRANCH  26  31
ENDBRANCH  24  25
ENDBRANCH   3  24
TORSDOF 9
