REMARK  Name = ZINCvU0000000DLo.0
REMARK                            x       y       z     vdW  Elec       q    Type
REMARK                         _______ _______ _______ _____ _____    ______ ____
ROOT
ATOM      1  C   LIG    1        3.765   1.607   2.058  0.00  0.00    +0.530 C 
ATOM      2  N   LIG    1        3.368   2.067   0.855  0.00  0.00    -0.610 N 
ATOM      3  C   LIG    1        3.788   3.394   0.376  0.00  0.00    +0.300 C 
ATOM      4  C   LIG    1        4.674   3.210  -0.859  0.00  0.00    +0.120 C 
ATOM      5  C   LIG    1        4.029   2.201  -1.785  0.00  0.00    -0.170 A 
ATOM      6  C   LIG    1        3.070   1.325  -1.429  0.00  0.00    -0.110 A 
ATOM      7  C   LIG    1        2.651   0.498  -2.466  0.00  0.00    +0.020 A 
ATOM      8  C   LIG    1        3.247   0.697  -3.637  0.00  0.00    -0.040 A 
ATOM      9  S   LIG    1        4.423   1.994  -3.487  0.00  0.00    +0.110 S 
ATOM     10  C   LIG    1        2.504   1.257  -0.015  0.00  0.00    +0.410 C 
ATOM     11  O   LIG    1        3.410   0.511   2.435  0.00  0.00    -0.530 OA
ENDROOT
BRANCH  10  12
ATOM     12  C   LIG    1        1.102   1.808   0.001  0.00  0.00    -0.180 A 
ATOM     13  C   LIG    1       -0.013   1.076   0.008  0.00  0.00    +0.020 A 
ATOM     14  C   LIG    1       -1.190   1.804   0.017  0.00  0.00    +0.010 A 
ATOM     15  C   LIG    1       -1.031   3.129   0.029  0.00  0.00    -0.060 A 
ATOM     16  S   LIG    1        0.685   3.517   0.015  0.00  0.00    +0.110 S 
ENDBRANCH  10  12
BRANCH   1  17
ATOM     17  C   LIG    1        4.651   2.455   2.934  0.00  0.00    +0.070 C 
BRANCH  17  18
ATOM     18  C   LIG    1        4.952   1.704   4.233  0.00  0.00    +0.070 C 
BRANCH  18  20
ATOM     19  O   LIG    1        6.194   3.649   4.732  0.00  0.00    -0.450 OA
ATOM     20  C   LIG    1        5.838   2.552   5.109  0.00  0.00    +0.400 C 
BRANCH  20  21
ATOM     21  C   LIG    1        6.271   2.051   6.420  0.00  0.00    -0.170 A 
ATOM     22  C   LIG    1        5.862   0.785   6.857  0.00  0.00    +0.090 A 
ATOM     23  C   LIG    1        6.268   0.315   8.087  0.00  0.00    +0.010 A 
ATOM     24  C   LIG    1        7.084   1.098   8.893  0.00  0.00    +0.100 A 
ATOM     25  O   LIG    1        7.488   0.637  10.110  0.00  0.00    -0.320 OA
ATOM     26  C   LIG    1        8.880   0.343  10.237  0.00  0.00    +0.230 C 
ATOM     27  C   LIG    1        9.669   1.597  10.578  0.00  0.00    -0.010 C 
ATOM     28  C   LIG    1        9.627   2.629   9.462  0.00  0.00    +0.230 C 
ATOM     29  O   LIG    1        8.296   3.114   9.270  0.00  0.00    -0.320 OA
ATOM     30  C   LIG    1        7.495   2.357   8.465  0.00  0.00    +0.050 A 
ATOM     31  C   LIG    1        7.100   2.835   7.234  0.00  0.00    +0.090 A 
ENDBRANCH  20  21
ENDBRANCH  18  20
ENDBRANCH  17  18
ENDBRANCH   1  17
TORSDOF 5
