REMARK  Name = ZINCrH000004jn8S.0
REMARK                            x       y       z     vdW  Elec       q    Type
REMARK                         _______ _______ _______ _____ _____    ______ ____
ROOT
ATOM      1  C   LIG    1       -6.613   0.006   0.062  0.00  0.00    +0.060 C 
ENDROOT
BRANCH   1   2
ATOM      2  C   LIG    1       -5.159   0.405   0.052  0.00  0.00    +0.520 C 
ATOM      3  N   LIG    1       -4.818   1.709   0.055  0.00  0.00    -0.630 N 
ATOM      4  H   LIG    1       -5.508   2.390   0.064  0.00  0.00    +0.430 HD
ATOM      5  O   LIG    1       -4.297  -0.448   0.041  0.00  0.00    -0.460 OA
BRANCH   3   6
ATOM      6  C   LIG    1       -3.482   2.075   0.045  0.00  0.00    +0.330 A 
ATOM      7  N   LIG    1       -2.494   1.250   0.032  0.00  0.00    -0.460 NA
ATOM      8  C   LIG    1       -1.246   1.760   0.018  0.00  0.00    +0.100 A 
ATOM      9  C   LIG    1       -0.013   1.076   0.008  0.00  0.00    +0.080 A 
ATOM     10  C   LIG    1        1.169   1.774   0.000  0.00  0.00    +0.040 A 
ATOM     11  C   LIG    1        1.170   3.160   0.007  0.00  0.00    -0.070 A 
ATOM     12  C   LIG    1       -0.022   3.850   0.022  0.00  0.00    +0.060 A 
ATOM     13  C   LIG    1        2.476   3.913  -0.002  0.00  0.00    +0.110 C 
ATOM     14  C   LIG    1       -1.231   3.158   0.029  0.00  0.00    -0.170 A 
ATOM     15  S   LIG    1       -2.897   3.733   0.047  0.00  0.00    +0.060 S 
ENDBRANCH   3   6
ENDBRANCH   1   2
BRANCH   1  16
ATOM     16  C   LIG    1       -6.723  -1.520   0.057  0.00  0.00    +0.360 C 
BRANCH  16  19
ATOM     17  N   LIG    1      -10.149  -2.455  -0.636  0.00  0.00    -0.540 N 
ATOM     18  C   LIG    1       -8.905  -2.112  -1.019  0.00  0.00    +0.680 A 
ATOM     19  N   LIG    1       -8.136  -1.908   0.067  0.00  0.00    -0.540 N 
ATOM     20  C   LIG    1       -8.911  -2.134   1.202  0.00  0.00    +0.090 A 
ATOM     21  C   LIG    1       -8.646  -2.077   2.562  0.00  0.00    +0.030 A 
ATOM     22  C   LIG    1       -9.647  -2.363   3.470  0.00  0.00    +0.020 A 
ATOM     23  C   LIG    1      -10.913  -2.705   3.028  0.00  0.00    +0.020 A 
ATOM     24  C   LIG    1      -11.189  -2.756   1.675  0.00  0.00    +0.030 A 
ATOM     25  O   LIG    1       -8.532  -2.002  -2.172  0.00  0.00    -0.550 OA
ATOM     26  C   LIG    1      -10.189  -2.475   0.756  0.00  0.00    +0.090 A 
BRANCH  17  28
ATOM     27  C   LIG    1      -11.277  -4.253  -1.851  0.00  0.00    +0.030 C 
ATOM     28  C   LIG    1      -11.269  -2.757  -1.531  0.00  0.00    +0.310 C 
ENDBRANCH  17  28
ENDBRANCH  16  19
ENDBRANCH   1  16
TORSDOF 5
