REMARK  Name = ZINCtV000002HTxa.0
REMARK                            x       y       z     vdW  Elec       q    Type
REMARK                         _______ _______ _______ _____ _____    ______ ____
ROOT
ATOM      1  N   LIG    1       -0.558   4.417  -2.773  0.00  0.00    -0.680 N 
ATOM      2  H   LIG    1       -0.719   5.322  -2.461  0.00  0.00    +0.410 HD
ATOM      3  C   LIG    1        0.097   3.540  -1.987  0.00  0.00    +0.730 C 
ATOM      4  N   LIG    1        0.620   3.946  -0.814  0.00  0.00    -0.620 N 
ATOM      5  C   LIG    1        0.553   5.312  -0.273  0.00  0.00    +0.250 C 
ATOM      6  C   LIG    1        1.263   5.297   1.097  0.00  0.00    +0.050 C 
ATOM      7  C   LIG    1        1.195   3.802   1.508  0.00  0.00    +0.070 C 
ATOM      8  C   LIG    1        1.357   3.096   0.139  0.00  0.00    +0.360 C 
ATOM      9  O   LIG    1        0.214   2.381  -2.336  0.00  0.00    -0.550 OA
ENDROOT
BRANCH   1  14
ATOM     10  C   LIG    1       -2.369   2.824  -7.908  0.00  0.00    +0.100 C 
ATOM     11  C   LIG    1       -1.888   3.248  -6.545  0.00  0.00    -0.100 A 
ATOM     12  C   LIG    1       -2.615   4.167  -5.811  0.00  0.00    +0.030 A 
ATOM     13  C   LIG    1       -2.177   4.556  -4.560  0.00  0.00    -0.020 A 
ATOM     14  C   LIG    1       -1.005   4.024  -4.040  0.00  0.00    +0.160 A 
ATOM     15  C   LIG    1       -0.274   3.105  -4.781  0.00  0.00    +0.010 A 
ATOM     16  C   LIG    1       -0.720   2.716  -6.029  0.00  0.00    +0.020 A 
ENDBRANCH   1  14
BRANCH   8  17
ATOM     17  C   LIG    1        0.753   1.716   0.186  0.00  0.00    +0.190 A 
ATOM     18  N   LIG    1       -0.520   1.448   0.167  0.00  0.00    -0.440 NA
ATOM     19  C   LIG    1       -0.680   0.107   0.222  0.00  0.00    +0.030 A 
ATOM     20  C   LIG    1        0.556  -0.446   0.277  0.00  0.00    -0.010 A 
ATOM     21  O   LIG    1        1.441   0.569   0.253  0.00  0.00    -0.190 OA
BRANCH  19  22
ATOM     22  C   LIG    1       -1.972  -0.625   0.223  0.00  0.00    -0.000 A 
ATOM     23  C   LIG    1       -2.078  -1.855  -0.422  0.00  0.00    +0.020 A 
ATOM     24  C   LIG    1       -3.280  -2.534  -0.414  0.00  0.00    +0.010 A 
ATOM     25  C   LIG    1       -4.380  -1.989   0.223  0.00  0.00    +0.000 A 
ATOM     26  C   LIG    1       -4.281  -0.765   0.861  0.00  0.00    +0.000 A 
ATOM     27  C   LIG    1       -3.083  -0.081   0.863  0.00  0.00    +0.030 A 
ENDBRANCH  19  22
BRANCH  20  28
ATOM     28  C   LIG    1        0.878  -1.916   0.350  0.00  0.00    +0.090 C 
ATOM     29  C   LIG    1        1.661  -2.203   1.633  0.00  0.00    +0.040 C 
ATOM     30  C   LIG    1        1.722  -2.315  -0.863  0.00  0.00    +0.040 C 
ENDBRANCH  20  28
ENDBRANCH   8  17
TORSDOF 4
