REMARK  Name = ZINCpk000004AOQn.0
REMARK                            x       y       z     vdW  Elec       q    Type
REMARK                         _______ _______ _______ _____ _____    ______ ____
ROOT
ATOM      1  C   LIG    1       -1.603  -1.378  -0.120  0.00  0.00    +0.520 C 
ATOM      2  N   LIG    1       -2.209  -0.328  -0.709  0.00  0.00    -0.720 N 
ATOM      3  H   LIG    1       -2.482  -0.385  -1.638  0.00  0.00    +0.410 HD
ATOM      4  O   LIG    1       -1.263  -1.308   1.042  0.00  0.00    -0.520 OA
ENDROOT
BRANCH   2   5
ATOM      5  C   LIG    1       -2.457   0.897   0.054  0.00  0.00    +0.290 C 
ATOM      6  C   LIG    1       -3.695   1.575  -0.506  0.00  0.00    +0.090 C 
ATOM      7  C   LIG    1       -4.007   2.824   0.332  0.00  0.00    -0.300 C 
ATOM      8  S   LIG    1       -2.726   4.056  -0.040  0.00  0.00    +2.490 S 
ATOM      9  C   LIG    1       -1.226   3.126  -0.005  0.00  0.00    -0.630 A 
ATOM     10  C   LIG    1       -0.028   3.826  -0.008  0.00  0.00    +0.110 A 
ATOM     11  C   LIG    1        1.178   3.157  -0.015  0.00  0.00    +0.010 A 
ATOM     12  C   LIG    1        1.187   1.774  -0.020  0.00  0.00    +0.060 A 
ATOM     13  C   LIG    1       -0.002   1.080  -0.008  0.00  0.00    +0.010 A 
ATOM     14  O   LIG    1       -2.841   4.491  -1.388  0.00  0.00    -0.930 OA
ATOM     15  O   LIG    1       -2.589   4.988   1.025  0.00  0.00    -0.930 OA
ATOM     16  C   LIG    1       -1.224   1.751   0.004  0.00  0.00    -0.020 A 
ENDBRANCH   2   5
BRANCH   1  22
ATOM     17  C   LIG    1       -2.865  -4.742  -3.300  0.00  0.00    +0.550 C 
ATOM     18  N   LIG    1       -2.427  -4.506  -2.048  0.00  0.00    -0.610 N 
ATOM     19  C   LIG    1       -1.688  -5.536  -1.306  0.00  0.00    +0.260 C 
ATOM     20  C   LIG    1       -0.367  -4.937  -0.813  0.00  0.00    +0.010 C 
ATOM     21  C   LIG    1       -0.655  -3.667  -0.008  0.00  0.00    +0.060 C 
ATOM     22  C   LIG    1       -1.348  -2.639  -0.905  0.00  0.00    -0.010 C 
ATOM     23  C   LIG    1       -2.680  -3.212  -1.398  0.00  0.00    +0.300 C 
ATOM     24  O   LIG    1       -3.555  -3.918  -3.869  0.00  0.00    -0.540 OA
BRANCH  17  26
ATOM     25  C   LIG    1       -2.851  -6.188  -5.250  0.00  0.00    +0.160 C 
ATOM     26  C   LIG    1       -2.507  -5.998  -3.979  0.00  0.00    -0.090 C 
ENDBRANCH  17  26
ENDBRANCH   1  22
TORSDOF 3
