REMARK  Name = ZINCrH00000No4MM.0
REMARK                            x       y       z     vdW  Elec       q    Type
REMARK                         _______ _______ _______ _____ _____    ______ ____
ROOT
ATOM      1  C   LIG    1       -1.266   4.473   6.868  0.00  0.00    -0.010 C 
ATOM      2  C   LIG    1       -1.378   5.924   6.394  0.00  0.00    +0.060 C 
ENDROOT
BRANCH   1   5
ATOM      3  N   LIG    1       -1.919   3.521   4.680  0.00  0.00    -0.670 N 
ATOM      4  H   LIG    1       -2.755   4.008   4.752  0.00  0.00    +0.410 HD
ATOM      5  C   LIG    1       -1.020   3.575   5.683  0.00  0.00    +0.520 C 
ATOM      6  O   LIG    1       -0.013   2.901   5.632  0.00  0.00    -0.510 OA
BRANCH   3  11
ATOM      7  C   LIG    1       -0.813   0.448   0.042  0.00  0.00    +0.080 C 
ATOM      8  C   LIG    1       -1.107   1.264   1.274  0.00  0.00    -0.060 A 
ATOM      9  C   LIG    1       -0.675   0.825   2.511  0.00  0.00    +0.030 A 
ATOM     10  C   LIG    1       -0.942   1.571   3.643  0.00  0.00    +0.040 A 
ATOM     11  C   LIG    1       -1.646   2.763   3.536  0.00  0.00    +0.130 A 
ATOM     12  C   LIG    1       -2.080   3.201   2.291  0.00  0.00    +0.030 A 
ATOM     13  C   LIG    1       -1.805   2.453   1.164  0.00  0.00    -0.160 A 
BRANCH  13  14
ATOM     14  C   LIG    1       -2.269   2.931  -0.188  0.00  0.00    +0.440 C 
ATOM     15  F   LIG    1       -1.211   2.850  -1.100  0.00  0.00    -0.190 F 
ATOM     16  F   LIG    1       -2.700   4.258  -0.091  0.00  0.00    -0.200 F 
ENDBRANCH  13  14
ENDBRANCH   3  11
ENDBRANCH   1   5
BRANCH   1  17
ATOM     17  C   LIG    1       -0.102   4.347   7.853  0.00  0.00    +0.300 C 
BRANCH  17  18
ATOM     18  N   LIG    1       -0.396   5.127   9.058  0.00  0.00    -0.710 N 
ATOM     19  H   LIG    1       -1.230   5.617   9.127  0.00  0.00    +0.410 HD
ATOM     20  C   LIG    1        0.493   5.165  10.070  0.00  0.00    +0.570 C 
ATOM     21  O   LIG    1        1.539   4.551   9.983  0.00  0.00    -0.510 OA
BRANCH  20  22
ATOM     22  C   LIG    1        0.197   5.952  11.287  0.00  0.00    +0.050 A 
ATOM     23  N   LIG    1       -0.945   6.625  11.375  0.00  0.00    -0.440 NA
ATOM     24  C   LIG    1       -1.249   7.333  12.440  0.00  0.00    +0.260 A 
ATOM     25  C   LIG    1       -0.379   7.413  13.516  0.00  0.00    +0.030 A 
ATOM     26  C   LIG    1        0.827   6.732  13.467  0.00  0.00    -0.080 A 
ATOM     27  C   LIG    1        1.796   6.798  14.619  0.00  0.00    +0.130 C 
ATOM     28  C   LIG    1        1.121   5.987  12.332  0.00  0.00    +0.110 A 
ATOM     29  F   LIG    1        2.285   5.308  12.242  0.00  0.00    -0.100 F 
ENDBRANCH  20  22
ENDBRANCH  17  18
ENDBRANCH   1  17
TORSDOF 6
