REMARK  Name = ZINCrH000004usbl.0
REMARK                            x       y       z     vdW  Elec       q    Type
REMARK                         _______ _______ _______ _____ _____    ______ ____
ROOT
ATOM      1  O   LIG    1       -0.509  10.144   0.381  0.00  0.00    -0.520 OA
ATOM      2  C   LIG    1        0.050   9.441  -0.435  0.00  0.00    +0.530 C 
ATOM      3  N   LIG    1       -0.254   8.131  -0.517  0.00  0.00    -0.720 N 
ATOM      4  H   LIG    1        0.193   7.569  -1.169  0.00  0.00    +0.410 HD
ENDROOT
BRANCH   2   5
ATOM      5  C   LIG    1        1.086  10.033  -1.355  0.00  0.00    +0.090 C 
BRANCH   5   6
ATOM      6  C   LIG    1        2.406   9.338  -1.140  0.00  0.00    -0.080 A 
ATOM      7  C   LIG    1        2.924   9.219   0.136  0.00  0.00    +0.010 A 
ATOM      8  C   LIG    1        4.132   8.578   0.334  0.00  0.00    +0.010 A 
ATOM      9  C   LIG    1        4.827   8.064  -0.745  0.00  0.00    +0.010 A 
ATOM     10  C   LIG    1        4.311   8.187  -2.021  0.00  0.00    +0.000 A 
ATOM     11  C   LIG    1        3.101   8.825  -2.219  0.00  0.00    +0.010 A 
ENDBRANCH   5   6
BRANCH   5  12
ATOM     12  C   LIG    1        1.238  11.503  -1.061  0.00  0.00    -0.070 A 
ATOM     13  C   LIG    1        1.506  11.926   0.228  0.00  0.00    +0.040 A 
ATOM     14  C   LIG    1        1.650  13.274   0.498  0.00  0.00    +0.000 A 
ATOM     15  C   LIG    1        1.517  14.200  -0.520  0.00  0.00    +0.000 A 
ATOM     16  C   LIG    1        1.245  13.778  -1.808  0.00  0.00    +0.000 A 
ATOM     17  C   LIG    1        1.106  12.430  -2.078  0.00  0.00    +0.010 A 
ENDBRANCH   5  12
ENDBRANCH   2   5
BRANCH   3  18
ATOM     18  C   LIG    1       -1.261   7.555   0.378  0.00  0.00    +0.310 C 
BRANCH  18  19
ATOM     19  C   LIG    1       -1.416   6.063   0.079  0.00  0.00    +0.130 C 
ATOM     20  C   LIG    1       -2.556   5.481   0.925  0.00  0.00    +0.240 C 
ATOM     21  O   LIG    1       -2.664   4.084   0.631  0.00  0.00    -0.300 OA
ATOM     22  C   LIG    1       -1.504   3.373   0.605  0.00  0.00    +0.050 A 
ATOM     23  C   LIG    1       -1.552   1.989   0.683  0.00  0.00    +0.030 A 
ATOM     24  C   LIG    1       -0.381   1.254   0.661  0.00  0.00    +0.020 A 
ATOM     25  C   LIG    1        0.838   1.894   0.548  0.00  0.00    +0.020 A 
ATOM     26  C   LIG    1        0.892   3.273   0.464  0.00  0.00    +0.020 A 
ATOM     27  C   LIG    1       -0.277   4.017   0.494  0.00  0.00    +0.050 A 
ATOM     28  O   LIG    1       -0.208   5.374   0.419  0.00  0.00    -0.300 OA
ENDBRANCH  18  19
ENDBRANCH   3  18
TORSDOF 5
