REMARK  Name = ZINCvU00000008Wn.0
REMARK                            x       y       z     vdW  Elec       q    Type
REMARK                         _______ _______ _______ _____ _____    ______ ____
ROOT
ATOM      1  C   LIG    1        4.831   1.501  -0.248  0.00  0.00    -0.150 A 
ATOM      2  C   LIG    1        4.843   0.116  -0.249  0.00  0.00    +0.120 A 
ATOM      3  C   LIG    1        6.063  -0.565  -0.375  0.00  0.00    -0.090 A 
ATOM      4  C   LIG    1        6.112  -1.970  -0.386  0.00  0.00    +0.040 A 
ATOM      5  C   LIG    1        7.311  -2.602  -0.503  0.00  0.00    +0.000 A 
ATOM      6  C   LIG    1        8.496  -1.876  -0.614  0.00  0.00    +0.040 A 
ATOM      7  C   LIG    1        8.488  -0.515  -0.608  0.00  0.00    +0.000 A 
ATOM      8  C   LIG    1        7.269   0.174  -0.489  0.00  0.00    +0.010 A 
ATOM      9  C   LIG    1        7.230   1.579  -0.480  0.00  0.00    -0.080 A 
ATOM     10  C   LIG    1        6.036   2.226  -0.362  0.00  0.00    +0.180 A 
ENDROOT
BRANCH   1  13
ATOM     11  N   LIG    1        2.396   1.534  -0.012  0.00  0.00    -0.670 N 
ATOM     12  H   LIG    1        2.413   0.566   0.049  0.00  0.00    +0.410 HD
ATOM     13  C   LIG    1        3.550   2.223  -0.121  0.00  0.00    +0.550 C 
ATOM     14  O   LIG    1        3.535   3.438  -0.115  0.00  0.00    -0.480 OA
BRANCH  11  21
ATOM     15  C   LIG    1        0.145   0.301  -1.240  0.00  0.00    +0.080 C 
ATOM     16  C   LIG    1        0.051   1.649  -0.574  0.00  0.00    -0.110 A 
ATOM     17  C   LIG    1       -1.153   2.327  -0.552  0.00  0.00    +0.030 A 
ATOM     18  C   LIG    1       -1.241   3.562   0.064  0.00  0.00    -0.010 A 
ATOM     19  C   LIG    1       -0.124   4.128   0.649  0.00  0.00    +0.020 A 
ATOM     20  C   LIG    1        1.084   3.458   0.625  0.00  0.00    +0.020 A 
ATOM     21  C   LIG    1        1.175   2.215   0.013  0.00  0.00    +0.150 A 
ENDBRANCH  11  21
ENDBRANCH   1  13
BRANCH  10  22
ATOM     22  O   LIG    1        6.006   3.583  -0.354  0.00  0.00    -0.260 OA
BRANCH  22  23
ATOM     23  C   LIG    1        7.259   4.261  -0.473  0.00  0.00    +0.210 C 
BRANCH  23  24
ATOM     24  C   LIG    1        7.029   5.750  -0.445  0.00  0.00    +0.510 C 
ATOM     25  N   LIG    1        8.075   6.595  -0.543  0.00  0.00    -0.730 N 
ATOM     26  H   LIG    1        8.975   6.244  -0.631  0.00  0.00    +0.400 HD
ATOM     27  O   LIG    1        5.904   6.188  -0.334  0.00  0.00    -0.500 OA
BRANCH  25  28
ATOM     28  C   LIG    1        7.852   8.042  -0.516  0.00  0.00    +0.240 C 
ATOM     29  C   LIG    1        7.512   8.532  -1.925  0.00  0.00    +0.000 C 
ATOM     30  C   LIG    1        7.280  10.044  -1.896  0.00  0.00    +0.020 C 
ATOM     31  C   LIG    1        8.547  10.746  -1.404  0.00  0.00    +0.000 C 
ATOM     32  C   LIG    1        8.886  10.256   0.005  0.00  0.00    +0.020 C 
ATOM     33  C   LIG    1        9.119   8.744  -0.023  0.00  0.00    +0.010 C 
ENDBRANCH  25  28
ENDBRANCH  23  24
ENDBRANCH  22  23
ENDBRANCH  10  22
TORSDOF 6
