REMARK  Name = ZINCqH0000002xCp.1
REMARK                            x       y       z     vdW  Elec       q    Type
REMARK                         _______ _______ _______ _____ _____    ______ ____
ROOT
ATOM      1  N   LIG    1       -0.011   0.966   0.007  0.00  0.00    -0.670 N 
ATOM      2  H   LIG    1       -0.771   1.378   0.447  0.00  0.00    +0.410 HD
ATOM      3  C   LIG    1       -0.140  -0.247  -0.566  0.00  0.00    +0.600 C 
ATOM      4  O   LIG    1        0.832  -0.800  -1.044  0.00  0.00    -0.520 OA
ENDROOT
BRANCH   1  10
ATOM      5  C   LIG    1        5.709   2.268   0.003  0.00  0.00    +0.290 A 
ATOM      6  N   LIG    1        4.960   3.326  -0.101  0.00  0.00    -0.490 NA
ATOM      7  C   LIG    1        3.651   2.962  -0.095  0.00  0.00    +0.040 A 
ATOM      8  C   LIG    1        2.454   3.678  -0.178  0.00  0.00    +0.080 A 
ATOM      9  C   LIG    1        1.260   3.016  -0.149  0.00  0.00    -0.010 A 
ATOM     10  C   LIG    1        1.222   1.628  -0.026  0.00  0.00    +0.160 A 
ATOM     11  C   LIG    1        2.397   0.901   0.058  0.00  0.00    +0.030 A 
ATOM     12  C   LIG    1        3.616   1.562   0.024  0.00  0.00    +0.060 A 
ATOM     13  N   LIG    1        4.934   1.152   0.083  0.00  0.00    -0.600 N 
ATOM     14  H   LIG    1        5.248   0.238   0.167  0.00  0.00    +0.420 HD
BRANCH   5  15
ATOM     15  C   LIG    1        7.216   2.276   0.030  0.00  0.00    +0.140 C 
BRANCH  15  16
ATOM     16  C   LIG    1        7.745   3.003  -1.208  0.00  0.00    +0.030 C 
BRANCH  16  18
ATOM     17  C   LIG    1        9.803   3.738  -2.418  0.00  0.00    +0.010 C 
ATOM     18  C   LIG    1        9.274   3.011  -1.180  0.00  0.00    +0.000 C 
ENDBRANCH  16  18
ENDBRANCH  15  16
ENDBRANCH   5  15
ENDBRANCH   1  10
BRANCH   3  19
ATOM     19  C   LIG    1       -1.459  -0.902  -0.615  0.00  0.00    -0.290 A 
ATOM     20  C   LIG    1       -2.643  -0.401  -0.113  0.00  0.00    +0.300 A 
ATOM     21  N   LIG    1       -3.603  -1.305  -0.366  0.00  0.00    -0.460 N 
ATOM     22  H   LIG    1       -4.539  -1.220  -0.127  0.00  0.00    +0.450 HD
ATOM     23  N   LIG    1       -3.023  -2.394  -1.026  0.00  0.00    -0.270 NA
ATOM     24  C   LIG    1       -1.748  -2.165  -1.180  0.00  0.00    +0.130 A 
BRANCH  24  25
ATOM     25  C   LIG    1       -0.757  -3.086  -1.844  0.00  0.00    +0.280 C 
ATOM     26  C   LIG    1       -0.949  -3.046  -3.375  0.00  0.00    +0.030 C 
ATOM     27  C   LIG    1       -0.744  -4.535  -3.771  0.00  0.00    +0.010 C 
ATOM     28  C   LIG    1       -1.342  -5.254  -2.535  0.00  0.00    +0.200 C 
ATOM     29  O   LIG    1       -0.981  -4.433  -1.413  0.00  0.00    -0.370 OA
ENDBRANCH  24  25
ENDBRANCH   3  19
TORSDOF 6
