REMARK  Name = ZINCqH0000002xCp.0
REMARK                            x       y       z     vdW  Elec       q    Type
REMARK                         _______ _______ _______ _____ _____    ______ ____
ROOT
ATOM      1  N   LIG    1       -5.776   3.762  -2.488  0.00  0.00    -0.670 N 
ATOM      2  H   LIG    1       -5.586   4.173  -3.345  0.00  0.00    +0.410 HD
ATOM      3  C   LIG    1       -4.883   3.854  -1.483  0.00  0.00    +0.600 C 
ATOM      4  O   LIG    1       -5.161   3.424  -0.380  0.00  0.00    -0.520 OA
ENDROOT
BRANCH   1   9
ATOM      5  C   LIG    1      -11.365   2.053  -2.725  0.00  0.00    +0.290 A 
ATOM      6  N   LIG    1      -10.588   2.974  -3.215  0.00  0.00    -0.490 NA
ATOM      7  C   LIG    1       -9.327   2.809  -2.740  0.00  0.00    +0.070 A 
ATOM      8  C   LIG    1       -8.127   3.498  -2.936  0.00  0.00    +0.030 A 
ATOM      9  C   LIG    1       -6.980   3.072  -2.293  0.00  0.00    +0.150 A 
ATOM     10  C   LIG    1       -7.013   1.959  -1.456  0.00  0.00    +0.040 A 
ATOM     11  C   LIG    1       -8.192   1.275  -1.252  0.00  0.00    +0.040 A 
ATOM     12  C   LIG    1       -9.352   1.690  -1.890  0.00  0.00    +0.030 A 
ATOM     13  N   LIG    1      -10.657   1.233  -1.902  0.00  0.00    -0.600 N 
ATOM     14  H   LIG    1      -11.003   0.470  -1.413  0.00  0.00    +0.420 HD
BRANCH   5  15
ATOM     15  C   LIG    1      -12.835   1.914  -3.025  0.00  0.00    +0.140 C 
BRANCH  15  16
ATOM     16  C   LIG    1      -13.547   3.230  -2.706  0.00  0.00    +0.030 C 
BRANCH  16  18
ATOM     17  C   LIG    1      -15.752   4.405  -2.691  0.00  0.00    +0.020 C 
ATOM     18  C   LIG    1      -15.040   3.089  -3.010  0.00  0.00    +0.000 C 
ENDBRANCH  16  18
ENDBRANCH  15  16
ENDBRANCH   5  15
ENDBRANCH   1   9
BRANCH   3  19
ATOM     19  C   LIG    1       -3.568   4.478  -1.721  0.00  0.00    -0.280 A 
ATOM     20  C   LIG    1       -3.116   5.008  -2.913  0.00  0.00    +0.300 A 
ATOM     21  N   LIG    1       -1.875   5.473  -2.701  0.00  0.00    -0.450 N 
ATOM     22  H   LIG    1       -1.309   5.900  -3.362  0.00  0.00    +0.450 HD
ATOM     23  N   LIG    1       -1.537   5.242  -1.363  0.00  0.00    -0.270 NA
ATOM     24  C   LIG    1       -2.535   4.645  -0.772  0.00  0.00    +0.140 A 
BRANCH  24  25
ATOM     25  C   LIG    1       -2.581   4.215   0.672  0.00  0.00    +0.270 C 
ATOM     26  C   LIG    1       -2.708   5.450   1.599  0.00  0.00    +0.030 C 
ATOM     27  C   LIG    1       -2.100   4.894   2.918  0.00  0.00    +0.010 C 
ATOM     28  C   LIG    1       -1.008   3.937   2.395  0.00  0.00    +0.190 C 
ATOM     29  O   LIG    1       -1.342   3.591   1.046  0.00  0.00    -0.370 OA
ENDBRANCH  24  25
ENDBRANCH   3  19
TORSDOF 6
