REMARK  Name = ZINCrD00000hQ5KT.0
REMARK                            x       y       z     vdW  Elec       q    Type
REMARK                         _______ _______ _______ _____ _____    ______ ____
ROOT
ATOM      1  C   LIG    1       -8.106   7.421   3.544  0.00  0.00    +0.340 C 
ATOM      2  C   LIG    1       -7.609   6.824   4.865  0.00  0.00    +0.240 C 
ATOM      3  O   LIG    1       -7.621   5.397   4.772  0.00  0.00    -0.360 OA
ATOM      4  C   LIG    1       -6.748   4.869   3.770  0.00  0.00    +0.220 C 
ATOM      5  C   LIG    1       -7.207   5.366   2.389  0.00  0.00    +0.260 C 
ATOM      6  N   LIG    1       -7.325   6.831   2.445  0.00  0.00    -0.610 N 
ATOM      7  C   LIG    1       -6.740   7.611   1.514  0.00  0.00    +0.570 C 
ATOM      8  O   LIG    1       -6.914   8.814   1.532  0.00  0.00    -0.520 OA
ENDROOT
BRANCH   1  13
ATOM      9  C   LIG    1       -8.846  12.368   3.316  0.00  0.00    +0.210 C 
ATOM     10  C   LIG    1       -8.213  11.008   3.464  0.00  0.00    +0.170 A 
ATOM     11  N   LIG    1       -6.962  10.766   3.716  0.00  0.00    -0.380 NA
ATOM     12  O   LIG    1       -6.769   9.569   3.774  0.00  0.00    +0.090 OA
ATOM     13  C   LIG    1       -7.915   8.916   3.558  0.00  0.00    +0.200 A 
ATOM     14  N   LIG    1       -8.839   9.823   3.355  0.00  0.00    -0.480 NA
ENDBRANCH   1  13
BRANCH   7  15
ATOM     15  C   LIG    1       -5.887   7.003   0.474  0.00  0.00    -0.170 A 
ATOM     16  C   LIG    1       -4.790   7.706  -0.031  0.00  0.00    +0.120 A 
ATOM     17  C   LIG    1       -3.996   7.136  -1.001  0.00  0.00    -0.020 A 
ATOM     18  C   LIG    1       -4.285   5.863  -1.479  0.00  0.00    +0.170 A 
ATOM     19  C   LIG    1       -5.379   5.163  -0.983  0.00  0.00    -0.080 A 
ATOM     20  C   LIG    1       -6.175   5.724  -0.009  0.00  0.00    +0.090 A 
BRANCH  18  21
ATOM     21  O   LIG    1       -3.501   5.304  -2.435  0.00  0.00    -0.300 OA
BRANCH  21  22
ATOM     22  C   LIG    1       -3.934   4.057  -2.982  0.00  0.00    +0.160 C 
ATOM     23  C   LIG    1       -3.468   3.948  -4.435  0.00  0.00    +0.030 C 
ATOM     24  C   LIG    1       -3.931   2.612  -5.020  0.00  0.00    +0.020 C 
ATOM     25  C   LIG    1       -3.332   1.464  -4.205  0.00  0.00    +0.010 C 
ATOM     26  C   LIG    1       -3.798   1.573  -2.752  0.00  0.00    +0.010 C 
ATOM     27  C   LIG    1       -3.335   2.908  -2.167  0.00  0.00    +0.010 C 
ENDBRANCH  21  22
ENDBRANCH  18  21
ENDBRANCH   7  15
TORSDOF 4
