REMARK  Name = ZINCqH0000033e0J.0
REMARK                            x       y       z     vdW  Elec       q    Type
REMARK                         _______ _______ _______ _____ _____    ______ ____
ROOT
ATOM      1  C   LIG    1       -6.394   0.829   1.028  0.00  0.00    -0.170 A 
ATOM      2  C   LIG    1       -7.257   0.982  -0.064  0.00  0.00    +0.050 A 
ATOM      3  C   LIG    1       -8.508   0.400  -0.024  0.00  0.00    +0.200 A 
ATOM      4  N   LIG    1       -8.908  -0.287   1.027  0.00  0.00    -0.420 NA
ATOM      5  C   LIG    1       -8.138  -0.460   2.090  0.00  0.00    +0.090 A 
ATOM      6  C   LIG    1       -6.849   0.091   2.133  0.00  0.00    +0.230 A 
ENDROOT
BRANCH   5   7
ATOM      7  C   LIG    1       -8.642  -1.243   3.244  0.00  0.00    -0.030 A 
ATOM      8  C   LIG    1       -9.312  -2.447   3.033  0.00  0.00    +0.050 A 
ATOM      9  C   LIG    1       -9.773  -3.174   4.112  0.00  0.00    +0.010 A 
ATOM     10  C   LIG    1       -9.582  -2.704   5.399  0.00  0.00    +0.020 A 
ATOM     11  C   LIG    1       -8.923  -1.507   5.613  0.00  0.00    +0.020 A 
ATOM     12  C   LIG    1       -8.452  -0.774   4.543  0.00  0.00    +0.010 A 
ENDBRANCH   5   7
BRANCH   1  14
ATOM     13  N   LIG    1       -4.163   1.098   0.058  0.00  0.00    -0.600 N 
ATOM     14  C   LIG    1       -5.045   1.432   1.020  0.00  0.00    +0.570 C 
ATOM     15  O   LIG    1       -4.731   2.229   1.883  0.00  0.00    -0.520 OA
BRANCH  13  16
ATOM     16  C   LIG    1       -2.794   1.617   0.106  0.00  0.00    +0.240 C 
ATOM     17  C   LIG    1       -2.825   3.148   0.063  0.00  0.00    -0.010 C 
ATOM     18  C   LIG    1       -1.396   3.683   0.192  0.00  0.00    +0.210 C 
ATOM     19  O   LIG    1       -0.816   3.202   1.406  0.00  0.00    -0.370 OA
ATOM     20  C   LIG    1       -0.718   1.779   1.482  0.00  0.00    +0.120 C 
ATOM     21  C   LIG    1       -0.060   1.383   2.805  0.00  0.00    +0.060 C 
ATOM     22  C   LIG    1        0.128   1.262   0.317  0.00  0.00    +0.020 C 
ATOM     23  C   LIG    1       -2.119   1.167   1.406  0.00  0.00    +0.000 C 
ENDBRANCH  13  16
BRANCH  13  25
ATOM     24  C   LIG    1       -4.216  -1.231  -0.688  0.00  0.00    +0.020 C 
ATOM     25  C   LIG    1       -4.573   0.215  -1.038  0.00  0.00    +0.260 C 
ENDBRANCH  13  25
ENDBRANCH   1  14
BRANCH   6  26
ATOM     26  N   LIG    1       -6.040  -0.089   3.244  0.00  0.00    -0.850 N 
ATOM     27  H   LIG    1       -6.384  -0.549   4.026  0.00  0.00    +0.410 HD
ATOM     28  H   LIG    1       -5.129   0.246   3.241  0.00  0.00    +0.400 HD
ENDBRANCH   6  26
TORSDOF 5
