REMARK  Name = ZINCrH000004j3s2.0
REMARK                            x       y       z     vdW  Elec       q    Type
REMARK                         _______ _______ _______ _____ _____    ______ ____
ROOT
ATOM      1  N   LIG    1       -2.638  10.222   0.307  0.00  0.00    -0.620 N 
ATOM      2  H   LIG    1       -3.430   9.892  -0.144  0.00  0.00    +0.430 HD
ATOM      3  C   LIG    1       -2.441  11.549   0.438  0.00  0.00    +0.500 C 
ATOM      4  O   LIG    1       -1.450  11.962   1.003  0.00  0.00    -0.490 OA
ENDROOT
BRANCH   1   8
ATOM      5  C   LIG    1       -0.808   7.337   1.300  0.00  0.00    +0.130 A 
ATOM      6  C   LIG    1        0.172   8.067   1.863  0.00  0.00    -0.110 A 
ATOM      7  S   LIG    1       -0.225   9.772   1.662  0.00  0.00    +0.210 S 
ATOM      8  C   LIG    1       -1.707   9.328   0.820  0.00  0.00    +0.270 A 
ATOM      9  N   LIG    1       -1.790   8.036   0.749  0.00  0.00    -0.490 NA
BRANCH   5  13
ATOM     10  C   LIG    1       -0.749   3.086   1.275  0.00  0.00    -0.070 A 
ATOM     11  C   LIG    1        0.283   3.786   1.874  0.00  0.00    +0.010 A 
ATOM     12  C   LIG    1        0.272   5.166   1.879  0.00  0.00    +0.020 A 
ATOM     13  C   LIG    1       -0.787   5.854   1.291  0.00  0.00    -0.030 A 
ATOM     14  C   LIG    1       -1.827   5.144   0.694  0.00  0.00    +0.050 A 
ATOM     15  C   LIG    1       -1.803   3.764   0.689  0.00  0.00    +0.000 A 
BRANCH  10  17
ATOM     16  C   LIG    1       -0.013   1.086   0.008  0.00  0.00    +0.030 C 
ATOM     17  C   LIG    1       -0.729   1.579   1.267  0.00  0.00    +0.050 C 
ENDBRANCH  10  17
ENDBRANCH   5  13
ENDBRANCH   1   8
BRANCH   3  18
ATOM     18  C   LIG    1       -3.450  12.520  -0.118  0.00  0.00    +0.370 C 
BRANCH  18  19
ATOM     19  N   LIG    1       -3.010  13.891   0.150  0.00  0.00    -0.520 N 
ATOM     20  C   LIG    1       -3.390  14.510   1.297  0.00  0.00    +0.600 A 
ATOM     21  N   LIG    1       -3.017  15.722   1.579  0.00  0.00    -0.490 NA
ATOM     22  C   LIG    1       -2.240  16.439   0.738  0.00  0.00    +0.070 A 
ATOM     23  C   LIG    1       -1.817  15.870  -0.459  0.00  0.00    -0.230 A 
ATOM     24  C   LIG    1       -0.994  16.776  -1.235  0.00  0.00    +0.080 A 
ATOM     25  C   LIG    1       -0.796  17.957  -0.679  0.00  0.00    -0.050 A 
ATOM     26  S   LIG    1       -1.609  18.075   0.870  0.00  0.00    +0.210 S 
ATOM     27  C   LIG    1       -2.233  14.532  -0.745  0.00  0.00    +0.570 A 
ATOM     28  O   LIG    1       -1.893  13.983  -1.778  0.00  0.00    -0.520 OA
ENDBRANCH  18  19
ENDBRANCH   3  18
TORSDOF 5
