REMARK  Name = ZINCrD00000hQ468.0
REMARK                            x       y       z     vdW  Elec       q    Type
REMARK                         _______ _______ _______ _____ _____    ______ ____
ROOT
ATOM      1  N   LIG    1        1.424   3.353   0.005  0.00  0.00    -0.430 N 
ATOM      2  C   LIG    1        1.116   2.006   0.002  0.00  0.00    +0.300 A 
ATOM      3  N   LIG    1       -0.016   1.335   0.009  0.00  0.00    -0.430 NA
ATOM      4  C   LIG    1        0.002  -0.004   0.002  0.00  0.00    +0.100 A 
ATOM      5  C   LIG    1       -1.203  -0.729   0.010  0.00  0.00    +0.060 A 
ATOM      6  C   LIG    1       -1.175  -2.090   0.003  0.00  0.00    +0.030 A 
ATOM      7  C   LIG    1        0.034  -2.782  -0.011  0.00  0.00    +0.040 A 
ATOM      8  C   LIG    1        1.220  -2.115  -0.019  0.00  0.00    +0.060 A 
ATOM      9  C   LIG    1        1.232  -0.708  -0.013  0.00  0.00    +0.090 A 
ATOM     10  N   LIG    1        2.393  -0.042  -0.020  0.00  0.00    -0.420 NA
ATOM     11  C   LIG    1        2.386   1.276  -0.014  0.00  0.00    +0.180 A 
ATOM     12  C   LIG    1        3.432   2.312  -0.018  0.00  0.00    -0.320 A 
ATOM     13  C   LIG    1        2.774   3.538  -0.006  0.00  0.00    +0.510 A 
ENDROOT
BRANCH   1  19
ATOM     14  C   LIG    1        0.016   4.896   1.231  0.00  0.00    +0.160 A 
ATOM     15  C   LIG    1       -0.919   5.918   1.238  0.00  0.00    -0.060 A 
ATOM     16  C   LIG    1       -1.393   6.431   0.044  0.00  0.00    +0.090 A 
ATOM     17  C   LIG    1       -0.935   5.926  -1.159  0.00  0.00    -0.010 A 
ATOM     18  C   LIG    1        0.002   4.911  -1.174  0.00  0.00    +0.080 A 
ATOM     19  C   LIG    1        0.477   4.388   0.019  0.00  0.00    +0.060 A 
BRANCH  14  20
ATOM     20  O   LIG    1        0.482   4.390   2.404  0.00  0.00    -0.310 OA
BRANCH  20  22
ATOM     21  C   LIG    1        0.600   4.268   4.814  0.00  0.00    +0.070 C 
ATOM     22  C   LIG    1       -0.036   4.961   3.607  0.00  0.00    +0.190 C 
ENDBRANCH  20  22
ENDBRANCH  14  20
ENDBRANCH   1  19
BRANCH  13  23
ATOM     23  N   LIG    1        3.395   4.760  -0.004  0.00  0.00    -0.820 N 
ATOM     24  H   LIG    1        2.866   5.573   0.005  0.00  0.00    +0.410 HD
ATOM     25  H   LIG    1        4.363   4.811  -0.012  0.00  0.00    +0.430 HD
ENDBRANCH  13  23
BRANCH  12  26
ATOM     26  C   LIG    1        4.833   2.103  -0.030  0.00  0.00    +0.570 C 
ATOM     27  O   LIG    1        5.426   2.018  -1.089  0.00  0.00    -0.490 OA
BRANCH  26  28
ATOM     28  O   LIG    1        5.510   1.998   1.133  0.00  0.00    -0.350 OA
ATOM     29  C   LIG    1        6.920   1.787   1.045  0.00  0.00    +0.250 C 
ENDBRANCH  26  28
ENDBRANCH  12  26
TORSDOF 6
