REMARK  Name = ZINCrg000000rv4Z.0
REMARK                            x       y       z     vdW  Elec       q    Type
REMARK                         _______ _______ _______ _____ _____    ______ ____
ROOT
ATOM      1  C   LIG    1       -3.048   3.550   5.472  0.00  0.00    +0.100 A 
ATOM      2  C   LIG    1       -1.892   3.442   4.714  0.00  0.00    +0.150 A 
ATOM      3  C   LIG    1       -1.639   4.353   3.705  0.00  0.00    -0.670 A 
ATOM      4  C   LIG    1       -2.535   5.376   3.453  0.00  0.00    +0.130 A 
ATOM      5  C   LIG    1       -3.692   5.487   4.202  0.00  0.00    +0.000 A 
ATOM      6  C   LIG    1       -3.952   4.578   5.214  0.00  0.00    +0.140 A 
ENDROOT
BRANCH   1   8
ATOM      7  C   LIG    1       -2.913   1.346   6.362  0.00  0.00    +0.520 C 
ATOM      8  N   LIG    1       -3.306   2.628   6.495  0.00  0.00    -0.670 N 
ATOM      9  H   LIG    1       -3.766   2.913   7.300  0.00  0.00    +0.410 HD
ATOM     10  O   LIG    1       -2.260   1.009   5.397  0.00  0.00    -0.490 OA
BRANCH   7  11
ATOM     11  C   LIG    1       -3.286   0.330   7.411  0.00  0.00    +0.050 C 
BRANCH  11  13
ATOM     12  C   LIG    1       -3.257  -1.533   5.747  0.00  0.00    +0.110 C 
ATOM     13  C   LIG    1       -2.660  -1.021   7.059  0.00  0.00    +0.120 C 
BRANCH  13  14
ATOM     14  C   LIG    1       -2.948  -2.024   8.177  0.00  0.00    +0.420 C 
ATOM     15  F   LIG    1       -2.402  -1.555   9.377  0.00  0.00    -0.180 F 
ATOM     16  F   LIG    1       -2.376  -3.259   7.855  0.00  0.00    -0.170 F 
ATOM     17  F   LIG    1       -4.332  -2.175   8.322  0.00  0.00    -0.180 F 
ENDBRANCH  13  14
BRANCH  13  18
ATOM     18  O   LIG    1       -1.247  -0.866   6.910  0.00  0.00    -0.510 OA
ATOM     19  H   LIG    1       -0.801  -0.544   7.705  0.00  0.00    +0.380 HD
ENDBRANCH  13  18
ENDBRANCH  11  13
ENDBRANCH   7  11
ENDBRANCH   1   8
BRANCH   3  20
ATOM     20  S   LIG    1       -0.170   4.214   2.743  0.00  0.00    +2.690 S 
ATOM     21  O   LIG    1        0.090   5.509   2.219  0.00  0.00    -0.950 OA
ATOM     22  O   LIG    1        0.764   3.496   3.538  0.00  0.00    -0.950 OA
BRANCH  20  23
ATOM     23  N   LIG    1       -0.522   3.247   1.446  0.00  0.00    -1.000 NA
ATOM     24  C   LIG    1       -0.342   1.788   1.519  0.00  0.00    +0.270 C 
ATOM     25  C   LIG    1        0.474   1.341   0.301  0.00  0.00    +0.220 C 
ATOM     26  O   LIG    1       -0.137   1.847  -0.888  0.00  0.00    -0.380 OA
ATOM     27  C   LIG    1       -0.173   3.274  -0.965  0.00  0.00    +0.220 C 
ATOM     28  C   LIG    1       -1.023   3.821   0.187  0.00  0.00    +0.260 C 
ENDBRANCH  20  23
ENDBRANCH   3  20
BRANCH   6  29
ATOM     29  O   LIG    1       -5.087   4.689   5.955  0.00  0.00    -0.490 OA
ATOM     30  H   LIG    1       -4.990   5.240   6.743  0.00  0.00    +0.400 HD
ENDBRANCH   6  29
TORSDOF 8
