REMARK  Name = ZINCAx00000009lh.2
REMARK                            x       y       z     vdW  Elec       q    Type
REMARK                         _______ _______ _______ _____ _____    ______ ____
ROOT
ATOM      1  C   LIG    1        3.124   6.321  -1.015  0.00  0.00    +0.170 A 
ATOM      2  C   LIG    1        2.125   7.272  -0.871  0.00  0.00    -0.010 A 
ATOM      3  C   LIG    1        2.440   8.617  -0.895  0.00  0.00    -0.050 A 
ATOM      4  C   LIG    1        3.752   9.025  -1.072  0.00  0.00    +0.000 A 
ATOM      5  C   LIG    1        4.757   8.093  -1.222  0.00  0.00    +0.120 A 
ATOM      6  C   LIG    1        1.351   9.645  -0.733  0.00  0.00    +0.100 C 
ATOM      7  C   LIG    1        4.452   6.731  -1.195  0.00  0.00    -0.120 A 
ENDROOT
BRANCH   7   8
ATOM      8  C   LIG    1        5.524   5.728  -1.354  0.00  0.00    +0.630 C 
ATOM      9  N   LIG    1        6.634   5.801  -0.593  0.00  0.00    -0.660 N 
ATOM     10  C   LIG    1        6.555   5.709   0.872  0.00  0.00    +0.250 C 
ATOM     11  C   LIG    1        7.551   4.645   1.347  0.00  0.00    +0.210 C 
ATOM     12  O   LIG    1        8.838   4.928   0.792  0.00  0.00    -0.370 OA
ATOM     13  C   LIG    1        8.884   4.880  -0.635  0.00  0.00    +0.230 C 
ATOM     14  C   LIG    1        7.967   5.969  -1.206  0.00  0.00    +0.140 C 
ATOM     15  C   LIG    1        7.809   5.702  -2.722  0.00  0.00    +0.230 C 
ATOM     16  O   LIG    1        6.675   6.376  -3.192  0.00  0.00    -0.350 OA
ATOM     17  C   LIG    1        6.869   7.699  -3.737  0.00  0.00    +0.210 C 
ATOM     18  C   LIG    1        7.845   8.549  -2.904  0.00  0.00    +0.140 C 
ATOM     19  N   LIG    1        7.631   8.380  -1.486  0.00  0.00    -0.530 NA
ATOM     20  C   LIG    1        7.851   9.642  -0.767  0.00  0.00    +0.190 C 
ATOM     21  C   LIG    1        8.505   7.313  -0.961  0.00  0.00    +0.190 C 
ATOM     22  O   LIG    1        5.405   4.836  -2.172  0.00  0.00    -0.440 OA
ENDBRANCH   7   8
BRANCH   1  25
ATOM     23  C   LIG    1        1.725   3.063  -0.931  0.00  0.00    -0.000 A 
ATOM     24  C   LIG    1        1.559   4.414  -0.955  0.00  0.00    +0.220 A 
ATOM     25  N   LIG    1        2.807   4.960  -0.986  0.00  0.00    -0.320 N 
ATOM     26  N   LIG    1        3.711   3.887  -0.989  0.00  0.00    -0.020 NA
ATOM     27  N   LIG    1        3.038   2.791  -0.956  0.00  0.00    -0.220 NA
BRANCH  23  32
ATOM     28  C   LIG    1       -1.709   1.522  -0.964  0.00  0.00    +0.120 A 
ATOM     29  C   LIG    1       -1.401   0.176  -0.822  0.00  0.00    -0.070 A 
ATOM     30  C   LIG    1       -0.084  -0.227  -0.707  0.00  0.00    +0.050 A 
ATOM     31  C   LIG    1        0.933   0.706  -0.743  0.00  0.00    -0.090 A 
ATOM     32  C   LIG    1        0.633   2.058  -0.891  0.00  0.00    +0.030 A 
ATOM     33  C   LIG    1        2.368   0.261  -0.624  0.00  0.00    +0.110 C 
ATOM     34  C   LIG    1       -0.694   2.465  -1.002  0.00  0.00    -0.010 A 
BRANCH  28  36
ATOM     35  C   LIG    1       -4.000   0.889  -1.025  0.00  0.00    +0.250 C 
ATOM     36  O   LIG    1       -3.005   1.915  -1.072  0.00  0.00    -0.320 OA
ENDBRANCH  28  36
ENDBRANCH  23  32
ENDBRANCH   1  25
TORSDOF 4
