REMARK  Name = ZINCfA000000JmbU.0
REMARK                            x       y       z     vdW  Elec       q    Type
REMARK                         _______ _______ _______ _____ _____    ______ ____
ROOT
ATOM      1  C   LIG    1        4.879   1.853  -0.035  0.00  0.00    +0.290 C 
ENDROOT
BRANCH   1   2
ATOM      2  C   LIG    1        3.413   2.201  -0.019  0.00  0.00    -0.020 A 
ATOM      3  N   LIG    1        2.468   1.338  -0.014  0.00  0.00    -0.440 NA
ATOM      4  C   LIG    1        1.201   1.792   0.000  0.00  0.00    +0.070 A 
ATOM      5  C   LIG    1       -0.013   1.076   0.008  0.00  0.00    +0.090 A 
ATOM      6  C   LIG    1       -1.204   1.736   0.017  0.00  0.00    +0.050 A 
ATOM      7  C   LIG    1       -1.247   3.123   0.030  0.00  0.00    +0.080 A 
ATOM      8  C   LIG    1       -0.077   3.849   0.022  0.00  0.00    +0.060 A 
ATOM      9  C   LIG    1        1.151   3.191   0.008  0.00  0.00    -0.170 A 
ATOM     10  S   LIG    1        2.804   3.795  -0.005  0.00  0.00    +0.190 S 
ENDBRANCH   1   2
BRANCH   1  11
ATOM     11  N   LIG    1        5.120   0.792  -1.022  0.00  0.00    -0.630 N 
ATOM     12  H   LIG    1        4.583  -0.026  -0.775  0.00  0.00    +0.440 HD
ATOM     13  H   LIG    1        6.101   0.559  -1.033  0.00  0.00    +0.440 HD
ATOM     14  H   LIG    1        4.840   1.114  -1.937  0.00  0.00    +0.440 HD
ENDBRANCH   1  11
BRANCH   1  15
ATOM     15  C   LIG    1        5.302   1.365   1.352  0.00  0.00    +0.110 C 
BRANCH  15  16
ATOM     16  C   LIG    1        6.814   1.130   1.370  0.00  0.00    +0.060 C 
BRANCH  16  18
ATOM     17  C   LIG    1        9.109   0.333   2.841  0.00  0.00    +0.140 C 
ATOM     18  S   LIG    1        7.316   0.552   3.014  0.00  0.00    -0.220 S 
ENDBRANCH  16  18
ENDBRANCH  15  16
ENDBRANCH   1  15
TORSDOF 5
