REMARK  Name = ZINCpk00000y6vAC.0
REMARK                            x       y       z     vdW  Elec       q    Type
REMARK                         _______ _______ _______ _____ _____    ______ ____
ROOT
ATOM      1  C   LIG    1        1.861  -2.491   2.892  0.00  0.00    +0.450 A 
ATOM      2  C   LIG    1        2.889  -1.757   3.475  0.00  0.00    -0.180 A 
ATOM      3  C   LIG    1        3.379  -2.175   4.709  0.00  0.00    +0.380 A 
ATOM      4  N   LIG    1        2.858  -3.261   5.277  0.00  0.00    -0.600 NA
ATOM      5  C   LIG    1        1.889  -3.933   4.689  0.00  0.00    +0.560 A 
ATOM      6  N   LIG    1        1.394  -3.566   3.524  0.00  0.00    -0.600 NA
ENDROOT
BRANCH   3   7
ATOM      7  N   LIG    1        4.398  -1.474   5.335  0.00  0.00    -0.470 N 
ATOM      8  C   LIG    1        4.033  -0.063   5.515  0.00  0.00    +0.210 C 
ATOM      9  C   LIG    1        5.231   0.708   6.074  0.00  0.00    +0.060 C 
ATOM     10  C   LIG    1        5.648   0.094   7.413  0.00  0.00    -0.020 C 
ATOM     11  C   LIG    1        5.976  -1.387   7.207  0.00  0.00    +0.060 C 
ATOM     12  C   LIG    1        4.756  -2.098   6.615  0.00  0.00    +0.220 C 
BRANCH  10  13
ATOM     13  C   LIG    1        6.864   0.810   7.941  0.00  0.00    +0.530 C 
ATOM     14  N   LIG    1        6.720   1.849   8.787  0.00  0.00    -0.620 N 
ATOM     15  C   LIG    1        7.808   2.696   9.298  0.00  0.00    +0.240 C 
ATOM     16  C   LIG    1        7.174   3.734  10.248  0.00  0.00    +0.030 C 
ATOM     17  C   LIG    1        5.843   3.053  10.665  0.00  0.00    +0.040 C 
ATOM     18  C   LIG    1        5.445   2.321   9.359  0.00  0.00    +0.250 C 
ATOM     19  O   LIG    1        7.973   0.452   7.604  0.00  0.00    -0.530 OA
ENDBRANCH  10  13
ENDBRANCH   3   7
BRANCH   1  20
ATOM     20  N   LIG    1        1.334  -2.112   1.666  0.00  0.00    -0.700 N 
ATOM     21  H   LIG    1        0.621  -2.631   1.264  0.00  0.00    +0.410 HD
BRANCH  20  22
ATOM     22  CA  LIG    1        1.856  -0.928   0.980  0.00  0.00    +0.250 C 
BRANCH  22  24
ATOM     23  C   LIG    1        2.419  -2.236  -1.073  0.00  0.00    +0.010 C 
ATOM     24  C   LIG    1        1.608  -1.060  -0.524  0.00  0.00    +0.030 C 
ENDBRANCH  22  24
BRANCH  22  25
ATOM     25  C   LIG    1        1.145   0.321   1.506  0.00  0.00    +0.170 C 
BRANCH  25  26
ATOM     26  O   LIG    1       -0.240   0.262   1.159  0.00  0.00    -0.570 OA
ATOM     27  H   LIG    1       -0.754   1.023   1.462  0.00  0.00    +0.380 HD
ENDBRANCH  25  26
ENDBRANCH  22  25
ENDBRANCH  20  22
ENDBRANCH   1  20
TORSDOF 7
