REMARK  Name = ZINCpk00000e9Mav.0
REMARK                            x       y       z     vdW  Elec       q    Type
REMARK                         _______ _______ _______ _____ _____    ______ ____
ROOT
ATOM      1  CA  LIG    1       -0.018   1.461   0.010  0.00  0.00    +0.300 C 
ENDROOT
BRANCH   1   2
ATOM      2  N   LIG    1        0.002  -0.004   0.002  0.00  0.00    -0.710 N 
ATOM      3  H   LIG    1        0.766  -0.477  -0.363  0.00  0.00    +0.410 HD
ATOM      4  C   LIG    1       -1.042  -0.695   0.502  0.00  0.00    +0.570 C 
ATOM      5  O   LIG    1       -2.000  -0.103   0.959  0.00  0.00    -0.530 OA
BRANCH   4   6
ATOM      6  C   LIG    1       -1.022  -2.173   0.493  0.00  0.00    -0.140 A 
ATOM      7  C   LIG    1        0.074  -2.856  -0.036  0.00  0.00    +0.050 A 
ATOM      8  C   LIG    1        0.088  -4.236  -0.037  0.00  0.00    +0.000 A 
ATOM      9  C   LIG    1       -0.985  -4.942   0.477  0.00  0.00    +0.040 A 
ATOM     10  C   LIG    1       -2.076  -4.271   0.999  0.00  0.00    +0.000 A 
ATOM     11  C   LIG    1       -2.101  -2.892   1.010  0.00  0.00    +0.080 A 
ENDBRANCH   4   6
ENDBRANCH   1   2
BRANCH   1  12
ATOM     12  C   LIG    1        1.396   1.982  -0.001  0.00  0.00    +0.470 C 
ATOM     13  O   LIG    1        2.325   1.210  -0.014  0.00  0.00    -0.500 OA
BRANCH  12  14
ATOM     14  O   LIG    1        1.623   3.305   0.004  0.00  0.00    -0.340 OA
BRANCH  14  15
ATOM     15  C   LIG    1        3.010   3.736  -0.007  0.00  0.00    +0.210 C 
BRANCH  15  16
ATOM     16  C   LIG    1        3.069   5.265   0.001  0.00  0.00    +0.320 C 
BRANCH  16  18
ATOM     17  C   LIG    1        1.087   6.068   1.366  0.00  0.00    +0.290 C 
ATOM     18  N   LIG    1        2.517   5.769   1.261  0.00  0.00    -0.630 N 
BRANCH  18  19
ATOM     19  C   LIG    1        3.354   5.963   2.362  0.00  0.00    +0.210 A 
ATOM     20  C   LIG    1        4.709   5.675   2.266  0.00  0.00    -0.080 A 
ATOM     21  C   LIG    1        5.535   5.873   3.355  0.00  0.00    +0.050 A 
ATOM     22  C   LIG    1        5.012   6.349   4.543  0.00  0.00    -0.060 A 
ATOM     23  C   LIG    1        3.662   6.632   4.644  0.00  0.00    +0.050 A 
ATOM     24  C   LIG    1        2.832   6.441   3.557  0.00  0.00    -0.080 A 
ENDBRANCH  18  19
ENDBRANCH  16  18
ENDBRANCH  15  16
ENDBRANCH  14  15
ENDBRANCH  12  14
ENDBRANCH   1  12
BRANCH   1  25
ATOM     25  C   LIG    1       -0.758   1.968  -1.230  0.00  0.00    +0.210 C 
BRANCH  25  26
ATOM     26  O   LIG    1       -0.026   1.606  -2.402  0.00  0.00    -0.570 OA
ATOM     27  H   LIG    1       -0.438   1.896  -3.228  0.00  0.00    +0.390 HD
ENDBRANCH  25  26
ENDBRANCH   1  25
TORSDOF 10
