REMARK  Name = ZINCvU00000008K8.0
REMARK                            x       y       z     vdW  Elec       q    Type
REMARK                         _______ _______ _______ _____ _____    ______ ____
ROOT
ATOM      1  C   LIG    1        6.093  -0.686  -0.278  0.00  0.00    +0.300 C 
ENDROOT
BRANCH   1   2
ATOM      2  C   LIG    1        6.304  -1.557   0.934  0.00  0.00    -0.110 A 
ATOM      3  C   LIG    1        6.778  -1.003   2.109  0.00  0.00    +0.030 A 
ATOM      4  C   LIG    1        6.968  -1.801   3.222  0.00  0.00    +0.000 A 
ATOM      5  C   LIG    1        6.692  -3.154   3.157  0.00  0.00    +0.010 A 
ATOM      6  C   LIG    1        6.224  -3.709   1.980  0.00  0.00    +0.020 A 
ATOM      7  C   LIG    1        6.030  -2.910   0.869  0.00  0.00    +0.010 A 
ENDBRANCH   1   2
BRANCH   1  10
ATOM      8  N   LIG    1        3.631  -0.643  -0.038  0.00  0.00    -0.650 N 
ATOM      9  H   LIG    1        3.651  -1.610   0.037  0.00  0.00    +0.420 HD
ATOM     10  C   LIG    1        4.783   0.048  -0.147  0.00  0.00    +0.520 C 
ATOM     11  O   LIG    1        4.766   1.261  -0.139  0.00  0.00    -0.510 OA
BRANCH   8  17
ATOM     12  C   LIG    1        1.291  -0.542   0.573  0.00  0.00    +0.100 A 
ATOM     13  C   LIG    1        0.081   0.133   0.575  0.00  0.00    -0.060 A 
ATOM     14  C   LIG    1       -0.019   1.375  -0.024  0.00  0.00    +0.040 A 
ATOM     15  C   LIG    1        1.087   1.948  -0.625  0.00  0.00    -0.010 A 
ATOM     16  C   LIG    1        2.298   1.281  -0.631  0.00  0.00    +0.060 A 
ATOM     17  C   LIG    1        2.405   0.035  -0.032  0.00  0.00    +0.120 A 
BRANCH  12  18
ATOM     18  O   LIG    1        1.391  -1.763   1.162  0.00  0.00    -0.320 OA
BRANCH  18  20
ATOM     19  C   LIG    1        0.512  -3.664   2.370  0.00  0.00    +0.070 C 
ATOM     20  C   LIG    1        0.207  -2.292   1.764  0.00  0.00    +0.180 C 
ENDBRANCH  18  20
ENDBRANCH  12  18
ENDBRANCH   8  17
ENDBRANCH   1  10
BRANCH   1  21
ATOM     21  N   LIG    1        7.188   0.283  -0.380  0.00  0.00    -0.720 N 
ATOM     22  H   LIG    1        7.083   1.173  -0.009  0.00  0.00    +0.410 HD
BRANCH  21  23
ATOM     23  C   LIG    1        8.383  -0.076  -1.013  0.00  0.00    +0.230 A 
ATOM     24  C   LIG    1        8.533  -1.353  -1.538  0.00  0.00    -0.060 A 
ATOM     25  C   LIG    1        9.711  -1.710  -2.169  0.00  0.00    +0.060 A 
ATOM     26  C   LIG    1       10.745  -0.794  -2.266  0.00  0.00    +0.010 A 
ATOM     27  O   LIG    1       11.913  -1.138  -2.883  0.00  0.00    -0.320 OA
ATOM     28  C   LIG    1       12.185  -0.477  -4.121  0.00  0.00    +0.220 C 
ATOM     29  C   LIG    1       12.842   0.873  -3.878  0.00  0.00    -0.020 C 
ATOM     30  C   LIG    1       11.921   1.842  -3.154  0.00  0.00    +0.220 C 
ATOM     31  O   LIG    1       11.627   1.374  -1.837  0.00  0.00    -0.320 OA
ATOM     32  C   LIG    1       10.600   0.481  -1.736  0.00  0.00    +0.120 A 
ATOM     33  C   LIG    1        9.420   0.843  -1.109  0.00  0.00    -0.060 A 
ENDBRANCH  21  23
ENDBRANCH   1  21
TORSDOF 7
