REMARK  Name = ZINCBu00000009N5.0
REMARK                            x       y       z     vdW  Elec       q    Type
REMARK                         _______ _______ _______ _____ _____    ______ ____
ROOT
ATOM      1  C   LIG    1       -2.468   5.529  -0.137  0.00  0.00    +0.090 A 
ATOM      2  C   LIG    1       -3.652   6.245  -0.222  0.00  0.00    -0.010 A 
ATOM      3  C   LIG    1       -4.865   5.580  -0.213  0.00  0.00    +0.130 A 
ATOM      4  C   LIG    1       -4.901   4.201  -0.125  0.00  0.00    -0.650 A 
ATOM      5  C   LIG    1       -3.725   3.478  -0.046  0.00  0.00    +0.150 A 
ATOM      6  C   LIG    1       -2.505   4.136  -0.054  0.00  0.00    +0.170 A 
ENDROOT
BRANCH   1  10
ATOM      7  N   LIG    1        0.417   8.525  -0.189  0.00  0.00    -0.390 N 
ATOM      8  C   LIG    1        0.306   7.650  -1.363  0.00  0.00    +0.280 C 
ATOM      9  C   LIG    1       -1.070   6.981  -1.373  0.00  0.00    +0.230 C 
ATOM     10  N   LIG    1       -1.241   6.200  -0.140  0.00  0.00    -0.500 N 
ATOM     11  C   LIG    1       -1.107   7.059   1.046  0.00  0.00    +0.230 C 
ATOM     12  C   LIG    1        0.270   7.727   1.035  0.00  0.00    +0.270 C 
ATOM     13  H   LIG    1       -0.308   9.226  -0.222  0.00  0.00    +0.420 HD
BRANCH   7  15
ATOM     14  C   LIG    1        1.801  10.186   0.962  0.00  0.00    +0.080 C 
ATOM     15  C   LIG    1        1.732   9.181  -0.190  0.00  0.00    +0.250 C 
ENDBRANCH   7  15
ENDBRANCH   1  10
BRANCH   6  16
ATOM     16  N   LIG    1       -1.312   3.406   0.027  0.00  0.00    -0.660 N 
ATOM     17  H   LIG    1       -0.551   3.772   0.504  0.00  0.00    +0.420 HD
ATOM     18  C   LIG    1       -1.222   2.195  -0.558  0.00  0.00    +0.540 C 
ATOM     19  O   LIG    1       -2.201   1.701  -1.086  0.00  0.00    -0.510 OA
BRANCH  18  20
ATOM     20  C   LIG    1        0.052   1.475  -0.558  0.00  0.00    -0.060 C 
ATOM     21  C   LIG    1        0.142   0.264  -1.143  0.00  0.00    +0.140 C 
BRANCH  21  22
ATOM     22  C   LIG    1        1.425  -0.458  -1.149  0.00  0.00    -0.030 A 
ATOM     23  C   LIG    1        2.554   0.112  -0.553  0.00  0.00    +0.050 A 
ATOM     24  C   LIG    1        3.751  -0.572  -0.558  0.00  0.00    +0.100 A 
ATOM     25  C   LIG    1        3.839  -1.815  -1.160  0.00  0.00    -0.030 A 
ATOM     26  C   LIG    1        2.727  -2.384  -1.756  0.00  0.00    +0.110 A 
ATOM     27  C   LIG    1        1.522  -1.714  -1.754  0.00  0.00    +0.070 A 
BRANCH  25  28
ATOM     28  N   LIG    1        5.130  -2.541  -1.165  0.00  0.00    +0.020 N 
ATOM     29  O   LIG    1        6.110  -2.043  -0.642  0.00  0.00    -0.150 OA
ATOM     30  O   LIG    1        5.211  -3.635  -1.694  0.00  0.00    -0.150 OA
ENDBRANCH  25  28
ENDBRANCH  21  22
ENDBRANCH  18  20
ENDBRANCH   6  16
BRANCH   4  31
ATOM     31  S   LIG    1       -6.450   3.362  -0.115  0.00  0.00    +2.690 S 
ATOM     32  O   LIG    1       -6.193   2.040  -0.569  0.00  0.00    -0.940 OA
ATOM     33  O   LIG    1       -7.382   4.232  -0.743  0.00  0.00    -0.940 OA
BRANCH  31  34
ATOM     34  N   LIG    1       -6.925   3.229   1.466  0.00  0.00    -1.000 NA
ATOM     35  C   LIG    1       -6.548   2.060   2.275  0.00  0.00    +0.270 C 
ATOM     36  C   LIG    1       -5.938   2.565   3.592  0.00  0.00    +0.210 C 
ATOM     37  O   LIG    1       -6.839   3.493   4.201  0.00  0.00    -0.370 OA
ATOM     38  C   LIG    1       -7.079   4.670   3.425  0.00  0.00    +0.210 C 
ATOM     39  C   LIG    1       -7.743   4.275   2.101  0.00  0.00    +0.270 C 
ENDBRANCH  31  34
ENDBRANCH   4  31
TORSDOF 8
