REMARK  Name = ZINCkj000005fM5W.0
REMARK                            x       y       z     vdW  Elec       q    Type
REMARK                         _______ _______ _______ _____ _____    ______ ____
ROOT
ATOM      1  N   LIG    1       -2.781   4.400  -1.310  0.00  0.00    -0.690 NA
ATOM      2  H   LIG    1       -2.183   4.183  -2.043  0.00  0.00    +0.430 HD
ENDROOT
BRANCH   1   3
ATOM      3  C   LIG    1       -2.478   3.933   0.045  0.00  0.00    +0.360 C 
BRANCH   3   9
ATOM      4  C   LIG    1        0.033   3.797   0.021  0.00  0.00    +0.350 A 
ATOM      5  N   LIG    1        1.162   3.109   0.007  0.00  0.00    -0.540 NA
ATOM      6  C   LIG    1        1.169   1.790   0.001  0.00  0.00    +0.340 A 
ATOM      7  C   LIG    1       -0.013   1.076   0.008  0.00  0.00    -0.060 A 
ATOM      8  C   LIG    1       -1.220   1.761   0.017  0.00  0.00    +0.140 A 
ATOM      9  C   LIG    1       -1.194   3.144   0.029  0.00  0.00    -0.210 A 
BRANCH   4  10
ATOM     10  O   LIG    1        0.072   5.153   0.028  0.00  0.00    -0.310 OA
BRANCH  10  11
ATOM     11  C   LIG    1        1.364   5.765   0.019  0.00  0.00    +0.210 C 
BRANCH  11  13
ATOM     12  C   LIG    1        2.590   7.942   0.018  0.00  0.00    +0.040 C 
ATOM     13  C   LIG    1        1.208   7.287   0.028  0.00  0.00    +0.020 C 
ENDBRANCH  11  13
ENDBRANCH  10  11
ENDBRANCH   4  10
ENDBRANCH   3   9
ENDBRANCH   1   3
BRANCH   1  14
ATOM     14  C   LIG    1       -3.913   5.145  -1.543  0.00  0.00    +0.730 C 
BRANCH  14  15
ATOM     15  N   LIG    1       -4.715   5.436  -0.559  0.00  0.00    -0.780 NA
ATOM     16  H   LIG    1       -4.515   5.127   0.339  0.00  0.00    +0.440 HD
ATOM     17  H   LIG    1       -5.514   5.962  -0.723  0.00  0.00    +0.440 HD
ENDBRANCH  14  15
BRANCH  14  18
ATOM     18  N   LIG    1       -4.197   5.583  -2.815  0.00  0.00    -0.690 NA
ATOM     19  H   LIG    1       -3.599   5.367  -3.548  0.00  0.00    +0.440 HD
BRANCH  18  20
ATOM     20  C   LIG    1       -5.403   6.378  -3.063  0.00  0.00    +0.240 C 
ATOM     21  C   LIG    1       -6.595   5.442  -3.277  0.00  0.00    +0.060 C 
BRANCH  20  22
ATOM     22  C   LIG    1       -5.199   7.237  -4.312  0.00  0.00    +0.210 C 
BRANCH  22  23
ATOM     23  O   LIG    1       -5.061   6.391  -5.456  0.00  0.00    -0.390 OA
ATOM     24  C   LIG    1       -4.865   7.098  -6.682  0.00  0.00    +0.230 C 
ENDBRANCH  22  23
ENDBRANCH  20  22
ENDBRANCH  18  20
ENDBRANCH  14  18
ENDBRANCH   1  14
TORSDOF 11
