REMARK  Name = ZINCrH000004sOle.0
REMARK                            x       y       z     vdW  Elec       q    Type
REMARK                         _______ _______ _______ _____ _____    ______ ____
ROOT
ATOM      1  C   LIG    1        1.125   3.150  -0.342  0.00  0.00    -0.050 A 
ATOM      2  C   LIG    1       -0.099   3.809  -0.324  0.00  0.00    -0.010 A 
ATOM      3  C   LIG    1       -1.246   3.127   0.027  0.00  0.00    +0.060 A 
ATOM      4  C   LIG    1       -1.189   1.783   0.359  0.00  0.00    +0.000 A 
ATOM      5  C   LIG    1        0.015   1.114   0.353  0.00  0.00    +0.060 A 
ATOM      6  C   LIG    1        1.186   1.789  -0.001  0.00  0.00    -0.110 A 
ENDROOT
BRANCH   6   7
ATOM      7  C   LIG    1        2.477   1.078  -0.016  0.00  0.00    +0.580 C 
ATOM      8  N   LIG    1        2.837   0.314   1.034  0.00  0.00    -0.610 N 
ATOM      9  C   LIG    1        2.002   0.021   2.208  0.00  0.00    +0.260 C 
ATOM     10  C   LIG    1        2.837  -0.866   3.155  0.00  0.00    +0.100 C 
ATOM     11  C   LIG    1        4.296  -0.558   2.724  0.00  0.00    +0.080 C 
ATOM     12  C   LIG    1        4.133  -0.373   1.192  0.00  0.00    +0.280 C 
ATOM     13  O   LIG    1        3.216   1.180  -0.976  0.00  0.00    -0.510 OA
BRANCH  11  14
ATOM     14  C   LIG    1        5.221  -1.737   3.035  0.00  0.00    +0.440 C 
ATOM     15  F   LIG    1        5.204  -1.991   4.411  0.00  0.00    -0.170 F 
ATOM     16  F   LIG    1        6.524  -1.425   2.635  0.00  0.00    -0.180 F 
ATOM     17  F   LIG    1        4.779  -2.871   2.346  0.00  0.00    -0.170 F 
ENDBRANCH  11  14
BRANCH  11  18
ATOM     18  O   LIG    1        4.771   0.639   3.342  0.00  0.00    -0.510 OA
ATOM     19  H   LIG    1        5.678   0.873   3.103  0.00  0.00    +0.390 HD
ENDBRANCH  11  18
ENDBRANCH   6   7
BRANCH   1  20
ATOM     20  S   LIG    1        2.591   4.018  -0.790  0.00  0.00    -0.050 S 
BRANCH  20  21
ATOM     21  C   LIG    1        1.987   5.694  -1.129  0.00  0.00    +0.160 C 
BRANCH  21  28
ATOM     22  C   LIG    1        3.875   7.495   0.799  0.00  0.00    +0.160 C 
ATOM     23  C   LIG    1        3.969   7.360  -0.699  0.00  0.00    +0.040 A 
ATOM     24  N   LIG    1        4.830   7.944  -1.482  0.00  0.00    -0.360 NA
ATOM     25  O   LIG    1        4.653   7.645  -2.640  0.00  0.00    +0.100 OA
ATOM     26  C   LIG    1        3.626   6.796  -2.778  0.00  0.00    +0.000 A 
ATOM     27  C   LIG    1        3.109   6.206  -4.066  0.00  0.00    +0.200 C 
ATOM     28  C   LIG    1        3.142   6.573  -1.533  0.00  0.00    -0.200 A 
ENDBRANCH  21  28
ENDBRANCH  20  21
ENDBRANCH   1  20
TORSDOF 6
