REMARK  Name = ZINCpe000000UcXw.0
REMARK                            x       y       z     vdW  Elec       q    Type
REMARK                         _______ _______ _______ _____ _____    ______ ____
ROOT
ATOM      1  C   LIG    1       -2.706   2.942   4.743  0.00  0.00    +0.560 C 
ATOM      2  N   LIG    1       -2.294   4.070   5.354  0.00  0.00    -0.610 N 
ATOM      3  C   LIG    1       -1.226   4.897   4.772  0.00  0.00    +0.290 C 
ATOM      4  C   LIG    1       -1.724   6.349   4.702  0.00  0.00    +0.180 C 
ATOM      5  N   LIG    1       -2.179   6.770   6.034  0.00  0.00    -0.520 NA
ATOM      6  C   LIG    1       -3.325   5.968   6.484  0.00  0.00    +0.180 C 
ATOM      7  C   LIG    1       -2.896   4.504   6.624  0.00  0.00    +0.300 C 
ATOM      8  O   LIG    1       -3.656   2.324   5.183  0.00  0.00    -0.540 OA
ENDROOT
BRANCH   1  12
ATOM      9  C   LIG    1       -0.686   1.545   1.277  0.00  0.00    -0.060 A 
ATOM     10  C   LIG    1        0.039   2.072   2.331  0.00  0.00    +0.010 A 
ATOM     11  C   LIG    1       -0.612   2.532   3.458  0.00  0.00    +0.040 A 
ATOM     12  C   LIG    1       -2.003   2.455   3.537  0.00  0.00    -0.140 A 
ATOM     13  C   LIG    1       -2.728   1.917   2.472  0.00  0.00    +0.070 A 
ATOM     14  C   LIG    1       -2.065   1.466   1.349  0.00  0.00    +0.010 A 
BRANCH   9  16
ATOM     15  C   LIG    1        0.167   2.194  -0.959  0.00  0.00    +0.030 C 
ATOM     16  C   LIG    1        0.031   1.050   0.048  0.00  0.00    +0.070 C 
ENDBRANCH   9  16
ENDBRANCH   1  12
BRANCH   5  17
ATOM     17  C   LIG    1       -2.499   8.203   6.053  0.00  0.00    +0.190 C 
ATOM     18  C   LIG    1       -3.599   8.493   5.029  0.00  0.00    +0.030 C 
BRANCH  17  19
ATOM     19  C   LIG    1       -1.267   8.998   5.705  0.00  0.00    +0.520 C 
ATOM     20  N   LIG    1       -1.324  10.344   5.660  0.00  0.00    -0.690 N 
ATOM     21  H   LIG    1       -2.158  10.801   5.852  0.00  0.00    +0.410 HD
ATOM     22  C   LIG    1       -0.222  11.055   5.349  0.00  0.00    +0.690 C 
ATOM     23  N   LIG    1       -0.278  12.400   5.304  0.00  0.00    -0.740 N 
ATOM     24  H   LIG    1       -1.112  12.857   5.496  0.00  0.00    +0.400 HD
ATOM     25  C   LIG    1        0.919  13.173   4.966  0.00  0.00    +0.300 C 
ATOM     26  O   LIG    1        0.823  10.482   5.109  0.00  0.00    -0.530 OA
ATOM     27  O   LIG    1       -0.225   8.427   5.465  0.00  0.00    -0.440 OA
ENDBRANCH  17  19
ENDBRANCH   5  17
TORSDOF 4
