REMARK  Name = ZINCpe00000RcJnt.0
REMARK                            x       y       z     vdW  Elec       q    Type
REMARK                         _______ _______ _______ _____ _____    ______ ____
ROOT
ATOM      1  N   LIG    1        2.263   1.899   2.193  0.00  0.00    -0.460 N 
ATOM      2  C   LIG    1        3.281   1.238   1.337  0.00  0.00    +0.210 C 
ATOM      3  C   LIG    1        2.538   0.926   0.020  0.00  0.00    +0.110 C 
ATOM      4  C   LIG    1        1.374   1.936  -0.032  0.00  0.00    +0.000 C 
ATOM      5  C   LIG    1        1.511   2.774   1.257  0.00  0.00    +0.220 C 
ENDROOT
BRANCH   1  10
ATOM      6  C   LIG    1        3.216   3.159   5.500  0.00  0.00    +0.370 A 
ATOM      7  N   LIG    1        4.056   4.117   5.115  0.00  0.00    -0.570 NA
ATOM      8  C   LIG    1        4.294   4.334   3.837  0.00  0.00    +0.360 A 
ATOM      9  N   LIG    1        3.718   3.621   2.891  0.00  0.00    -0.560 NA
ATOM     10  C   LIG    1        2.865   2.645   3.195  0.00  0.00    +0.350 A 
ATOM     11  C   LIG    1        5.252   5.429   3.447  0.00  0.00    +0.180 C 
ATOM     12  C   LIG    1        2.583   2.388   4.534  0.00  0.00    -0.180 A 
ATOM     13  C   LIG    1        1.620   1.296   4.925  0.00  0.00    +0.130 C 
BRANCH   6  15
ATOM     14  C   LIG    1        3.664   3.784   7.747  0.00  0.00    +0.260 C 
ATOM     15  O   LIG    1        2.978   2.944   6.817  0.00  0.00    -0.300 OA
ENDBRANCH   6  15
ENDBRANCH   1  10
BRANCH   3  16
ATOM     16  C   LIG    1        3.457   1.124  -1.159  0.00  0.00    -0.240 A 
ATOM     17  C   LIG    1        3.745   0.203  -2.107  0.00  0.00    +0.100 A 
ATOM     18  N   LIG    1        4.602   0.768  -2.983  0.00  0.00    -0.370 N 
ATOM     19  N   LIG    1        4.848   2.081  -2.559  0.00  0.00    -0.300 NA
ATOM     20  C   LIG    1        5.174   0.123  -4.167  0.00  0.00    +0.360 C 
ATOM     21  C   LIG    1        3.207  -1.204  -2.172  0.00  0.00    +0.140 C 
ATOM     22  C   LIG    1        4.156   2.295  -1.469  0.00  0.00    +0.240 A 
ENDBRANCH   3  16
BRANCH   4  23
ATOM     23  C   LIG    1        0.053   1.212  -0.048  0.00  0.00    +0.530 C 
ATOM     24  O   LIG    1        0.025  -0.000  -0.020  0.00  0.00    -0.530 OA
ATOM     25  N   LIG    1       -1.099   1.911  -0.098  0.00  0.00    -0.860 N 
ATOM     26  H   LIG    1       -1.077   2.880  -0.120  0.00  0.00    +0.400 HD
ATOM     27  H   LIG    1       -1.949   1.444  -0.112  0.00  0.00    +0.400 HD
ENDBRANCH   4  23
TORSDOF 4
