REMARK  Name = ZINCpe00000MJJHE.0
REMARK                            x       y       z     vdW  Elec       q    Type
REMARK                         _______ _______ _______ _____ _____    ______ ____
ROOT
ATOM      1  C   LIG    1       -0.022   5.531  -0.058  0.00  0.00    +0.120 A 
ATOM      2  C   LIG    1        1.197   6.188  -0.156  0.00  0.00    +0.060 A 
ATOM      3  C   LIG    1        1.232   7.566  -0.244  0.00  0.00    +0.020 A 
ATOM      4  C   LIG    1        0.055   8.292  -0.222  0.00  0.00    +0.110 A 
ATOM      5  C   LIG    1       -1.161   7.640  -0.120  0.00  0.00    -0.660 A 
ATOM      6  C   LIG    1       -1.203   6.263  -0.037  0.00  0.00    +0.140 A 
ENDROOT
BRANCH   1   9
ATOM      7  O   LIG    1       -1.988   4.054  -1.076  0.00  0.00    -0.500 OA
ATOM      8  C   LIG    1       -1.070   3.454  -0.554  0.00  0.00    +0.580 C 
ATOM      9  N   LIG    1       -0.062   4.135   0.025  0.00  0.00    -0.650 N 
ATOM     10  H   LIG    1        0.637   3.658   0.499  0.00  0.00    +0.420 HD
BRANCH   8  11
ATOM     11  C   LIG    1       -1.058   1.973  -0.555  0.00  0.00    +0.020 A 
ATOM     12  C   LIG    1       -2.100   1.266  -1.154  0.00  0.00    +0.310 A 
ATOM     13  N   LIG    1       -2.086  -0.055  -1.151  0.00  0.00    -0.440 NA
ATOM     14  C   LIG    1       -1.086  -0.705  -0.583  0.00  0.00    +0.260 A 
ATOM     15  C   LIG    1       -0.047  -0.005   0.013  0.00  0.00    +0.230 A 
ATOM     16  N   LIG    1       -0.054   1.313   0.016  0.00  0.00    -0.410 NA
ENDBRANCH   8  11
ENDBRANCH   1   9
BRANCH   5  17
ATOM     17  S   LIG    1       -2.657   8.570  -0.093  0.00  0.00    +2.690 S 
ATOM     18  O   LIG    1       -3.684   7.691  -0.533  0.00  0.00    -0.940 OA
ATOM     19  O   LIG    1       -2.371   9.809  -0.727  0.00  0.00    -0.950 OA
BRANCH  17  20
ATOM     20  N   LIG    1       -2.989   8.920   1.491  0.00  0.00    -0.990 NA
ATOM     21  C   LIG    1       -2.475  10.150   2.110  0.00  0.00    +0.280 C 
ATOM     22  C   LIG    1       -3.647  10.916   2.731  0.00  0.00    +0.020 C 
ATOM     23  C   LIG    1       -4.399   9.995   3.695  0.00  0.00    -0.010 C 
ATOM     24  C   LIG    1       -4.960   8.797   2.925  0.00  0.00    +0.150 C 
ATOM     25  C   LIG    1       -3.808   8.010   2.304  0.00  0.00    +0.300 C 
BRANCH  24  26
ATOM     26  O   LIG    1       -5.688   7.954   3.819  0.00  0.00    -0.560 OA
ATOM     27  H   LIG    1       -6.436   8.391   4.251  0.00  0.00    +0.380 HD
ENDBRANCH  24  26
ENDBRANCH  17  20
ENDBRANCH   5  17
TORSDOF 5
