REMARK  Name = ZINCqH0000036HRb.0
REMARK                            x       y       z     vdW  Elec       q    Type
REMARK                         _______ _______ _______ _____ _____    ______ ____
ROOT
ATOM      1  N   LIG    1       -1.597   9.207  -2.045  0.00  0.00    -0.740 N 
ATOM      2  H   LIG    1       -1.387   9.683  -1.226  0.00  0.00    +0.400 HD
ATOM      3  C   LIG    1       -1.569   7.859  -2.066  0.00  0.00    +0.710 C 
ATOM      4  N   LIG    1       -1.249   7.174  -0.950  0.00  0.00    -0.680 N 
ATOM      5  H   LIG    1       -1.102   7.647  -0.116  0.00  0.00    +0.410 HD
ATOM      6  O   LIG    1       -1.833   7.262  -3.091  0.00  0.00    -0.570 OA
ENDROOT
BRANCH   4   7
ATOM      7  C   LIG    1       -1.129   5.778  -0.995  0.00  0.00    +0.130 A 
ATOM      8  C   LIG    1       -1.969   5.032  -1.811  0.00  0.00    +0.050 A 
ATOM      9  C   LIG    1       -1.847   3.660  -1.849  0.00  0.00    -0.010 A 
ATOM     10  C   LIG    1       -0.884   3.012  -1.074  0.00  0.00    +0.110 A 
ATOM     11  C   LIG    1       -0.044   3.758  -0.266  0.00  0.00    -0.110 A 
ATOM     12  C   LIG    1        1.027   3.118   0.581  0.00  0.00    +0.070 C 
ATOM     13  C   LIG    1        0.766   1.615   0.697  0.00  0.00    +0.040 C 
ATOM     14  C   LIG    1        0.466   1.077  -0.708  0.00  0.00    +0.200 C 
ATOM     15  N   LIG    1       -0.819   1.619  -1.155  0.00  0.00    -0.500 N 
ATOM     16  C   LIG    1       -1.142   1.155  -2.511  0.00  0.00    +0.220 C 
ATOM     17  C   LIG    1       -0.170   5.137  -0.226  0.00  0.00    +0.000 A 
ENDBRANCH   4   7
BRANCH   1  19
ATOM     18  C   LIG    1       -0.694  10.137  -4.119  0.00  0.00    +0.030 C 
ATOM     19  C   LIG    1       -1.945   9.951  -3.257  0.00  0.00    +0.270 C 
BRANCH  19  20
ATOM     20  C   LIG    1       -2.506  11.321  -2.871  0.00  0.00    +0.020 C 
ATOM     21  C   LIG    1       -3.834  11.175  -2.092  0.00  0.00    +0.240 C 
ATOM     22  O   LIG    1       -4.824  11.263  -3.132  0.00  0.00    -0.300 OA
ATOM     23  C   LIG    1       -4.332  12.010  -4.158  0.00  0.00    +0.110 A 
ATOM     24  C   LIG    1       -5.001  12.651  -5.197  0.00  0.00    -0.010 A 
ATOM     25  C   LIG    1       -4.293  13.348  -6.155  0.00  0.00    +0.050 A 
ATOM     26  C   LIG    1       -2.913  13.417  -6.091  0.00  0.00    -0.020 A 
ATOM     27  C   LIG    1       -2.241  12.786  -5.059  0.00  0.00    +0.070 A 
ATOM     28  C   LIG    1       -2.946  12.093  -4.100  0.00  0.00    -0.170 A 
ENDBRANCH  19  20
ENDBRANCH   1  19
TORSDOF 3
