REMARK  Name = ZINCvU00000009ou.0
REMARK                            x       y       z     vdW  Elec       q    Type
REMARK                         _______ _______ _______ _____ _____    ______ ____
ROOT
ATOM      1  C   LIG    1        0.851   4.332   0.960  0.00  0.00    +0.140 A 
ATOM      2  N   LIG    1        1.057   5.570   0.574  0.00  0.00    -0.290 NA
ATOM      3  N   LIG    1        1.689   5.579  -0.545  0.00  0.00    -0.270 NA
ATOM      4  C   LIG    1        1.927   4.358  -0.934  0.00  0.00    +0.190 A 
ATOM      5  N   LIG    1        1.397   3.520   0.008  0.00  0.00    -0.450 N 
ENDROOT
BRANCH   5   6
ATOM      6  C   LIG    1        1.417   2.055  -0.000  0.00  0.00    +0.230 C 
ATOM      7  C   LIG    1       -0.019   1.526   0.010  0.00  0.00    +0.020 C 
ATOM      8  C   LIG    1        0.002  -0.004   0.002  0.00  0.00    +0.030 C 
ATOM      9  C   LIG    1        0.742  -0.511   1.242  0.00  0.00    +0.010 C 
ATOM     10  C   LIG    1        2.178   0.019   1.231  0.00  0.00    +0.040 C 
ATOM     11  C   LIG    1        2.157   1.548   1.239  0.00  0.00    +0.010 C 
ENDBRANCH   5   6
BRANCH   1  12
ATOM     12  S   LIG    1        0.026   3.816   2.429  0.00  0.00    +0.090 S 
BRANCH  12  13
ATOM     13  C   LIG    1       -0.391   5.428   3.139  0.00  0.00    +0.100 C 
BRANCH  13  24
ATOM     14  C   LIG    1       -1.403   5.525   7.480  0.00  0.00    +0.050 C 
ATOM     15  C   LIG    1       -2.256   6.232   6.425  0.00  0.00    +0.230 C 
ATOM     16  C   LIG    1       -2.497   7.696   6.829  0.00  0.00    +0.100 C 
ATOM     17  C   LIG    1       -1.874   8.506   5.714  0.00  0.00    -0.130 A 
ATOM     18  C   LIG    1       -1.781   9.872   5.529  0.00  0.00    +0.060 A 
ATOM     19  C   LIG    1       -1.138  10.380   4.415  0.00  0.00    -0.010 A 
ATOM     20  C   LIG    1       -0.600   9.516   3.478  0.00  0.00    +0.050 A 
ATOM     21  C   LIG    1       -0.694   8.152   3.657  0.00  0.00    -0.020 A 
ATOM     22  C   LIG    1       -1.334   7.632   4.783  0.00  0.00    +0.130 A 
ATOM     23  N   LIG    1       -1.536   6.298   5.151  0.00  0.00    -0.540 N 
ATOM     24  C   LIG    1       -1.124   5.230   4.440  0.00  0.00    +0.550 C 
ATOM     25  O   LIG    1       -1.344   4.109   4.847  0.00  0.00    -0.500 OA
ENDBRANCH  13  24
ENDBRANCH  12  13
ENDBRANCH   1  12
BRANCH   4  26
ATOM     26  C   LIG    1        2.649   3.947  -2.191  0.00  0.00    +0.250 C 
BRANCH  26  27
ATOM     27  C   LIG    1        1.656   3.796  -3.315  0.00  0.00    -0.190 A 
ATOM     28  C   LIG    1        1.290   4.768  -4.152  0.00  0.00    +0.040 A 
ATOM     29  C   LIG    1        0.361   4.395  -5.108  0.00  0.00    +0.010 A 
ATOM     30  C   LIG    1       -0.026   3.120  -5.048  0.00  0.00    -0.030 A 
ATOM     31  S   LIG    1        0.810   2.311  -3.729  0.00  0.00    +0.090 S 
ENDBRANCH  26  27
ENDBRANCH   4  26
TORSDOF 6
