REMARK  Name = ZINCpk00000Rmuf9.0
REMARK                            x       y       z     vdW  Elec       q    Type
REMARK                         _______ _______ _______ _____ _____    ______ ____
ROOT
ATOM      1  N   LIG    1       -1.809   5.592  -1.176  0.00  0.00    -0.700 N 
ATOM      2  H   LIG    1       -1.870   5.104  -2.013  0.00  0.00    +0.410 HD
ENDROOT
BRANCH   1  10
ATOM      3  C   LIG    1       -1.939   0.812   1.445  0.00  0.00    +0.250 C 
ATOM      4  N   LIG    1       -0.693   1.556   1.219  0.00  0.00    -0.480 N 
ATOM      5  C   LIG    1       -0.013   1.086   0.008  0.00  0.00    +0.300 C 
ATOM      6  C   LIG    1       -0.736   1.582  -1.218  0.00  0.00    +0.490 C 
ATOM      7  N   LIG    1       -1.317   2.803  -1.195  0.00  0.00    -0.650 N 
ATOM      8  H   LIG    1       -1.772   3.152  -1.977  0.00  0.00    +0.410 HD
ATOM      9  C   LIG    1       -1.244   3.552  -0.011  0.00  0.00    -0.050 A 
ATOM     10  C   LIG    1       -1.485   4.923  -0.004  0.00  0.00    +0.440 A 
ATOM     11  N   LIG    1       -1.397   5.579   1.153  0.00  0.00    -0.550 NA
ATOM     12  C   LIG    1       -1.090   4.947   2.268  0.00  0.00    +0.550 A 
ATOM     13  N   LIG    1       -0.857   3.650   2.300  0.00  0.00    -0.520 NA
ATOM     14  O   LIG    1       -0.796   0.893  -2.214  0.00  0.00    -0.510 OA
ATOM     15  C   LIG    1       -0.925   2.920   1.190  0.00  0.00    +0.360 A 
ENDBRANCH   1  10
BRANCH   1  16
ATOM     16  C   LIG    1       -2.059   7.035  -1.151  0.00  0.00    +0.370 C 
BRANCH  16  17
ATOM     17  C   LIG    1       -2.388   7.513  -2.542  0.00  0.00    +0.120 A 
ATOM     18  C   LIG    1       -3.707   7.617  -2.933  0.00  0.00    -0.040 A 
ATOM     19  C   LIG    1       -4.004   8.063  -4.214  0.00  0.00    +0.090 A 
ATOM     20  C   LIG    1       -2.958   8.380  -5.062  0.00  0.00    -0.030 A 
ATOM     21  C   LIG    1       -1.651   8.246  -4.603  0.00  0.00    +0.310 A 
ATOM     22  N   LIG    1       -1.409   7.822  -3.372  0.00  0.00    -0.500 NA
BRANCH  21  23
ATOM     23  N   LIG    1       -0.591   8.560  -5.444  0.00  0.00    -0.460 N 
ATOM     24  C   LIG    1       -0.620   9.996  -5.824  0.00  0.00    +0.190 C 
ATOM     25  C   LIG    1        0.836  10.272  -6.278  0.00  0.00    +0.040 C 
ATOM     26  C   LIG    1        1.672   9.428  -5.290  0.00  0.00    +0.020 C 
ATOM     27  C   LIG    1        0.706   8.350  -4.764  0.00  0.00    +0.200 C 
ENDBRANCH  21  23
ENDBRANCH  16  17
ENDBRANCH   1  16
TORSDOF 4
