REMARK  Name = ZINCAx0000000f5O.0
REMARK                            x       y       z     vdW  Elec       q    Type
REMARK                         _______ _______ _______ _____ _____    ______ ____
ROOT
ATOM      1  C   LIG    1       -0.552   2.079   8.302  0.00  0.00    +0.230 C 
ENDROOT
BRANCH   1   2
ATOM      2  N   LIG    1       -0.275   1.916   6.868  0.00  0.00    -0.510 NA
ATOM      3  C   LIG    1       -1.425   1.321   6.175  0.00  0.00    +0.180 C 
ATOM      4  C   LIG    1       -1.159   1.301   4.668  0.00  0.00    +0.050 C 
ATOM      5  C   LIG    1        0.107   0.485   4.389  0.00  0.00    +0.000 C 
ATOM      6  C   LIG    1        1.279   1.096   5.162  0.00  0.00    +0.210 C 
ATOM      7  C   LIG    1        0.942   1.123   6.654  0.00  0.00    +0.210 C 
BRANCH   6   8
ATOM      8  O   LIG    1        2.471   0.295   4.948  0.00  0.00    -0.360 OA
BRANCH   8   9
ATOM      9  C   LIG    1        3.254   0.630   3.906  0.00  0.00    +0.650 C 
ATOM     10  N   LIG    1        4.376  -0.073   3.652  0.00  0.00    -0.600 N 
ATOM     11  C   LIG    1        4.742  -1.203   4.510  0.00  0.00    +0.290 C 
ATOM     12  C   LIG    1        5.228   0.291   2.517  0.00  0.00    +0.320 C 
ATOM     13  O   LIG    1        2.950   1.567   3.194  0.00  0.00    -0.570 OA
ENDBRANCH   8   9
ENDBRANCH   6   8
ENDBRANCH   1   2
BRANCH   1  14
ATOM     14  C   LIG    1        0.656   2.668   8.982  0.00  0.00    -0.230 A 
ATOM     15  C   LIG    1        1.202   2.242  10.145  0.00  0.00    +0.280 A 
ATOM     16  N   LIG    1        2.273   3.034  10.411  0.00  0.00    -0.320 N 
ATOM     17  N   LIG    1        2.375   3.977   9.380  0.00  0.00    -0.280 NA
ATOM     18  C   LIG    1        1.408   3.758   8.527  0.00  0.00    +0.310 A 
BRANCH  16  19
ATOM     19  C   LIG    1        3.119   2.929  11.520  0.00  0.00    +0.370 A 
ATOM     20  C   LIG    1        4.177   3.818  11.663  0.00  0.00    -0.010 A 
ATOM     21  C   LIG    1        5.007   3.704  12.766  0.00  0.00    +0.100 A 
ATOM     22  C   LIG    1        4.747   2.701  13.689  0.00  0.00    -0.050 A 
ATOM     23  C   LIG    1        3.677   1.852  13.482  0.00  0.00    +0.300 A 
ATOM     24  N   LIG    1        2.901   1.989  12.424  0.00  0.00    -0.510 NA
ENDBRANCH  16  19
ENDBRANCH   1  14
BRANCH   1  27
ATOM     25  N   LIG    1       -2.510   2.889   9.578  0.00  0.00    -0.720 N 
ATOM     26  H   LIG    1       -2.312   2.216  10.248  0.00  0.00    +0.400 HD
ATOM     27  C   LIG    1       -1.730   3.000   8.484  0.00  0.00    +0.520 C 
ATOM     28  O   LIG    1       -1.978   3.842   7.646  0.00  0.00    -0.510 OA
BRANCH  25  29
ATOM     29  C   LIG    1       -3.656   3.785   9.755  0.00  0.00    +0.340 C 
BRANCH  29  35
ATOM     30  C   LIG    1       -3.848   3.923  12.252  0.00  0.00    +0.150 A 
ATOM     31  C   LIG    1       -4.494   3.618  13.441  0.00  0.00    -0.080 A 
ATOM     32  C   LIG    1       -5.642   2.849  13.424  0.00  0.00    +0.060 A 
ATOM     33  C   LIG    1       -6.145   2.383  12.223  0.00  0.00    -0.030 A 
ATOM     34  C   LIG    1       -5.506   2.691  11.036  0.00  0.00    +0.070 A 
ATOM     35  C   LIG    1       -4.355   3.455  11.049  0.00  0.00    -0.140 A 
BRANCH  30  37
ATOM     36  C   LIG    1       -2.253   5.127  13.541  0.00  0.00    +0.250 C 
ATOM     37  O   LIG    1       -2.719   4.679  12.266  0.00  0.00    -0.310 OA
ENDBRANCH  30  37
ENDBRANCH  29  35
ENDBRANCH  25  29
ENDBRANCH   1  27
TORSDOF 9
