REMARK  Name = ZINCvU0000000CRO.0
REMARK                            x       y       z     vdW  Elec       q    Type
REMARK                         _______ _______ _______ _____ _____    ______ ____
ROOT
ATOM      1  N   LIG    1        3.533   1.573  -0.022  0.00  0.00    -0.610 N 
ATOM      2  H   LIG    1        3.737   2.522  -0.019  0.00  0.00    +0.430 HD
ATOM      3  C   LIG    1        4.532   0.669  -0.037  0.00  0.00    +0.610 C 
ATOM      4  O   LIG    1        4.276  -0.521  -0.041  0.00  0.00    -0.480 OA
ENDROOT
BRANCH   1   8
ATOM      5  C   LIG    1       -0.016   1.341   0.009  0.00  0.00    +0.130 A 
ATOM      6  C   LIG    1        0.002  -0.004   0.002  0.00  0.00    -0.110 A 
ATOM      7  S   LIG    1        1.683  -0.532  -0.017  0.00  0.00    +0.210 S 
ATOM      8  C   LIG    1        2.212   1.148  -0.013  0.00  0.00    +0.270 A 
ATOM      9  N   LIG    1        1.174   1.925   0.001  0.00  0.00    -0.490 NA
BRANCH   5  13
ATOM     10  C   LIG    1       -3.640   3.564   0.039  0.00  0.00    -0.070 A 
ATOM     11  C   LIG    1       -2.425   4.226   0.037  0.00  0.00    +0.000 A 
ATOM     12  C   LIG    1       -1.246   3.510   0.027  0.00  0.00    +0.050 A 
ATOM     13  C   LIG    1       -1.280   2.116   0.020  0.00  0.00    -0.030 A 
ATOM     14  C   LIG    1       -2.507   1.455   0.016  0.00  0.00    +0.020 A 
ATOM     15  C   LIG    1       -3.680   2.182   0.032  0.00  0.00    +0.000 A 
BRANCH  10  16
ATOM     16  C   LIG    1       -4.925   4.352   0.049  0.00  0.00    +0.020 C 
ATOM     17  C   LIG    1       -5.742   4.011  -1.198  0.00  0.00    +0.030 C 
BRANCH  16  19
ATOM     18  C   LIG    1       -6.973   4.887   1.375  0.00  0.00    +0.000 C 
ATOM     19  C   LIG    1       -5.731   3.998   1.300  0.00  0.00    +0.000 C 
ENDBRANCH  16  19
ENDBRANCH  10  16
ENDBRANCH   5  13
ENDBRANCH   1   8
BRANCH   3  20
ATOM     20  C   LIG    1        5.927   1.118  -0.047  0.00  0.00    -0.070 A 
ATOM     21  C   LIG    1        7.030   0.312  -0.061  0.00  0.00    +0.070 A 
ATOM     22  C   LIG    1        8.149   1.160  -0.067  0.00  0.00    -0.030 A 
ATOM     23  C   LIG    1        7.686   2.429  -0.055  0.00  0.00    +0.010 A 
ATOM     24  O   LIG    1        6.347   2.400  -0.049  0.00  0.00    -0.150 OA
BRANCH  23  25
ATOM     25  C   LIG    1        8.537   3.673  -0.056  0.00  0.00    +0.420 C 
BRANCH  25  26
ATOM     26  N   LIG    1        8.801   4.084  -1.437  0.00  0.00    -0.500 N 
ATOM     27  C   LIG    1        9.899   3.611  -2.080  0.00  0.00    +0.290 A 
ATOM     28  C   LIG    1       10.161   3.972  -3.357  0.00  0.00    -0.070 A 
ATOM     29  C   LIG    1        9.299   4.852  -4.027  0.00  0.00    +0.120 A 
ATOM     30  C   LIG    1        8.200   5.332  -3.377  0.00  0.00    -0.090 A 
ATOM     31  C   LIG    1        7.955   4.932  -2.052  0.00  0.00    +0.510 A 
ATOM     32  O   LIG    1        6.975   5.353  -1.459  0.00  0.00    -0.540 OA
ENDBRANCH  25  26
ENDBRANCH  23  25
ENDBRANCH   3  20
TORSDOF 7
