REMARK  Name = ZINCvU0000000965.0
REMARK                            x       y       z     vdW  Elec       q    Type
REMARK                         _______ _______ _______ _____ _____    ______ ____
ROOT
ATOM      1  N   LIG    1        8.600   2.742   2.531  0.00  0.00    -0.480 NA
ATOM      2  C   LIG    1        7.845   2.423   1.502  0.00  0.00    +0.390 C 
ATOM      3  S   LIG    1        6.195   2.994   1.197  0.00  0.00    -0.050 S 
ATOM      4  C   LIG    1        6.010   2.065  -0.362  0.00  0.00    +0.060 C 
ATOM      5  C   LIG    1        7.334   1.353  -0.507  0.00  0.00    +0.540 C 
ATOM      6  O   LIG    1        7.592   0.624  -1.441  0.00  0.00    -0.460 OA
ATOM      7  N   LIG    1        8.188   1.593   0.474  0.00  0.00    -0.530 N 
ENDROOT
BRANCH   1  11
ATOM      8  C   LIG    1        7.164   5.302   5.432  0.00  0.00    -0.180 A 
ATOM      9  C   LIG    1        7.838   4.129   5.803  0.00  0.00    +0.100 A 
ATOM     10  C   LIG    1        8.312   3.284   4.844  0.00  0.00    +0.030 A 
ATOM     11  C   LIG    1        8.126   3.587   3.489  0.00  0.00    +0.140 A 
ATOM     12  C   LIG    1        7.459   4.761   3.118  0.00  0.00    -0.020 A 
ATOM     13  C   LIG    1        6.979   5.605   4.075  0.00  0.00    +0.090 A 
BRANCH   8  15
ATOM     14  C   LIG    1        5.930   7.471   6.063  0.00  0.00    +0.080 C 
ATOM     15  C   LIG    1        6.654   6.211   6.462  0.00  0.00    +0.390 C 
ATOM     16  O   LIG    1        6.814   5.949   7.636  0.00  0.00    -0.460 OA
ENDBRANCH   8  15
ENDBRANCH   1  11
BRANCH   4  17
ATOM     17  C   LIG    1        4.864   1.057  -0.255  0.00  0.00    +0.120 C 
BRANCH  17  18
ATOM     18  C   LIG    1        3.556   1.794  -0.124  0.00  0.00    +0.520 C 
ATOM     19  N   LIG    1        2.403   1.106  -0.015  0.00  0.00    -0.670 N 
ATOM     20  H   LIG    1        2.419   0.138   0.046  0.00  0.00    +0.420 HD
ATOM     21  O   LIG    1        3.542   3.007  -0.118  0.00  0.00    -0.500 OA
BRANCH  19  22
ATOM     22  C   LIG    1        1.181   1.788   0.008  0.00  0.00    +0.160 A 
ATOM     23  C   LIG    1        0.059   1.225  -0.586  0.00  0.00    +0.000 A 
ATOM     24  C   LIG    1       -1.145   1.903  -0.566  0.00  0.00    +0.070 A 
ATOM     25  C   LIG    1       -1.235   3.136   0.054  0.00  0.00    -0.100 A 
ATOM     26  C   LIG    1       -0.119   3.699   0.647  0.00  0.00    +0.070 A 
ATOM     27 BR   LIG    1       -2.886   4.058   0.085  0.00  0.00    -0.050 Br
ATOM     28  C   LIG    1        1.088   3.028   0.626  0.00  0.00    +0.040 A 
ENDBRANCH  19  22
ENDBRANCH  17  18
ENDBRANCH   4  17
BRANCH   7  29
ATOM     29  C   LIG    1        9.512   0.964   0.457  0.00  0.00    +0.300 C 
BRANCH  29  30
ATOM     30  C   LIG    1        9.447  -0.380   1.185  0.00  0.00    -0.030 C 
ATOM     31  C   LIG    1       10.852  -0.979   1.276  0.00  0.00    +0.040 C 
ATOM     32  C   LIG    1        8.535  -1.335   0.412  0.00  0.00    +0.020 C 
ENDBRANCH  29  30
ENDBRANCH   7  29
TORSDOF 7
