REMARK  Name = ZINCpk000000pPY9.0
REMARK                            x       y       z     vdW  Elec       q    Type
REMARK                         _______ _______ _______ _____ _____    ______ ____
ROOT
ATOM      1  C   LIG    1       -2.277   1.550   0.727  0.00  0.00    +0.240 C 
ATOM      2  C   LIG    1       -0.816   1.624   1.221  0.00  0.00    +0.070 C 
ATOM      3  C   LIG    1       -0.013   1.086   0.008  0.00  0.00    +0.040 C 
ATOM      4  C   LIG    1       -0.838   1.637  -1.182  0.00  0.00    +0.260 C 
ATOM      5  N   LIG    1       -2.242   1.544  -0.742  0.00  0.00    -0.590 N 
ATOM      6  C   LIG    1       -3.315   1.465  -1.554  0.00  0.00    +0.670 C 
ATOM      7  O   LIG    1       -4.431   1.392  -1.079  0.00  0.00    -0.560 OA
ENDROOT
BRANCH   1  10
ATOM      8  N   LIG    1       -3.531   2.772   2.475  0.00  0.00    -0.710 N 
ATOM      9  H   LIG    1       -3.381   2.017   3.066  0.00  0.00    +0.410 HD
ATOM     10  C   LIG    1       -3.049   2.748   1.216  0.00  0.00    +0.510 C 
ATOM     11  O   LIG    1       -3.236   3.692   0.478  0.00  0.00    -0.520 OA
BRANCH   8  12
ATOM     12  C   LIG    1       -4.281   3.937   2.950  0.00  0.00    +0.250 C 
BRANCH  12  13
ATOM     13  C   LIG    1       -4.178   4.022   4.452  0.00  0.00    +0.510 C 
ATOM     14  N   LIG    1       -4.794   5.022   5.114  0.00  0.00    -0.730 N 
ATOM     15  H   LIG    1       -5.303   5.686   4.624  0.00  0.00    +0.410 HD
ATOM     16  C   LIG    1       -4.694   5.105   6.573  0.00  0.00    +0.290 C 
ATOM     17  O   LIG    1       -3.541   3.192   5.064  0.00  0.00    -0.530 OA
ENDBRANCH  12  13
BRANCH  12  19
ATOM     18  C   LIG    1       -5.866   3.836   1.022  0.00  0.00    +0.030 C 
ATOM     19  C   LIG    1       -5.750   3.797   2.547  0.00  0.00    +0.010 C 
ENDBRANCH  12  19
ENDBRANCH   8  12
ENDBRANCH   1  10
BRANCH   6  20
ATOM     20  O   LIG    1       -3.151   1.469  -2.890  0.00  0.00    -0.360 OA
BRANCH  20  21
ATOM     21  C   LIG    1       -4.351   1.382  -3.702  0.00  0.00    +0.290 C 
BRANCH  21  22
ATOM     22  C   LIG    1       -3.973   1.399  -5.161  0.00  0.00    -0.100 A 
ATOM     23  C   LIG    1       -3.887   2.600  -5.838  0.00  0.00    +0.040 A 
ATOM     24  C   LIG    1       -3.536   2.616  -7.176  0.00  0.00    +0.010 A 
ATOM     25  C   LIG    1       -3.280   1.430  -7.837  0.00  0.00    +0.020 A 
ATOM     26  C   LIG    1       -3.371   0.228  -7.161  0.00  0.00    +0.010 A 
ATOM     27  C   LIG    1       -3.718   0.212  -5.823  0.00  0.00    +0.030 A 
ENDBRANCH  21  22
ENDBRANCH  20  21
ENDBRANCH   6  20
TORSDOF 7
