REMARK  Name = ZINCkj00000GePFX.1
REMARK                            x       y       z     vdW  Elec       q    Type
REMARK                         _______ _______ _______ _____ _____    ______ ____
ROOT
ATOM      1  N   LIG    1        1.859   4.200  -2.675  0.00  0.00    -0.750 N 
ATOM      2  H   LIG    1        2.713   4.579  -2.414  0.00  0.00    +0.400 HD
ATOM      3  C   LIG    1        1.559   2.927  -2.350  0.00  0.00    +0.710 C 
ATOM      4  N   LIG    1        2.446   2.181  -1.662  0.00  0.00    -0.730 N 
ATOM      5  H   LIG    1        3.300   2.560  -1.401  0.00  0.00    +0.400 HD
ATOM      6  O   LIG    1        0.489   2.452  -2.677  0.00  0.00    -0.580 OA
ENDROOT
BRANCH   1   7
ATOM      7  C   LIG    1        0.896   5.012  -3.422  0.00  0.00    +0.300 C 
BRANCH   7   8
ATOM      8  C   LIG    1        1.479   6.407  -3.660  0.00  0.00    +0.250 C 
BRANCH   8  15
ATOM      9  C   LIG    1        2.318   8.587  -5.339  0.00  0.00    +0.090 C 
ATOM     10  C   LIG    1        1.020   8.592  -4.529  0.00  0.00    +0.170 C 
ATOM     11  C   LIG    1       -0.019   9.464  -5.239  0.00  0.00    +0.060 C 
ATOM     12  C   LIG    1       -0.289   8.894  -6.634  0.00  0.00    +0.040 C 
ATOM     13  C   LIG    1       -0.746   7.438  -6.501  0.00  0.00    +0.060 C 
ATOM     14  C   LIG    1        0.321   6.643  -5.745  0.00  0.00    +0.240 C 
ATOM     15  N   LIG    1        0.512   7.220  -4.409  0.00  0.00    -0.370 N 
ATOM     16  H   LIG    1       -0.369   7.230  -3.919  0.00  0.00    +0.430 HD
ENDBRANCH   8  15
ENDBRANCH   7   8
ENDBRANCH   1   7
BRANCH   4  17
ATOM     17  C   LIG    1        2.120   0.797  -1.308  0.00  0.00    +0.290 C 
BRANCH  17  18
ATOM     18  C   LIG    1        1.317   0.779  -0.006  0.00  0.00    -0.070 C 
ATOM     19  C   LIG    1       -0.019   1.526   0.010  0.00  0.00    +0.030 C 
ATOM     20  C   LIG    1        0.002  -0.004   0.002  0.00  0.00    +0.030 C 
ENDBRANCH  17  18
BRANCH  17  21
ATOM     21  C   LIG    1        3.413   0.000  -1.121  0.00  0.00    +0.050 C 
BRANCH  21  22
ATOM     22  C   LIG    1        4.155  -0.087  -2.456  0.00  0.00    +0.170 C 
BRANCH  22  23
ATOM     23  O   LIG    1        5.363  -0.831  -2.281  0.00  0.00    -0.570 OA
ATOM     24  H   LIG    1        5.886  -0.927  -3.088  0.00  0.00    +0.380 HD
ENDBRANCH  22  23
ENDBRANCH  21  22
ENDBRANCH  17  21
ENDBRANCH   4  17
TORSDOF 8
