REMARK  Name = ZINCkj00000GePFX.0
REMARK                            x       y       z     vdW  Elec       q    Type
REMARK                         _______ _______ _______ _____ _____    ______ ____
ROOT
ATOM      1  N   LIG    1       -0.754   3.423   1.277  0.00  0.00    -0.750 N 
ATOM      2  H   LIG    1       -0.347   3.918   0.548  0.00  0.00    +0.400 HD
ATOM      3  C   LIG    1       -1.337   4.083   2.297  0.00  0.00    +0.710 C 
ATOM      4  N   LIG    1       -1.355   5.431   2.304  0.00  0.00    -0.730 N 
ATOM      5  H   LIG    1       -0.949   5.926   1.576  0.00  0.00    +0.400 HD
ATOM      6  O   LIG    1       -1.846   3.463   3.210  0.00  0.00    -0.580 OA
ENDROOT
BRANCH   1   7
ATOM      7  C   LIG    1       -0.734   1.958   1.269  0.00  0.00    +0.300 C 
BRANCH   7   8
ATOM      8  C   LIG    1       -0.018   1.465   0.010  0.00  0.00    +0.250 C 
BRANCH   8  15
ATOM      9  C   LIG    1        2.206   0.122  -1.056  0.00  0.00    +0.080 C 
ATOM     10  C   LIG    1        0.799  -0.475  -1.137  0.00  0.00    +0.170 C 
ATOM     11  C   LIG    1        0.891  -2.002  -1.104  0.00  0.00    +0.060 C 
ATOM     12  C   LIG    1       -0.519  -2.594  -1.186  0.00  0.00    +0.040 C 
ATOM     13  C   LIG    1       -1.363  -2.038  -0.036  0.00  0.00    +0.050 C 
ATOM     14  C   LIG    1       -1.371  -0.510  -0.108  0.00  0.00    +0.250 C 
ATOM     15  N   LIG    1        0.002  -0.004   0.002  0.00  0.00    -0.380 N 
ATOM     16  H   LIG    1        0.415  -0.339   0.860  0.00  0.00    +0.420 HD
ENDBRANCH   8  15
ENDBRANCH   7   8
ENDBRANCH   1   7
BRANCH   4  17
ATOM     17  C   LIG    1       -1.989   6.149   3.413  0.00  0.00    +0.290 C 
BRANCH  17  18
ATOM     18  C   LIG    1       -3.490   6.276   3.147  0.00  0.00    -0.070 C 
ATOM     19  C   LIG    1       -4.445   5.830   4.256  0.00  0.00    +0.030 C 
ATOM     20  C   LIG    1       -4.292   4.983   2.991  0.00  0.00    +0.030 C 
ENDBRANCH  17  18
BRANCH  17  21
ATOM     21  C   LIG    1       -1.373   7.544   3.536  0.00  0.00    +0.050 C 
BRANCH  21  22
ATOM     22  C   LIG    1        0.102   7.418   3.925  0.00  0.00    +0.170 C 
BRANCH  22  23
ATOM     23  O   LIG    1        0.677   8.721   4.040  0.00  0.00    -0.570 OA
ATOM     24  H   LIG    1        1.613   8.717   4.285  0.00  0.00    +0.380 HD
ENDBRANCH  22  23
ENDBRANCH  21  22
ENDBRANCH  17  21
ENDBRANCH   4  17
TORSDOF 8
