REMARK  Name = ZINCtj00000mgsAV.0
REMARK                            x       y       z     vdW  Elec       q    Type
REMARK                         _______ _______ _______ _____ _____    ______ ____
ROOT
ATOM      1  C   LIG    1        2.770   0.691   0.446  0.00  0.00    -0.150 A 
ATOM      2  C   LIG    1        1.637   1.517   0.393  0.00  0.00    +0.180 A 
ATOM      3  C   LIG    1        0.404   0.929   0.306  0.00  0.00    -0.040 A 
ATOM      4  C   LIG    1        0.309  -0.461   0.272  0.00  0.00    +0.330 A 
ATOM      5  N   LIG    1        1.396  -1.219   0.323  0.00  0.00    -0.520 NA
ATOM      6  C   LIG    1        2.601  -0.695   0.407  0.00  0.00    +0.330 A 
ENDROOT
BRANCH   1  12
ATOM      7  C   LIG    1        5.456   3.158   0.662  0.00  0.00    +0.190 A 
ATOM      8  C   LIG    1        6.579   2.386   0.716  0.00  0.00    -0.130 A 
ATOM      9  C   LIG    1        6.445   0.985   0.679  0.00  0.00    +0.530 A 
ATOM     10  N   LIG    1        5.206   0.454   0.596  0.00  0.00    -0.630 N 
ATOM     11  H   LIG    1        5.089  -0.509   0.573  0.00  0.00    +0.410 HD
ATOM     12  C   LIG    1        4.120   1.277   0.541  0.00  0.00    +0.450 A 
ATOM     13  O   LIG    1        7.428   0.264   0.726  0.00  0.00    -0.530 OA
ATOM     14  N   LIG    1        4.256   2.587   0.576  0.00  0.00    -0.520 NA
BRANCH   7  16
ATOM     15  C   LIG    1        5.576   5.208  -0.729  0.00  0.00    +0.040 C 
ATOM     16  C   LIG    1        5.573   4.660   0.700  0.00  0.00    +0.100 C 
ENDBRANCH   7  16
ENDBRANCH   1  12
BRANCH   4  17
ATOM     17  N   LIG    1       -0.937  -1.058   0.183  0.00  0.00    -0.470 N 
ATOM     18  C   LIG    1       -1.814  -0.612   1.274  0.00  0.00    +0.210 C 
ATOM     19  C   LIG    1       -3.230  -1.150   1.040  0.00  0.00    +0.300 C 
ATOM     20  N   LIG    1       -3.152  -2.607   0.862  0.00  0.00    -0.590 N 
ATOM     21  C   LIG    1       -2.193  -3.139  -0.119  0.00  0.00    +0.310 C 
ATOM     22  C   LIG    1       -3.938  -3.435   1.580  0.00  0.00    +0.500 C 
ATOM     23  O   LIG    1       -3.860  -4.635   1.421  0.00  0.00    -0.530 OA
ATOM     24  C   LIG    1       -0.819  -2.522   0.161  0.00  0.00    +0.220 C 
BRANCH  22  25
ATOM     25  C   LIG    1       -4.913  -2.869   2.579  0.00  0.00    +0.280 C 
BRANCH  25  26
ATOM     26  N   LIG    1       -5.537  -3.967   3.331  0.00  0.00    -0.370 N 
ATOM     27  H   LIG    1       -5.927  -4.636   2.685  0.00  0.00    +0.430 HD
BRANCH  26  28
ATOM     28  C   LIG    1       -6.604  -3.430   4.186  0.00  0.00    +0.250 C 
ATOM     29  C   LIG    1       -7.723  -2.864   3.310  0.00  0.00    +0.080 C 
ENDBRANCH  26  28
BRANCH  26  30
ATOM     30  C   LIG    1       -4.524  -4.625   4.167  0.00  0.00    +0.250 C 
ATOM     31  C   LIG    1       -5.143  -5.844   4.853  0.00  0.00    +0.090 C 
ENDBRANCH  26  30
ENDBRANCH  25  26
ENDBRANCH  22  25
ENDBRANCH   4  17
TORSDOF 7
