REMARK  Name = ZINCpe000000UFfQ.0
REMARK                            x       y       z     vdW  Elec       q    Type
REMARK                         _______ _______ _______ _____ _____    ______ ____
ROOT
ATOM      1  N   LIG    1       -2.162  -2.996   0.693  0.00  0.00    -0.530 N 
ATOM      2  C   LIG    1       -1.736  -4.263   0.549  0.00  0.00    +0.500 C 
ATOM      3  C   LIG    1       -0.310  -4.211   0.088  0.00  0.00    +0.400 C 
ATOM      4  C   LIG    1        0.005  -2.777  -0.008  0.00  0.00    -0.240 A 
ATOM      5  C   LIG    1        1.157  -2.078  -0.378  0.00  0.00    +0.150 A 
ATOM      6  C   LIG    1        1.153  -0.696  -0.371  0.00  0.00    +0.010 A 
ATOM      7  C   LIG    1        0.002  -0.004   0.002  0.00  0.00    +0.130 A 
ATOM      8  O   LIG    1       -0.016   1.355   0.009  0.00  0.00    -0.300 OA
ATOM      9  C   LIG    1        1.252   2.018   0.001  0.00  0.00    +0.230 C 
ATOM     10  C   LIG    1        2.134   1.356  -1.068  0.00  0.00    +0.230 C 
ATOM     11  C   LIG    1       -1.145  -0.698   0.372  0.00  0.00    +0.010 A 
ATOM     12  O   LIG    1        2.285  -0.027  -0.729  0.00  0.00    -0.300 OA
ATOM     13  O   LIG    1        0.423  -5.148  -0.154  0.00  0.00    -0.370 OA
ATOM     14  O   LIG    1       -2.387  -5.266   0.756  0.00  0.00    -0.450 OA
ATOM     15  C   LIG    1       -1.157  -2.083   0.371  0.00  0.00    +0.210 A 
ENDROOT
BRANCH   1  16
ATOM     16  C   LIG    1       -3.509  -2.623   1.132  0.00  0.00    +0.470 C 
BRANCH  16  18
ATOM     17  C   LIG    1       -4.869  -3.805  -0.485  0.00  0.00    +0.190 C 
ATOM     18  N   LIG    1       -4.387  -2.491  -0.038  0.00  0.00    -0.550 NA
BRANCH  18  19
ATOM     19  C   LIG    1       -5.509  -1.586   0.245  0.00  0.00    +0.280 C 
BRANCH  19  20
ATOM     20  C   LIG    1       -6.244  -1.282  -1.035  0.00  0.00    -0.230 A 
ATOM     21  C   LIG    1       -7.285  -1.984  -1.542  0.00  0.00    +0.230 A 
ATOM     22  N   LIG    1       -7.657  -1.392  -2.696  0.00  0.00    -0.370 N 
ATOM     23  N   LIG    1       -6.818  -0.290  -2.905  0.00  0.00    -0.300 NA
ATOM     24  C   LIG    1       -8.747  -1.824  -3.574  0.00  0.00    +0.360 C 
ATOM     25  C   LIG    1       -5.976  -0.222  -1.907  0.00  0.00    +0.250 A 
ENDBRANCH  19  20
ENDBRANCH  18  19
ENDBRANCH  16  18
ENDBRANCH   1  16
TORSDOF 4
