REMARK  Name = ZINCqH0000008JIa.0
REMARK                            x       y       z     vdW  Elec       q    Type
REMARK                         _______ _______ _______ _____ _____    ______ ____
ROOT
ATOM      1  C   LIG    1       -2.735   2.085   2.227  0.00  0.00    +0.150 A 
ATOM      2  N   LIG    1       -2.591   3.121   1.433  0.00  0.00    -0.290 NA
ATOM      3  N   LIG    1       -1.645   2.900   0.592  0.00  0.00    -0.280 NA
ATOM      4  C   LIG    1       -1.137   1.716   0.789  0.00  0.00    +0.230 A 
ATOM      5  N   LIG    1       -1.810   1.154   1.841  0.00  0.00    -0.410 N 
ENDROOT
BRANCH   5   6
ATOM      6  C   LIG    1       -1.595  -0.112   2.405  0.00  0.00    +0.100 A 
ATOM      7  C   LIG    1       -1.844  -1.257   1.659  0.00  0.00    +0.030 A 
ATOM      8  C   LIG    1       -1.627  -2.502   2.216  0.00  0.00    +0.040 A 
ATOM      9  C   LIG    1       -1.173  -2.610   3.517  0.00  0.00    +0.030 A 
ATOM     10  C   LIG    1       -0.929  -1.472   4.264  0.00  0.00    +0.040 A 
ATOM     11  C   LIG    1       -1.139  -0.224   3.711  0.00  0.00    +0.030 A 
ENDBRANCH   5   6
BRANCH   4  12
ATOM     12  C   LIG    1       -0.013   1.086   0.008  0.00  0.00    +0.040 C 
ATOM     13  C   LIG    1        0.460   1.806  -1.256  0.00  0.00    +0.070 C 
ATOM     14  C   LIG    1        1.335   1.811  -0.001  0.00  0.00    +0.060 C 
ENDBRANCH   4  12
BRANCH   1  15
ATOM     15  S   LIG    1       -3.898   1.924   3.541  0.00  0.00    +0.090 S 
BRANCH  15  16
ATOM     16  C   LIG    1       -4.734   3.525   3.418  0.00  0.00    +0.110 C 
BRANCH  16  23
ATOM     17  C   LIG    1       -7.528   7.466   2.148  0.00  0.00    +0.030 C 
ATOM     18  C   LIG    1       -7.693   6.208   3.002  0.00  0.00    -0.030 C 
ATOM     19  C   LIG    1       -8.740   6.462   4.088  0.00  0.00    +0.030 C 
ATOM     20  C   LIG    1       -8.930   5.193   4.923  0.00  0.00    -0.020 C 
ATOM     21  C   LIG    1       -7.606   4.830   5.602  0.00  0.00    +0.290 C 
ATOM     22  N   LIG    1       -6.560   4.727   4.576  0.00  0.00    -0.600 N 
ATOM     23  C   LIG    1       -5.803   3.616   4.476  0.00  0.00    +0.540 C 
ATOM     24  O   LIG    1       -5.982   2.690   5.239  0.00  0.00    -0.520 OA
ATOM     25  C   LIG    1       -9.367   4.044   4.012  0.00  0.00    +0.030 C 
ATOM     26  C   LIG    1       -6.351   5.859   3.663  0.00  0.00    +0.280 C 
ENDBRANCH  16  23
ENDBRANCH  15  16
ENDBRANCH   1  15
TORSDOF 5
