REMARK  Name = ZINCqH0000008w3U.0
REMARK                            x       y       z     vdW  Elec       q    Type
REMARK                         _______ _______ _______ _____ _____    ______ ____
ROOT
ATOM      1  C   LIG    1        2.417  -2.683  -0.035  0.00  0.00    +0.350 A 
ATOM      2  N   LIG    1        1.280  -2.035  -0.021  0.00  0.00    -0.500 NA
ATOM      3  C   LIG    1        1.224  -0.681  -0.013  0.00  0.00    +0.130 A 
ATOM      4  C   LIG    1        2.425   0.063  -0.021  0.00  0.00    -0.080 A 
ATOM      5  C   LIG    1        3.698  -0.675  -0.036  0.00  0.00    +0.330 A 
ATOM      6  N   LIG    1        4.953  -0.292  -0.046  0.00  0.00    -0.470 NA
ATOM      7  C   LIG    1        5.763  -1.379  -0.059  0.00  0.00    +0.080 A 
ATOM      8  C   LIG    1        7.152  -1.539  -0.074  0.00  0.00    +0.070 A 
ATOM      9  C   LIG    1        7.693  -2.793  -0.086  0.00  0.00    +0.030 A 
ATOM     10  C   LIG    1        6.878  -3.916  -0.084  0.00  0.00    +0.040 A 
ATOM     11  C   LIG    1        5.505  -3.783  -0.070  0.00  0.00    +0.040 A 
ATOM     12  C   LIG    1        4.936  -2.517  -0.058  0.00  0.00    +0.040 A 
ATOM     13  C   LIG    1        2.384   1.455  -0.013  0.00  0.00    +0.080 A 
ATOM     14  C   LIG    1        1.166   2.100   0.002  0.00  0.00    +0.020 A 
ATOM     15  C   LIG    1       -0.017   1.373   0.010  0.00  0.00    +0.060 A 
ATOM     16  C   LIG    1        0.002  -0.004   0.002  0.00  0.00    +0.050 A 
ATOM     17  N   LIG    1        3.634  -2.051  -0.043  0.00  0.00    -0.440 N 
ENDROOT
BRANCH   1  18
ATOM     18  S   LIG    1        2.382  -4.444  -0.043  0.00  0.00    +0.080 S 
BRANCH  18  20
ATOM     19  C   LIG    1        0.009  -4.206   1.289  0.00  0.00    +0.080 C 
ATOM     20  C   LIG    1        0.594  -4.723  -0.027  0.00  0.00    +0.020 C 
BRANCH  20  21
ATOM     21  C   LIG    1        0.315  -6.199  -0.155  0.00  0.00    +0.540 C 
ATOM     22  N   LIG    1       -0.861  -6.621  -0.661  0.00  0.00    -0.690 N 
ATOM     23  H   LIG    1       -1.527  -5.975  -0.944  0.00  0.00    +0.410 HD
ATOM     24  O   LIG    1        1.148  -7.007   0.198  0.00  0.00    -0.520 OA
BRANCH  22  25
ATOM     25  C   LIG    1       -1.132  -8.055  -0.786  0.00  0.00    +0.210 C 
ATOM     26  C   LIG    1       -1.778  -8.542  -2.085  0.00  0.00    +0.020 C 
ATOM     27  C   LIG    1       -2.596  -8.499  -0.793  0.00  0.00    +0.020 C 
ENDBRANCH  22  25
ENDBRANCH  20  21
ENDBRANCH  18  20
ENDBRANCH   1  18
TORSDOF 4
