REMARK  Name = ZINCb80000002C1Q.0
REMARK                            x       y       z     vdW  Elec       q    Type
REMARK                         _______ _______ _______ _____ _____    ______ ____
ROOT
ATOM      1  C   LIG    1        1.107   3.189   0.008  0.00  0.00    +0.450 C 
ATOM      2  N   LIG    1       -0.060   3.814   0.023  0.00  0.00    -0.500 NA
ATOM      3  C   LIG    1       -1.200   3.150   0.030  0.00  0.00    +0.310 C 
ATOM      4  C   LIG    1       -1.216   1.770   0.017  0.00  0.00    +0.020 C 
ATOM      5  C   LIG    1       -0.013   1.076   0.008  0.00  0.00    +0.180 C 
ATOM      6  H   LIG    1       -0.077   4.784   0.028  0.00  0.00    +0.440 HD
ATOM      7  C   LIG    1        1.166   1.799   0.001  0.00  0.00    -0.080 C 
ENDROOT
BRANCH   1   8
ATOM      8  N   LIG    1        2.284   3.929   0.001  0.00  0.00    -0.820 NA
ATOM      9  H   LIG    1        2.248   4.898   0.006  0.00  0.00    +0.410 HD
ATOM     10  H   LIG    1        3.142   3.475  -0.009  0.00  0.00    +0.440 HD
ENDBRANCH   1   8
BRANCH   7  11
ATOM     11  C   LIG    1        2.497   1.091  -0.016  0.00  0.00    +0.010 C 
BRANCH  11  12
ATOM     12  C   LIG    1        3.012   0.957   1.394  0.00  0.00    +0.490 C 
ATOM     13  O   LIG    1        4.081   0.409   1.603  0.00  0.00    -0.670 OA
ATOM     14  O   LIG    1        2.359   1.395   2.326  0.00  0.00    -0.690 OA
ENDBRANCH  11  12
ENDBRANCH   7  11
TORSDOF 3
