REMARK  Name = ZINCrH000004maD4.0
REMARK                            x       y       z     vdW  Elec       q    Type
REMARK                         _______ _______ _______ _____ _____    ______ ____
ROOT
ATOM      1  N   LIG    1        3.626  -0.649  -0.036  0.00  0.00    -0.680 N 
ATOM      2  H   LIG    1        3.643  -1.617   0.027  0.00  0.00    +0.410 HD
ATOM      3  C   LIG    1        4.779   0.040  -0.145  0.00  0.00    +0.710 C 
ATOM      4  N   LIG    1        5.949  -0.619  -0.261  0.00  0.00    -0.730 N 
ATOM      5  H   LIG    1        5.961  -1.589  -0.266  0.00  0.00    +0.400 HD
ATOM      6  O   LIG    1        4.764   1.255  -0.139  0.00  0.00    -0.560 OA
ENDROOT
BRANCH   1  11
ATOM      7  C   LIG    1        0.073   0.145  -0.583  0.00  0.00    +0.180 A 
ATOM      8  C   LIG    1       -0.016   1.384   0.036  0.00  0.00    -0.120 A 
ATOM      9  C   LIG    1        1.102   1.945   0.628  0.00  0.00    +0.160 A 
ATOM     10  C   LIG    1        2.311   1.272   0.605  0.00  0.00    -0.030 A 
ATOM     11  C   LIG    1        2.404   0.032  -0.013  0.00  0.00    +0.230 A 
ATOM     12  F   LIG    1        1.013   3.152   1.230  0.00  0.00    -0.130 F 
ATOM     13  C   LIG    1        1.283  -0.531  -0.607  0.00  0.00    -0.050 A 
BRANCH   7  15
ATOM     14  C   LIG    1       -2.238   0.348  -1.102  0.00  0.00    +0.240 C 
ATOM     15  O   LIG    1       -1.025  -0.405  -1.164  0.00  0.00    -0.310 OA
ENDBRANCH   7  15
ENDBRANCH   1  11
BRANCH   4  16
ATOM     16  C   LIG    1        7.203   0.129  -0.379  0.00  0.00    +0.300 C 
ATOM     17  C   LIG    1        7.437   0.503  -1.844  0.00  0.00    +0.040 C 
BRANCH  16  18
ATOM     18  C   LIG    1        8.345  -0.723   0.110  0.00  0.00    -0.020 A 
ATOM     19  C   LIG    1        8.376  -2.072  -0.189  0.00  0.00    -0.100 A 
ATOM     20  C   LIG    1        9.428  -2.859   0.255  0.00  0.00    +0.160 A 
ATOM     21  C   LIG    1       10.447  -2.292   1.011  0.00  0.00    +0.030 A 
ATOM     22  C   LIG    1       10.409  -0.936   1.314  0.00  0.00    +0.160 A 
ATOM     23  C   LIG    1        9.357  -0.155   0.862  0.00  0.00    -0.080 A 
BRANCH  22  24
ATOM     24  O   LIG    1       11.404  -0.376   2.054  0.00  0.00    -0.300 OA
ATOM     25  C   LIG    1       11.300   1.023   2.326  0.00  0.00    +0.250 C 
ENDBRANCH  22  24
BRANCH  21  26
ATOM     26  O   LIG    1       11.478  -3.062   1.454  0.00  0.00    -0.310 OA
ATOM     27  C   LIG    1       11.321  -3.685   2.730  0.00  0.00    +0.210 C 
ENDBRANCH  21  26
BRANCH  20  28
ATOM     28  O   LIG    1        9.460  -4.185  -0.044  0.00  0.00    -0.300 OA
ATOM     29  C   LIG    1        8.380  -4.700  -0.826  0.00  0.00    +0.250 C 
ENDBRANCH  20  28
ENDBRANCH  16  18
ENDBRANCH   4  16
TORSDOF 7
