REMARK  Name = ZINCvU00000006eF.1
REMARK                            x       y       z     vdW  Elec       q    Type
REMARK                         _______ _______ _______ _____ _____    ______ ____
ROOT
ATOM      1  N   LIG    1       -2.725   1.133   0.695  0.00  0.00    -0.450 NA
ATOM      2  C   LIG    1       -1.542   1.670   0.514  0.00  0.00    +0.370 C 
ATOM      3  N   LIG    1       -0.367   0.996   0.320  0.00  0.00    -0.680 N 
ATOM      4  H   LIG    1       -0.364   0.026   0.308  0.00  0.00    +0.420 HD
ATOM      5  C   LIG    1        0.763   1.659   0.142  0.00  0.00    +0.530 C 
ATOM      6  C   LIG    1        0.612   3.162   0.184  0.00  0.00    +0.050 C 
ATOM      7  O   LIG    1        1.828   1.109  -0.038  0.00  0.00    -0.470 OA
ATOM      8  S   LIG    1       -1.172   3.404   0.479  0.00  0.00    +0.050 S 
ENDROOT
BRANCH   1  14
ATOM      9  C   LIG    1       -3.130  -0.913  -0.486  0.00  0.00    -0.090 A 
ATOM     10  C   LIG    1       -3.264  -2.286  -0.473  0.00  0.00    +0.020 A 
ATOM     11  C   LIG    1       -3.146  -2.985   0.716  0.00  0.00    +0.010 A 
ATOM     12  C   LIG    1       -2.888  -2.313   1.898  0.00  0.00    +0.020 A 
ATOM     13  C   LIG    1       -2.747  -0.941   1.898  0.00  0.00    -0.090 A 
ATOM     14  C   LIG    1       -2.864  -0.230   0.702  0.00  0.00    +0.080 A 
BRANCH   9  16
ATOM     15  C   LIG    1       -1.879   0.066  -2.390  0.00  0.00    +0.020 C 
ATOM     16  C   LIG    1       -3.265  -0.154  -1.780  0.00  0.00    +0.070 C 
ENDBRANCH   9  16
BRANCH  13  17
ATOM     17  C   LIG    1       -2.465  -0.211   3.186  0.00  0.00    +0.050 C 
ATOM     18  C   LIG    1       -3.780   0.291   3.785  0.00  0.00    +0.030 C 
ENDBRANCH  13  17
ENDBRANCH   1  14
BRANCH   6  19
ATOM     19  C   LIG    1        1.432   3.754   1.331  0.00  0.00    +0.130 C 
BRANCH  19  20
ATOM     20  C   LIG    1        1.363   5.259   1.275  0.00  0.00    +0.520 C 
ATOM     21  N   LIG    1        2.015   5.999   2.193  0.00  0.00    -0.670 N 
ATOM     22  H   LIG    1        2.465   5.565   2.935  0.00  0.00    +0.410 HD
ATOM     23  O   LIG    1        0.720   5.804   0.402  0.00  0.00    -0.510 OA
BRANCH  21  24
ATOM     24  C   LIG    1        2.042   7.392   2.078  0.00  0.00    +0.140 A 
ATOM     25  C   LIG    1        2.070   7.972   0.829  0.00  0.00    +0.030 A 
ATOM     26  C   LIG    1        2.093   9.372   0.717  0.00  0.00    -0.030 A 
ATOM     27  C   LIG    1        2.117  10.001  -0.540  0.00  0.00    +0.020 A 
ATOM     28  C   LIG    1        2.145  11.360  -0.613  0.00  0.00    +0.010 A 
ATOM     29  C   LIG    1        2.148  12.139   0.542  0.00  0.00    +0.000 A 
ATOM     30  C   LIG    1        2.125  11.565   1.776  0.00  0.00    +0.030 A 
ATOM     31  C   LIG    1        2.096  10.165   1.891  0.00  0.00    -0.060 A 
ATOM     32  C   LIG    1        2.072   9.540   3.151  0.00  0.00    +0.050 A 
ATOM     33  C   LIG    1        2.046   8.183   3.233  0.00  0.00    +0.000 A 
ENDBRANCH  21  24
ENDBRANCH  19  20
ENDBRANCH   6  19
TORSDOF 6
