REMARK  Name = ZINCvU00000006eF.0
REMARK                            x       y       z     vdW  Elec       q    Type
REMARK                         _______ _______ _______ _____ _____    ______ ____
ROOT
ATOM      1  N   LIG    1       -3.921  -9.107   2.537  0.00  0.00    -0.450 NA
ATOM      2  C   LIG    1       -3.818  -8.286   1.519  0.00  0.00    +0.370 C 
ATOM      3  N   LIG    1       -4.695  -8.178   0.474  0.00  0.00    -0.680 N 
ATOM      4  H   LIG    1       -5.482  -8.743   0.445  0.00  0.00    +0.420 HD
ATOM      5  C   LIG    1       -4.475  -7.305  -0.499  0.00  0.00    +0.540 C 
ATOM      6  C   LIG    1       -3.214  -6.492  -0.322  0.00  0.00    +0.050 C 
ATOM      7  O   LIG    1       -5.218  -7.170  -1.448  0.00  0.00    -0.470 OA
ATOM      8  S   LIG    1       -2.516  -7.115   1.244  0.00  0.00    +0.050 S 
ENDROOT
BRANCH   1  14
ATOM      9  C   LIG    1       -6.154  -9.569   3.280  0.00  0.00    -0.090 A 
ATOM     10  C   LIG    1       -7.225 -10.434   3.356  0.00  0.00    +0.020 A 
ATOM     11  C   LIG    1       -7.142 -11.694   2.791  0.00  0.00    +0.010 A 
ATOM     12  C   LIG    1       -5.987 -12.094   2.142  0.00  0.00    +0.020 A 
ATOM     13  C   LIG    1       -4.910 -11.237   2.054  0.00  0.00    -0.090 A 
ATOM     14  C   LIG    1       -4.987  -9.963   2.621  0.00  0.00    +0.080 A 
BRANCH   9  16
ATOM     15  C   LIG    1       -6.676  -7.185   2.838  0.00  0.00    +0.020 C 
ATOM     16  C   LIG    1       -6.244  -8.198   3.900  0.00  0.00    +0.070 C 
ENDBRANCH   9  16
BRANCH  13  17
ATOM     17  C   LIG    1       -3.653 -11.674   1.347  0.00  0.00    +0.050 C 
ATOM     18  C   LIG    1       -2.660 -12.231   2.370  0.00  0.00    +0.030 C 
ENDBRANCH  13  17
ENDBRANCH   1  14
BRANCH   6  19
ATOM     19  C   LIG    1       -3.545  -5.002  -0.209  0.00  0.00    +0.130 C 
BRANCH  19  20
ATOM     20  C   LIG    1       -2.268  -4.210  -0.102  0.00  0.00    +0.520 C 
ATOM     21  N   LIG    1       -2.314  -2.868   0.007  0.00  0.00    -0.670 N 
ATOM     22  H   LIG    1       -3.170  -2.417   0.085  0.00  0.00    +0.410 HD
ATOM     23  O   LIG    1       -1.197  -4.780  -0.116  0.00  0.00    -0.510 OA
BRANCH  21  24
ATOM     24  C   LIG    1       -1.129  -2.124   0.010  0.00  0.00    +0.150 A 
ATOM     25  C   LIG    1       -1.103  -0.882  -0.585  0.00  0.00    -0.010 A 
ATOM     26  C   LIG    1        0.089  -0.139  -0.580  0.00  0.00    -0.030 A 
ATOM     27  C   LIG    1        0.156   1.132  -1.177  0.00  0.00    +0.020 A 
ATOM     28  C   LIG    1        1.328   1.825  -1.155  0.00  0.00    +0.010 A 
ATOM     29  C   LIG    1        2.464   1.294  -0.548  0.00  0.00    +0.000 A 
ATOM     30  C   LIG    1        2.436   0.066   0.039  0.00  0.00    +0.030 A 
ATOM     31  C   LIG    1        1.245  -0.680   0.037  0.00  0.00    -0.060 A 
ATOM     32  C   LIG    1        1.182  -1.951   0.634  0.00  0.00    +0.040 A 
ATOM     33  C   LIG    1        0.017  -2.651   0.617  0.00  0.00    +0.030 A 
ENDBRANCH  21  24
ENDBRANCH  19  20
ENDBRANCH   6  19
TORSDOF 6
