REMARK  Name = ZINCc70000003Xh4.0
REMARK                            x       y       z     vdW  Elec       q    Type
REMARK                         _______ _______ _______ _____ _____    ______ ____
ROOT
ATOM      1  C   LIG    1        1.232   3.547   0.009  0.00  0.00    -0.050 A 
ATOM      2  N   LIG    1        0.207   4.359   0.018  0.00  0.00    -0.180 NA
ATOM      3  N   LIG    1        0.473   5.593   0.028  0.00  0.00    -0.250 NA
ATOM      4  C   LIG    1        1.724   5.943   0.018  0.00  0.00    +0.010 A 
ATOM      5  S   LIG    1        2.695   4.532   0.001  0.00  0.00    +0.250 S 
ENDROOT
BRANCH   1   6
ATOM      6  C   LIG    1        1.175   2.076   0.002  0.00  0.00    +0.560 C 
ATOM      7  O   LIG    1        2.203   1.428  -0.011  0.00  0.00    -0.480 OA
BRANCH   6   8
ATOM      8  O   LIG    1       -0.018   1.448   0.010  0.00  0.00    -0.330 OA
BRANCH   8  10
ATOM      9  C   LIG    1       -1.433  -0.534   0.013  0.00  0.00    +0.080 C 
ATOM     10  C   LIG    1        0.002  -0.004   0.002  0.00  0.00    +0.220 C 
ENDBRANCH   8  10
ENDBRANCH   6   8
ENDBRANCH   1   6
BRANCH   4  11
ATOM     11  C   LIG    1        2.238   7.360   0.020  0.00  0.00    +0.320 C 
BRANCH  11  12
ATOM     12  N   LIG    1        2.418   7.813   1.406  0.00  0.00    -0.840 NA
ATOM     13  H   LIG    1        2.762   8.761   1.435  0.00  0.00    +0.360 HD
ATOM     14  H   LIG    1        3.030   7.191   1.913  0.00  0.00    +0.350 HD
ENDBRANCH  11  12
ENDBRANCH   4  11
TORSDOF 5
