REMARK  Name = ZINCpk00000y6uUt.0
REMARK                            x       y       z     vdW  Elec       q    Type
REMARK                         _______ _______ _______ _____ _____    ______ ____
ROOT
ATOM      1  C   LIG    1       -4.796   5.072   5.237  0.00  0.00    +0.210 C 
ATOM      2  C   LIG    1       -5.547   4.746   6.546  0.00  0.00    +0.040 C 
ATOM      3  C   LIG    1       -4.392   4.566   7.570  0.00  0.00    +0.040 C 
ATOM      4  C   LIG    1       -3.296   3.910   6.694  0.00  0.00    +0.250 C 
ATOM      5  N   LIG    1       -3.425   4.560   5.378  0.00  0.00    -0.610 N 
ATOM      6  C   LIG    1       -2.448   4.668   4.456  0.00  0.00    +0.520 C 
ATOM      7  O   LIG    1       -2.639   5.304   3.441  0.00  0.00    -0.500 OA
ENDROOT
BRANCH   6   8
ATOM      8  C   LIG    1       -1.118   3.999   4.686  0.00  0.00    +0.250 C 
ATOM      9  C   LIG    1       -0.267   4.887   5.593  0.00  0.00    +0.130 C 
ATOM     10  S   LIG    1        1.405   4.175   5.682  0.00  0.00    -0.210 S 
ATOM     11  C   LIG    1        1.919   4.263   3.939  0.00  0.00    +0.170 C 
ATOM     12  C   LIG    1        0.785   3.802   3.070  0.00  0.00    +0.530 C 
ATOM     13  O   LIG    1        1.068   3.437   1.949  0.00  0.00    -0.530 OA
ATOM     14  N   LIG    1       -0.488   3.757   3.407  0.00  0.00    -0.700 N 
ATOM     15  H   LIG    1       -1.096   3.525   2.687  0.00  0.00    +0.410 HD
ENDBRANCH   6   8
BRANCH   1  16
ATOM     16  C   LIG    1       -5.488   4.389   4.056  0.00  0.00    +0.290 C 
BRANCH  16  18
ATOM     17  C   LIG    1       -6.947   6.029   2.996  0.00  0.00    +0.540 C 
ATOM     18  N   LIG    1       -6.807   4.993   3.847  0.00  0.00    -0.610 N 
ATOM     19  C   LIG    1       -7.973   4.472   4.564  0.00  0.00    +0.280 C 
ATOM     20  O   LIG    1       -5.998   6.404   2.333  0.00  0.00    -0.520 OA
BRANCH  17  22
ATOM     21  C   LIG    1       -8.408   7.670   1.966  0.00  0.00    -0.020 C 
ATOM     22  C   LIG    1       -8.246   6.705   2.867  0.00  0.00    -0.110 C 
ATOM     23  C   LIG    1       -7.324   7.946   0.956  0.00  0.00    +0.100 C 
BRANCH  21  24
ATOM     24  C   LIG    1       -9.675   8.486   1.955  0.00  0.00    +0.050 C 
BRANCH  24  26
ATOM     25  C   LIG    1      -10.713  10.642   2.673  0.00  0.00    +0.030 C 
ATOM     26  C   LIG    1       -9.471   9.755   2.784  0.00  0.00    +0.010 C 
ENDBRANCH  24  26
ENDBRANCH  21  24
ENDBRANCH  17  22
ENDBRANCH  16  18
ENDBRANCH   1  16
TORSDOF 6
