REMARK  Name = ZINCrg00000SjSHz.0
REMARK                            x       y       z     vdW  Elec       q    Type
REMARK                         _______ _______ _______ _____ _____    ______ ____
ROOT
ATOM      1  C   LIG    1        6.782   2.387   2.602  0.00  0.00    +0.580 C 
ATOM      2  N   LIG    1        5.720   1.879   1.945  0.00  0.00    -0.600 N 
ATOM      3  C   LIG    1        5.813   1.524   0.521  0.00  0.00    +0.310 C 
ATOM      4  C   LIG    1        4.647   2.185  -0.223  0.00  0.00    +0.180 C 
ATOM      5  N   LIG    1        3.383   1.816   0.428  0.00  0.00    -0.530 NA
ATOM      6  C   LIG    1        3.326   2.321   1.806  0.00  0.00    +0.180 C 
ATOM      7  C   LIG    1        4.438   1.666   2.633  0.00  0.00    +0.300 C 
ATOM      8  O   LIG    1        7.810   2.627   2.001  0.00  0.00    -0.500 OA
ENDROOT
BRANCH   1  15
ATOM      9  C   LIG    1        6.098   1.798  10.415  0.00  0.00    +0.100 C 
ATOM     10  C   LIG    1        6.034   1.843   8.910  0.00  0.00    -0.110 A 
ATOM     11  C   LIG    1        5.264   0.915   8.223  0.00  0.00    +0.080 A 
ATOM     12  C   LIG    1        5.188   0.941   6.847  0.00  0.00    +0.020 A 
ATOM     13  C   LIG    1        5.889   1.905   6.130  0.00  0.00    +0.130 A 
ATOM     14  O   LIG    1        5.818   1.949   4.787  0.00  0.00    -0.210 OA
ATOM     15  C   LIG    1        6.695   2.652   4.057  0.00  0.00    +0.090 A 
ATOM     16  C   LIG    1        7.510   3.592   4.596  0.00  0.00    -0.050 A 
ATOM     17  C   LIG    1        7.425   3.840   6.045  0.00  0.00    +0.420 A 
ATOM     18  O   LIG    1        7.946   4.810   6.567  0.00  0.00    -0.440 OA
ATOM     19  C   LIG    1        6.675   2.838   6.830  0.00  0.00    -0.220 A 
ATOM     20  C   LIG    1        6.740   2.805   8.221  0.00  0.00    +0.110 A 
ENDBRANCH   1  15
BRANCH   5  21
ATOM     21  C   LIG    1        2.232   2.287  -0.353  0.00  0.00    +0.160 C 
ATOM     22  C   LIG    1        2.231   1.609  -1.734  0.00  0.00    +0.080 C 
ATOM     23  C   LIG    1        0.840   1.882  -2.362  0.00  0.00    -0.310 C 
ATOM     24  S   LIG    1       -0.295   1.615  -0.949  0.00  0.00    +2.390 S 
ATOM     25  O   LIG    1       -0.696   0.252  -0.918  0.00  0.00    -0.930 OA
ATOM     26  O   LIG    1       -1.275   2.643  -0.931  0.00  0.00    -0.940 OA
ATOM     27  C   LIG    1        0.926   1.918   0.379  0.00  0.00    -0.310 C 
ENDBRANCH   5  21
TORSDOF 2
