REMARK  Name = ZINCrD0000075gPE.0
REMARK                            x       y       z     vdW  Elec       q    Type
REMARK                         _______ _______ _______ _____ _____    ______ ____
ROOT
ATOM      1  C   LIG    1        1.167  10.336   0.047  0.00  0.00    +0.060 C 
ENDROOT
BRANCH   1   2
ATOM      2  C   LIG    1       -0.128   9.565   0.055  0.00  0.00    +0.400 C 
ATOM      3  O   LIG    1       -1.186  10.157   0.069  0.00  0.00    -0.450 OA
BRANCH   2   4
ATOM      4  C   LIG    1       -0.108   8.095   0.046  0.00  0.00    -0.180 A 
ATOM      5  C   LIG    1       -1.310   7.377   0.053  0.00  0.00    +0.090 A 
ATOM      6  C   LIG    1       -1.289   6.007   0.045  0.00  0.00    +0.000 A 
ATOM      7  C   LIG    1       -0.070   5.327   0.030  0.00  0.00    -0.010 A 
ATOM      8  C   LIG    1        1.129   6.040   0.029  0.00  0.00    +0.000 A 
ATOM      9  C   LIG    1        1.113   7.410   0.031  0.00  0.00    +0.070 A 
BRANCH   7  10
ATOM     10  C   LIG    1       -0.050   3.844   0.023  0.00  0.00    -0.060 A 
ATOM     11  C   LIG    1        1.165   3.161   0.008  0.00  0.00    +0.030 A 
ATOM     12  C   LIG    1        1.178   1.781   0.000  0.00  0.00    +0.010 A 
ATOM     13  C   LIG    1       -0.013   1.076   0.008  0.00  0.00    +0.010 A 
ATOM     14  C   LIG    1       -1.221   1.748   0.017  0.00  0.00    +0.010 A 
ATOM     15  C   LIG    1       -1.246   3.128   0.030  0.00  0.00    +0.030 A 
ENDBRANCH   7  10
ENDBRANCH   2   4
ENDBRANCH   1   2
BRANCH   1  16
ATOM     16  C   LIG    1        0.867  11.836   0.059  0.00  0.00    +0.070 C 
BRANCH  16  17
ATOM     17  C   LIG    1        2.162  12.607   0.052  0.00  0.00    +0.370 C 
ATOM     18  O   LIG    1        3.216  12.018   0.038  0.00  0.00    -0.380 OA
BRANCH  17  19
ATOM     19  C   LIG    1        2.141  14.114   0.061  0.00  0.00    +0.110 C 
BRANCH  19  20
ATOM     20  C   LIG    1        3.428  14.630   0.652  0.00  0.00    +0.530 C 
ATOM     21  N   LIG    1        3.634  15.958   0.762  0.00  0.00    -0.700 N 
ATOM     22  H   LIG    1        2.954  16.581   0.461  0.00  0.00    +0.400 HD
ATOM     23  O   LIG    1        4.278  13.851   1.029  0.00  0.00    -0.490 OA
BRANCH  21  24
ATOM     24  C   LIG    1        4.885  16.459   1.337  0.00  0.00    +0.220 C 
ATOM     25  C   LIG    1        4.789  17.612   2.339  0.00  0.00    +0.020 C 
ATOM     26  C   LIG    1        5.335  17.864   0.931  0.00  0.00    +0.020 C 
ENDBRANCH  21  24
ENDBRANCH  19  20
BRANCH  19  28
ATOM     27  N   LIG    1        1.892  14.995  -2.381  0.00  0.00    -0.370 NA
ATOM     28  C   LIG    1        2.001  14.611  -1.317  0.00  0.00    +0.200 C 
ENDBRANCH  19  28
ENDBRANCH  17  19
ENDBRANCH  16  17
ENDBRANCH   1  16
TORSDOF 9
