REMARK  Name = ZINCnE000008JeQf.1
REMARK                            x       y       z     vdW  Elec       q    Type
REMARK                         _______ _______ _______ _____ _____    ______ ____
ROOT
ATOM      1  C   LIG    1       -2.518   3.868   0.045  0.00  0.00    +0.510 C 
ATOM      2  N   LIG    1       -3.678   3.181   0.053  0.00  0.00    -0.770 NA
ATOM      3  C   LIG    1       -4.852   3.842   0.068  0.00  0.00    +0.470 C 
ATOM      4  O   LIG    1       -4.866   5.054   0.073  0.00  0.00    -0.560 OA
ATOM      5  O   LIG    1       -2.531   5.083   0.051  0.00  0.00    -0.580 OA
ENDROOT
BRANCH   1   9
ATOM      6  C   LIG    1        1.182   1.786   0.000  0.00  0.00    +0.120 A 
ATOM      7  C   LIG    1       -0.013   1.076   0.008  0.00  0.00    -0.040 A 
ATOM      8  C   LIG    1       -1.215   1.747   0.017  0.00  0.00    +0.120 A 
ATOM      9  C   LIG    1       -1.232   3.145   0.030  0.00  0.00    -0.120 A 
ATOM     10  C   LIG    1       -0.029   3.855   0.022  0.00  0.00    +0.080 A 
ATOM     11  C   LIG    1        1.169   3.176   0.007  0.00  0.00    -0.100 A 
BRANCH   6  13
ATOM     12  C   LIG    1        3.555   1.913  -0.021  0.00  0.00    +0.220 C 
ATOM     13  O   LIG    1        2.365   1.121  -0.014  0.00  0.00    -0.320 OA
ENDBRANCH   6  13
ENDBRANCH   1   9
BRANCH   3  14
ATOM     14  C   LIG    1       -6.149   3.074   0.076  0.00  0.00    +0.220 C 
BRANCH  14  15
ATOM     15  O   LIG    1       -7.245   3.990   0.091  0.00  0.00    -0.270 OA
BRANCH  15  16
ATOM     16  C   LIG    1       -8.495   3.456   0.101  0.00  0.00    +0.170 A 
ATOM     17  C   LIG    1       -8.663   2.080   0.090  0.00  0.00    -0.050 A 
ATOM     18  C   LIG    1       -9.934   1.539   0.106  0.00  0.00    +0.100 A 
ATOM     19  C   LIG    1      -11.040   2.370   0.120  0.00  0.00    -0.130 A 
ATOM     20  C   LIG    1      -10.877   3.744   0.125  0.00  0.00    +0.110 A 
ATOM     21 BR   LIG    1      -12.779   1.627   0.134  0.00  0.00    -0.050 Br
ATOM     22  C   LIG    1       -9.607   4.289   0.115  0.00  0.00    -0.070 A 
ATOM     23 CL   LIG    1       -9.401   6.013   0.121  0.00  0.00    -0.040 Cl
ENDBRANCH  15  16
ENDBRANCH  14  15
ENDBRANCH   3  14
TORSDOF 5
