REMARK  Name = ZINCrH000004r33H.0
REMARK                            x       y       z     vdW  Elec       q    Type
REMARK                         _______ _______ _______ _____ _____    ______ ____
ROOT
ATOM      1  C   LIG    1        1.607   7.468   2.784  0.00  0.00    -0.030 C 
ATOM      2  C   LIG    1        0.988   7.505   1.385  0.00  0.00    +0.040 C 
ATOM      3  C   LIG    1        1.831   6.647   0.436  0.00  0.00    +0.270 C 
ATOM      4  N   LIG    1        1.958   5.298   1.004  0.00  0.00    -0.630 N 
ATOM      5  C   LIG    1        2.452   5.155   2.380  0.00  0.00    +0.300 C 
ATOM      6  C   LIG    1        1.622   4.213   0.279  0.00  0.00    +0.710 C 
ATOM      7  N   LIG    1        1.266   4.350  -1.014  0.00  0.00    -0.730 N 
ATOM      8  H   LIG    1        1.181   5.235  -1.402  0.00  0.00    +0.400 HD
ATOM      9  O   LIG    1        1.641   3.110   0.790  0.00  0.00    -0.580 OA
ATOM     10  C   LIG    1        1.608   6.029   3.305  0.00  0.00    +0.040 C 
ENDROOT
BRANCH   7  11
ATOM     11  C   LIG    1        1.007   3.163  -1.832  0.00  0.00    +0.300 C 
ATOM     12  C   LIG    1        2.316   2.627  -2.458  0.00  0.00    +0.240 C 
ATOM     13  O   LIG    1        1.887   2.175  -3.754  0.00  0.00    -0.300 OA
ATOM     14  C   LIG    1        0.804   2.900  -4.146  0.00  0.00    +0.120 A 
ATOM     15  C   LIG    1        0.265   3.085  -5.417  0.00  0.00    -0.010 A 
ATOM     16  C   LIG    1       -0.860   3.865  -5.588  0.00  0.00    +0.060 A 
ATOM     17  C   LIG    1       -1.463   4.469  -4.500  0.00  0.00    -0.020 A 
ATOM     18  C   LIG    1       -0.931   4.294  -3.235  0.00  0.00    +0.070 A 
ATOM     19  C   LIG    1        0.194   3.520  -3.062  0.00  0.00    -0.190 A 
ENDBRANCH   7  11
BRANCH   1  20
ATOM     20  C   LIG    1        0.799   8.338   3.713  0.00  0.00    +0.400 C 
ATOM     21  O   LIG    1       -0.390   8.485   3.525  0.00  0.00    -0.450 OA
BRANCH  20  26
ATOM     22  C   LIG    1        3.356  10.959   8.144  0.00  0.00    +0.100 C 
ATOM     23  C   LIG    1        2.686  10.272   6.983  0.00  0.00    -0.050 A 
ATOM     24  C   LIG    1        1.329  10.442   6.772  0.00  0.00    +0.000 A 
ATOM     25  C   LIG    1        0.708   9.817   5.712  0.00  0.00    +0.070 A 
ATOM     26  C   LIG    1        1.454   9.009   4.847  0.00  0.00    -0.180 A 
ATOM     27  C   LIG    1        2.824   8.837   5.070  0.00  0.00    +0.060 A 
ATOM     28  C   LIG    1        3.431   9.474   6.132  0.00  0.00    +0.000 A 
ENDBRANCH  20  26
ENDBRANCH   1  20
TORSDOF 3
