REMARK  Name = ZINCrD000000A7xb.0
REMARK                            x       y       z     vdW  Elec       q    Type
REMARK                         _______ _______ _______ _____ _____    ______ ____
ROOT
ATOM      1  C   LIG    1        1.328   1.894   0.024  0.00  0.00    -0.020 C 
ATOM      2  C   LIG    1        1.513   2.686  -1.273  0.00  0.00    +0.050 C 
ATOM      3  C   LIG    1        2.902   3.328  -1.279  0.00  0.00    +0.180 C 
ATOM      4  N   LIG    1        3.928   2.283  -1.171  0.00  0.00    -0.540 NA
ATOM      5  C   LIG    1        3.799   1.541   0.090  0.00  0.00    +0.190 C 
ATOM      6  C   LIG    1        2.437   0.844   0.136  0.00  0.00    +0.060 C 
ENDROOT
BRANCH   1   8
ATOM      7  O   LIG    1       -0.126   0.103  -0.478  0.00  0.00    -0.530 OA
ATOM      8  C   LIG    1       -0.014   1.209   0.009  0.00  0.00    +0.520 C 
ATOM      9  N   LIG    1       -1.092   1.826   0.531  0.00  0.00    -0.610 N 
ATOM     10  C   LIG    1       -2.343   1.103   0.594  0.00  0.00    +0.270 C 
ATOM     11  C   LIG    1       -3.141   1.320  -0.709  0.00  0.00    +0.010 C 
ATOM     12  C   LIG    1       -3.658   2.696  -0.767  0.00  0.00    +0.000 C 
ATOM     13  C   LIG    1       -2.577   3.773  -0.800  0.00  0.00    +0.000 C 
ATOM     14  C   LIG    1       -2.148   4.094   0.610  0.00  0.00    +0.020 C 
ATOM     15  C   LIG    1       -0.949   3.215   1.010  0.00  0.00    +0.250 C 
ENDBRANCH   1   8
BRANCH   4  16
ATOM     16  C   LIG    1        5.275   2.850  -1.312  0.00  0.00    +0.350 C 
BRANCH  16  17
ATOM     17  C   LIG    1        5.450   3.388  -2.708  0.00  0.00    +0.180 A 
ATOM     18  N   LIG    1        5.173   4.598  -3.108  0.00  0.00    -0.280 NA
ATOM     19  N   LIG    1        5.448   4.711  -4.359  0.00  0.00    -0.280 NA
ATOM     20  C   LIG    1        5.905   3.566  -4.807  0.00  0.00    +0.210 A 
ATOM     21  O   LIG    1        5.915   2.706  -3.769  0.00  0.00    -0.210 OA
BRANCH  20  22
ATOM     22  C   LIG    1        6.330   3.272  -6.193  0.00  0.00    -0.030 A 
ATOM     23  C   LIG    1        6.803   2.003  -6.527  0.00  0.00    +0.050 A 
ATOM     24  C   LIG    1        7.192   1.734  -7.823  0.00  0.00    +0.010 A 
ATOM     25  C   LIG    1        7.125   2.723  -8.788  0.00  0.00    +0.040 A 
ATOM     26  C   LIG    1        6.662   3.985  -8.462  0.00  0.00    +0.020 A 
ATOM     27  C   LIG    1        6.265   4.266  -7.171  0.00  0.00    +0.070 A 
ENDBRANCH  20  22
ENDBRANCH  16  17
ENDBRANCH   4  16
TORSDOF 4
