REMARK  Name = ZINCrH000004q7DW.0
REMARK                            x       y       z     vdW  Elec       q    Type
REMARK                         _______ _______ _______ _____ _____    ______ ____
ROOT
ATOM      1  C   LIG    1       -1.281  -3.475   0.513  0.00  0.00    +0.610 C 
ATOM      2  N   LIG    1       -2.492  -3.316   1.083  0.00  0.00    -0.610 N 
ATOM      3  C   LIG    1       -3.085  -1.978   1.235  0.00  0.00    +0.310 C 
ATOM      4  C   LIG    1       -4.509  -2.013   0.657  0.00  0.00    +0.200 C 
ATOM      5  N   LIG    1       -5.263  -3.102   1.294  0.00  0.00    -0.480 N 
ATOM      6  C   LIG    1       -4.668  -4.410   0.989  0.00  0.00    +0.200 C 
ATOM      7  C   LIG    1       -3.254  -4.474   1.574  0.00  0.00    +0.310 C 
ATOM      8  O   LIG    1       -0.860  -4.593   0.282  0.00  0.00    -0.510 OA
ENDROOT
BRANCH   1  11
ATOM      9  C   LIG    1        1.379  -3.528  -1.121  0.00  0.00    +0.150 C 
ATOM     10  C   LIG    1        0.693  -2.319  -0.541  0.00  0.00    -0.020 A 
ATOM     11  C   LIG    1       -0.470  -2.300   0.172  0.00  0.00    -0.110 A 
ATOM     12  O   LIG    1       -0.753  -1.022   0.516  0.00  0.00    -0.140 OA
ATOM     13  C   LIG    1        0.187  -0.210   0.051  0.00  0.00    +0.080 A 
ATOM     14  C   LIG    1        0.307   1.287   0.181  0.00  0.00    +0.160 C 
ATOM     15  C   LIG    1        1.763   1.700  -0.056  0.00  0.00    +0.070 C 
ATOM     16  C   LIG    1        2.278   1.129  -1.381  0.00  0.00    +0.040 C 
ATOM     17  C   LIG    1        2.300  -0.389  -1.274  0.00  0.00    +0.430 C 
ATOM     18  O   LIG    1        3.221  -1.057  -1.692  0.00  0.00    -0.440 OA
ATOM     19  C   LIG    1        1.122  -0.985  -0.626  0.00  0.00    -0.280 A 
ENDBRANCH   1  11
BRANCH   5  20
ATOM     20  C   LIG    1       -6.603  -3.064   0.921  0.00  0.00    +0.310 A 
ATOM     21  N   LIG    1       -6.939  -3.272  -0.342  0.00  0.00    -0.480 NA
ATOM     22  C   LIG    1       -8.198  -3.251  -0.736  0.00  0.00    +0.300 A 
ATOM     23  C   LIG    1       -9.217  -2.997   0.161  0.00  0.00    -0.080 A 
ATOM     24  C   LIG    1       -8.907  -2.767   1.496  0.00  0.00    +0.100 A 
ATOM     25 CL   LIG    1      -10.868  -2.965  -0.373  0.00  0.00    -0.030 Cl
ATOM     26  C   LIG    1       -7.578  -2.802   1.880  0.00  0.00    -0.050 A 
ATOM     27 CL   LIG    1       -7.132  -2.523   3.535  0.00  0.00    -0.020 Cl
ENDBRANCH   5  20
TORSDOF 2
