REMARK  Name = ZINCpe000000YTo3.0
REMARK                            x       y       z     vdW  Elec       q    Type
REMARK                         _______ _______ _______ _____ _____    ______ ____
ROOT
ATOM      1  N   LIG    1       -0.534   1.133  -6.101  0.00  0.00    -0.520 NA
ATOM      2  C   LIG    1       -1.481   2.255  -6.126  0.00  0.00    +0.180 C 
ATOM      3  C   LIG    1       -2.393   2.127  -7.349  0.00  0.00    +0.060 C 
ATOM      4  C   LIG    1       -1.538   2.128  -8.619  0.00  0.00    -0.040 C 
ATOM      5  C   LIG    1       -0.528   0.980  -8.546  0.00  0.00    +0.060 C 
ATOM      6  C   LIG    1        0.330   1.141  -7.288  0.00  0.00    +0.180 C 
ENDROOT
BRANCH   4   7
ATOM      7  C   LIG    1       -2.424   1.942  -9.824  0.00  0.00    +0.400 C 
ATOM      8  O   LIG    1       -2.671   0.827 -10.229  0.00  0.00    -0.440 OA
BRANCH   7   9
ATOM      9  C   LIG    1       -2.990   3.116 -10.508  0.00  0.00    -0.170 A 
ATOM     10  C   LIG    1       -2.713   4.404 -10.040  0.00  0.00    +0.060 A 
ATOM     11  C   LIG    1       -3.242   5.499 -10.691  0.00  0.00    +0.000 A 
ATOM     12  C   LIG    1       -4.055   5.325 -11.797  0.00  0.00    +0.040 A 
ATOM     13  C   LIG    1       -4.339   4.053 -12.263  0.00  0.00    +0.000 A 
ATOM     14  C   LIG    1       -3.813   2.948 -11.627  0.00  0.00    +0.070 A 
ENDBRANCH   7   9
ENDBRANCH   4   7
BRANCH   1  15
ATOM     15  C   LIG    1        0.265   1.147  -4.869  0.00  0.00    +0.220 C 
BRANCH  15  17
ATOM     16  O   LIG    1        0.839  -1.039  -5.550  0.00  0.00    -0.510 OA
ATOM     17  C   LIG    1        1.032  -0.145  -4.753  0.00  0.00    +0.510 C 
ATOM     18  N   LIG    1        1.934  -0.308  -3.764  0.00  0.00    -0.730 N 
ATOM     19  H   LIG    1        2.088   0.407  -3.127  0.00  0.00    +0.400 HD
BRANCH  18  20
ATOM     20  C   LIG    1        2.679  -1.563  -3.652  0.00  0.00    +0.270 C 
ATOM     21  C   LIG    1        4.009  -1.312  -2.919  0.00  0.00    +0.070 C 
ATOM     22  C   LIG    1        4.580  -2.704  -2.544  0.00  0.00    -0.310 C 
ATOM     23  S   LIG    1        3.092  -3.599  -1.956  0.00  0.00    +2.390 S 
ATOM     24  O   LIG    1        3.091  -4.917  -2.488  0.00  0.00    -0.930 OA
ATOM     25  O   LIG    1        2.947  -3.401  -0.556  0.00  0.00    -0.930 OA
ATOM     26  C   LIG    1        1.855  -2.585  -2.843  0.00  0.00    -0.320 C 
ENDBRANCH  18  20
ENDBRANCH  15  17
ENDBRANCH   1  15
TORSDOF 5
