REMARK  Name = ZINCtV00000L6kl4.0
REMARK                            x       y       z     vdW  Elec       q    Type
REMARK                         _______ _______ _______ _____ _____    ______ ____
ROOT
ATOM      1  C   LIG    1       -3.308   3.849   1.071  0.00  0.00    +0.140 C 
ATOM      2  C   LIG    1       -3.689   3.171  -0.048  0.00  0.00    -0.000 C 
ENDROOT
BRANCH   2   3
ATOM      3  C   LIG    1       -4.114   3.911  -1.249  0.00  0.00    +0.160 A 
ATOM      4  N   LIG    1       -4.488   3.364  -2.360  0.00  0.00    -0.440 NA
ATOM      5  C   LIG    1       -4.853   4.174  -3.368  0.00  0.00    +0.080 A 
ATOM      6  C   LIG    1       -5.299   3.829  -4.663  0.00  0.00    +0.080 A 
ATOM      7  C   LIG    1       -5.623   4.797  -5.564  0.00  0.00    +0.030 A 
ATOM      8  C   LIG    1       -5.523   6.140  -5.230  0.00  0.00    +0.050 A 
ATOM      9  C   LIG    1       -5.090   6.508  -3.975  0.00  0.00    +0.060 A 
ATOM     10  C   LIG    1       -4.754   5.532  -3.039  0.00  0.00    -0.170 A 
ATOM     11  S   LIG    1       -4.179   5.663  -1.379  0.00  0.00    +0.080 S 
ENDBRANCH   2   3
BRANCH   2  12
ATOM     12  C   LIG    1       -3.675   1.697  -0.057  0.00  0.00    +0.170 A 
ATOM     13  N   LIG    1       -4.715   0.950  -0.230  0.00  0.00    -0.440 NA
ATOM     14  C   LIG    1       -4.542  -0.383  -0.216  0.00  0.00    +0.080 A 
ATOM     15  C   LIG    1       -5.506  -1.401  -0.384  0.00  0.00    +0.080 A 
ATOM     16  C   LIG    1       -5.142  -2.712  -0.334  0.00  0.00    +0.030 A 
ATOM     17  C   LIG    1       -3.821  -3.075  -0.118  0.00  0.00    +0.040 A 
ATOM     18  C   LIG    1       -2.858  -2.104   0.051  0.00  0.00    +0.050 A 
ATOM     19  C   LIG    1       -3.211  -0.757   0.002  0.00  0.00    -0.170 A 
ATOM     20  S   LIG    1       -2.242   0.705   0.174  0.00  0.00    +0.080 S 
ENDBRANCH   2  12
BRANCH   1  25
ATOM     21  C   LIG    1       -1.787   2.868   4.366  0.00  0.00    +0.100 A 
ATOM     22  C   LIG    1       -2.524   1.734   4.666  0.00  0.00    -0.040 A 
ATOM     23  C   LIG    1       -3.511   1.289   3.801  0.00  0.00    +0.040 A 
ATOM     24  C   LIG    1       -3.767   1.967   2.630  0.00  0.00    +0.010 A 
ATOM     25  C   LIG    1       -3.035   3.119   2.314  0.00  0.00    -0.070 A 
ATOM     26  C   LIG    1       -2.036   3.568   3.191  0.00  0.00    +0.110 A 
BRANCH  21  28
ATOM     27  C   LIG    1       -0.619   2.529   6.410  0.00  0.00    +0.240 C 
ATOM     28  O   LIG    1       -0.821   3.297   5.221  0.00  0.00    -0.310 OA
ENDBRANCH  21  28
BRANCH  26  29
ATOM     29  O   LIG    1       -1.315   4.680   2.893  0.00  0.00    -0.480 OA
ATOM     30  H   LIG    1       -0.512   4.504   2.384  0.00  0.00    +0.390 HD
ENDBRANCH  26  29
ENDBRANCH   1  25
TORSDOF 5
