REMARK  Name = ZINCAx0000000aTl.0
REMARK                            x       y       z     vdW  Elec       q    Type
REMARK                         _______ _______ _______ _____ _____    ______ ____
ROOT
ATOM      1  N   LIG    1       -0.703   3.174   0.026  0.00  0.00    -0.400 N 
ATOM      2  C   LIG    1       -1.099   1.866   0.017  0.00  0.00    +0.020 A 
ATOM      3  C   LIG    1       -0.013   1.076   0.008  0.00  0.00    +0.020 A 
ATOM      4  C   LIG    1        1.152   1.972   0.002  0.00  0.00    -0.260 A 
ATOM      5  C   LIG    1       -2.528   1.386   0.019  0.00  0.00    +0.140 C 
ATOM      6  C   LIG    1        0.642   3.257   0.013  0.00  0.00    +0.130 A 
ATOM      7  C   LIG    1        1.450   4.529   0.013  0.00  0.00    +0.160 C 
ENDROOT
BRANCH   1  12
ATOM      8  C   LIG    1       -2.456   6.221   1.154  0.00  0.00    -0.120 A 
ATOM      9  C   LIG    1       -3.300   6.460   0.070  0.00  0.00    +0.180 A 
ATOM     10  C   LIG    1       -3.277   5.602  -1.028  0.00  0.00    -0.120 A 
ATOM     11  C   LIG    1       -2.410   4.508  -1.039  0.00  0.00    +0.150 A 
ATOM     12  C   LIG    1       -1.572   4.274   0.041  0.00  0.00    +0.090 A 
ATOM     13  C   LIG    1       -1.596   5.122   1.138  0.00  0.00    +0.150 A 
BRANCH   8  14
ATOM     14  C   LIG    1       -2.477   7.128   2.321  0.00  0.00    +0.510 C 
ATOM     15  O   LIG    1       -1.741   6.919   3.265  0.00  0.00    -0.490 OA
BRANCH  14  17
ATOM     16  C   LIG    1       -3.277   9.033   3.516  0.00  0.00    +0.290 C 
ATOM     17  O   LIG    1       -3.311   8.185   2.338  0.00  0.00    -0.350 OA
ENDBRANCH  14  17
ENDBRANCH   8  14
BRANCH  10  18
ATOM     18  C   LIG    1       -4.169   5.851  -2.179  0.00  0.00    +0.510 C 
ATOM     19  O   LIG    1       -4.148   5.104  -3.136  0.00  0.00    -0.490 OA
BRANCH  18  20
ATOM     20  O   LIG    1       -5.005   6.907  -2.168  0.00  0.00    -0.350 OA
ATOM     21  C   LIG    1       -5.853   7.090  -3.333  0.00  0.00    +0.290 C 
ENDBRANCH  18  20
ENDBRANCH  10  18
ENDBRANCH   1  12
BRANCH   4  22
ATOM     22  C   LIG    1        2.564   1.583  -0.014  0.00  0.00    +0.430 C 
ATOM     23  O   LIG    1        3.427   2.436  -0.018  0.00  0.00    -0.440 OA
BRANCH  22  24
ATOM     24  C   LIG    1        2.944   0.125  -0.026  0.00  0.00    +0.230 C 
BRANCH  24  25
ATOM     25  O   LIG    1        4.391   0.002  -0.041  0.00  0.00    -0.340 OA
BRANCH  25  26
ATOM     26  C   LIG    1        4.896  -1.241  -0.052  0.00  0.00    +0.450 C 
ATOM     27  O   LIG    1        4.155  -2.195  -0.050  0.00  0.00    -0.500 OA
BRANCH  26  28
ATOM     28  C   LIG    1        6.389  -1.447  -0.068  0.00  0.00    +0.370 C 
BRANCH  28  29
ATOM     29  N   LIG    1        6.684  -2.882  -0.079  0.00  0.00    -0.600 N 
ATOM     30  C   LIG    1        6.850  -3.604   1.194  0.00  0.00    +0.280 C 
ATOM     31  C   LIG    1        5.623  -4.503   1.403  0.00  0.00    +0.010 C 
ATOM     32  C   LIG    1        5.816  -5.845   0.721  0.00  0.00    +0.010 C 
ATOM     33  C   LIG    1        5.856  -5.762  -0.794  0.00  0.00    +0.040 C 
ATOM     34  C   LIG    1        7.104  -5.009  -1.263  0.00  0.00    +0.060 C 
ATOM     35  C   LIG    1        6.806  -3.525  -1.241  0.00  0.00    +0.520 C 
ATOM     36  O   LIG    1        6.677  -2.919  -2.283  0.00  0.00    -0.540 OA
ENDBRANCH  28  29
ENDBRANCH  26  28
ENDBRANCH  25  26
ENDBRANCH  24  25
ENDBRANCH  22  24
ENDBRANCH   4  22
TORSDOF 11
