REMARK  Name = ZINCpe00000VVGtC.0
REMARK                            x       y       z     vdW  Elec       q    Type
REMARK                         _______ _______ _______ _____ _____    ______ ____
ROOT
ATOM      1  C   LIG    1       -2.201  -1.948   1.355  0.00  0.00    +0.510 C 
ATOM      2  N   LIG    1       -1.861  -0.661   1.149  0.00  0.00    -0.720 N 
ATOM      3  H   LIG    1       -1.666  -0.084   1.904  0.00  0.00    +0.410 HD
ATOM      4  O   LIG    1       -2.445  -2.670   0.412  0.00  0.00    -0.530 OA
ENDROOT
BRANCH   1   5
ATOM      5  C   LIG    1       -2.279  -2.491   2.759  0.00  0.00    +0.320 C 
BRANCH   5   7
ATOM      6  C   LIG    1       -2.800  -4.601   3.861  0.00  0.00    +0.510 C 
ATOM      7  N   LIG    1       -2.667  -3.904   2.715  0.00  0.00    -0.690 N 
ATOM      8  H   LIG    1       -2.827  -4.336   1.862  0.00  0.00    +0.430 HD
ATOM      9  O   LIG    1       -2.599  -4.060   4.928  0.00  0.00    -0.520 OA
BRANCH   6  12
ATOM     10  N   LIG    1       -3.328  -6.740   4.962  0.00  0.00    -0.700 N 
ATOM     11  H   LIG    1       -3.167  -6.307   5.815  0.00  0.00    +0.410 HD
ATOM     12  C   LIG    1       -3.195  -6.042   3.816  0.00  0.00    +0.510 C 
ATOM     13  O   LIG    1       -3.396  -6.583   2.749  0.00  0.00    -0.510 OA
BRANCH  10  14
ATOM     14  C   LIG    1       -3.715  -8.152   4.918  0.00  0.00    +0.300 C 
BRANCH  14  16
ATOM     15  C   LIG    1       -4.893  -9.270   6.742  0.00  0.00    +0.050 C 
ATOM     16  C   LIG    1       -3.793  -8.695   6.322  0.00  0.00    -0.060 C 
ENDBRANCH  14  16
ENDBRANCH  10  14
ENDBRANCH   6  12
ENDBRANCH   5   7
ENDBRANCH   1   5
BRANCH   2  17
ATOM     17  C   LIG    1       -1.785  -0.133  -0.216  0.00  0.00    +0.330 C 
BRANCH  17  18
ATOM     18  C   LIG    1       -1.387   1.320  -0.171  0.00  0.00    -0.150 A 
ATOM     19  C   LIG    1       -2.359   2.300  -0.098  0.00  0.00    +0.070 A 
ATOM     20  C   LIG    1       -1.996   3.632  -0.051  0.00  0.00    -0.070 A 
ATOM     21  C   LIG    1       -0.656   3.987  -0.089  0.00  0.00    +0.150 A 
ATOM     22  C   LIG    1        0.318   3.002  -0.168  0.00  0.00    -0.030 A 
ATOM     23  C   LIG    1       -0.050   1.671  -0.208  0.00  0.00    +0.070 A 
BRANCH  21  24
ATOM     24  O   LIG    1       -0.297   5.297  -0.049  0.00  0.00    -0.300 OA
BRANCH  24  25
ATOM     25  C   LIG    1       -1.353   6.260  -0.064  0.00  0.00    +0.110 C 
ATOM     26  C   LIG    1       -2.217   6.050  -1.308  0.00  0.00    +0.020 C 
ATOM     27  C   LIG    1       -0.757   7.669  -0.087  0.00  0.00    +0.080 C 
ATOM     28  C   LIG    1       -2.214   6.091   1.190  0.00  0.00    +0.020 C 
ENDBRANCH  24  25
ENDBRANCH  21  24
ENDBRANCH  17  18
ENDBRANCH   2  17
TORSDOF 9
