REMARK  Name = ZINCqH0000000fpH.0
REMARK                            x       y       z     vdW  Elec       q    Type
REMARK                         _______ _______ _______ _____ _____    ______ ____
ROOT
ATOM      1  N   LIG    1        0.002  -0.004   0.002  0.00  0.00    -0.600 N 
ATOM      2  C   LIG    1        0.022  -0.684   1.165  0.00  0.00    +0.540 C 
ATOM      3  O   LIG    1        0.024  -0.083   2.219  0.00  0.00    -0.510 OA
ENDROOT
BRANCH   2   4
ATOM      4  C   LIG    1        0.043  -2.191   1.157  0.00  0.00    -0.050 C 
ATOM      5  C   LIG    1       -1.206  -2.917   1.660  0.00  0.00    +0.070 C 
ATOM      6  C   LIG    1        0.066  -2.905   2.510  0.00  0.00    +0.040 C 
BRANCH   6   7
ATOM      7  C   LIG    1        0.066  -2.047   3.749  0.00  0.00    -0.020 A 
ATOM      8  C   LIG    1       -0.980  -1.172   3.981  0.00  0.00    +0.060 A 
ATOM      9  C   LIG    1       -0.989  -0.387   5.116  0.00  0.00    +0.050 A 
ATOM     10  C   LIG    1        0.067  -0.470   6.026  0.00  0.00    -0.030 A 
ATOM     11  C   LIG    1        1.123  -1.351   5.783  0.00  0.00    +0.050 A 
ATOM     12  C   LIG    1        1.115  -2.134   4.647  0.00  0.00    +0.020 A 
BRANCH  10  13
ATOM     13  C   LIG    1        0.068   0.346   7.203  0.00  0.00    +0.250 C 
ATOM     14  N   LIG    1        0.068   0.993   8.137  0.00  0.00    -0.420 NA
ENDBRANCH  10  13
ENDBRANCH   6   7
ENDBRANCH   2   4
BRANCH   1  15
ATOM     15  C   LIG    1       -0.000  -0.730  -1.271  0.00  0.00    +0.310 C 
BRANCH  15  17
ATOM     16  C   LIG    1        1.835  -2.173  -1.987  0.00  0.00    +0.030 C 
ATOM     17  C   LIG    1        1.420  -0.959  -1.720  0.00  0.00    -0.060 C 
ENDBRANCH  15  17
ENDBRANCH   1  15
BRANCH   1  18
ATOM     18  C   LIG    1       -0.018   1.461   0.010  0.00  0.00    +0.340 C 
BRANCH  18  19
ATOM     19  C   LIG    1        1.396   1.982  -0.001  0.00  0.00    -0.110 A 
ATOM     20  C   LIG    1        2.032   2.228  -1.204  0.00  0.00    +0.050 A 
ATOM     21  C   LIG    1        3.330   2.707  -1.224  0.00  0.00    +0.010 A 
ATOM     22  C   LIG    1        3.999   2.943  -0.041  0.00  0.00    +0.060 A 
ATOM     23  C   LIG    1        3.363   2.697   1.178  0.00  0.00    -0.030 A 
ATOM     24  C   LIG    1        2.051   2.220   1.190  0.00  0.00    +0.090 A 
BRANCH  23  25
ATOM     25  C   LIG    1        4.051   2.941   2.410  0.00  0.00    +0.250 C 
ATOM     26  N   LIG    1        4.597   3.134   3.388  0.00  0.00    -0.410 NA
ENDBRANCH  23  25
ENDBRANCH  18  19
ENDBRANCH   1  18
TORSDOF 8
