REMARK  Name = ZINCc70000004SQU.0
REMARK                            x       y       z     vdW  Elec       q    Type
REMARK                         _______ _______ _______ _____ _____    ______ ____
ROOT
ATOM      1  C   LIG    1        1.111   2.022   0.002  0.00  0.00    +0.630 A 
ATOM      2  N   LIG    1       -0.016   1.337   0.009  0.00  0.00    -0.600 NA
ATOM      3  C   LIG    1        0.002  -0.004   0.002  0.00  0.00    +0.410 A 
ATOM      4  N   LIG    1       -1.122  -0.721   0.009  0.00  0.00    -0.490 NA
ATOM      5  C   LIG    1       -1.093  -2.035   0.002  0.00  0.00    +0.360 A 
ATOM      6  C   LIG    1        0.104  -2.740  -0.013  0.00  0.00    -0.080 A 
ATOM      7  C   LIG    1        1.295  -2.062  -0.021  0.00  0.00    +0.130 A 
ATOM      8  C   LIG    1        1.256  -0.663  -0.013  0.00  0.00    -0.290 A 
ATOM      9  C   LIG    1        2.435   0.124  -0.021  0.00  0.00    +0.520 A 
ATOM     10  N   LIG    1        2.308   1.443  -0.012  0.00  0.00    -0.640 NA
ENDROOT
BRANCH   1  11
ATOM     11  N   LIG    1        1.045   3.402   0.010  0.00  0.00    -0.810 N 
ATOM     12  H   LIG    1        1.861   3.927   0.005  0.00  0.00    +0.420 HD
ATOM     13  H   LIG    1        0.183   3.847   0.020  0.00  0.00    +0.420 HD
ENDBRANCH   1  11
BRANCH   9  14
ATOM     14  N   LIG    1        3.679  -0.467  -0.035  0.00  0.00    -0.820 N 
ATOM     15  H   LIG    1        4.478   0.084  -0.040  0.00  0.00    +0.410 HD
ATOM     16  H   LIG    1        3.757  -1.434  -0.041  0.00  0.00    +0.410 HD
ENDBRANCH   9  14
TORSDOF 2
