REMARK  Name = ZINCkj000018RAC0.0
REMARK                            x       y       z     vdW  Elec       q    Type
REMARK                         _______ _______ _______ _____ _____    ______ ____
ROOT
ATOM      1  C   LIG    1       -0.018   1.504   0.010  0.00  0.00    +0.150 C 
ATOM      2  C   LIG    1        1.433   2.001  -0.001  0.00  0.00    +0.080 C 
ATOM      3  C   LIG    1        2.211   1.269  -1.099  0.00  0.00    +0.050 C 
ATOM      4  C   LIG    1        2.391  -0.202  -0.706  0.00  0.00    +0.290 C 
ATOM      5  N   LIG    1        1.091  -0.748  -0.320  0.00  0.00    -0.460 N 
ATOM      6  C   LIG    1        0.714  -2.037  -0.208  0.00  0.00    +0.180 A 
ATOM      7  N   LIG    1       -0.541  -2.040   0.161  0.00  0.00    -0.290 NA
ATOM      8  N   LIG    1       -0.961  -0.827   0.285  0.00  0.00    -0.260 NA
ATOM      9  C   LIG    1        0.002  -0.004   0.002  0.00  0.00    +0.170 A 
ENDROOT
BRANCH   1  10
ATOM     10  C   LIG    1       -0.715   1.996   1.252  0.00  0.00    +0.480 C 
ATOM     11  O   LIG    1       -0.124   2.696   2.040  0.00  0.00    -0.500 OA
BRANCH  10  12
ATOM     12  O   LIG    1       -1.993   1.657   1.484  0.00  0.00    -0.330 OA
BRANCH  12  14
ATOM     13  C   LIG    1       -4.048   1.679   2.791  0.00  0.00    +0.070 C 
ATOM     14  C   LIG    1       -2.601   2.167   2.700  0.00  0.00    +0.200 C 
ENDBRANCH  12  14
ENDBRANCH  10  12
ENDBRANCH   1  10
BRANCH   6  15
ATOM     15  C   LIG    1        1.577  -3.246  -0.462  0.00  0.00    +0.150 C 
BRANCH  15  16
ATOM     16  C   LIG    1        2.276  -3.655   0.836  0.00  0.00    +0.030 C 
BRANCH  16  17
ATOM     17  C   LIG    1        3.151  -4.883   0.579  0.00  0.00    +0.040 C 
BRANCH  17  18
ATOM     18  C   LIG    1        3.851  -5.292   1.877  0.00  0.00    +0.030 C 
BRANCH  18  19
ATOM     19  C   LIG    1        4.726  -6.520   1.619  0.00  0.00    +0.250 C 
BRANCH  19  20
ATOM     20  N   LIG    1        5.398  -6.913   2.865  0.00  0.00    -0.640 N 
ATOM     21  H   LIG    1        5.975  -7.723   2.696  0.00  0.00    +0.440 HD
ATOM     22  H   LIG    1        4.706  -7.134   3.565  0.00  0.00    +0.440 HD
ATOM     23  H   LIG    1        5.974  -6.151   3.191  0.00  0.00    +0.440 HD
ENDBRANCH  19  20
ENDBRANCH  18  19
ENDBRANCH  17  18
ENDBRANCH  16  17
ENDBRANCH  15  16
ENDBRANCH   6  15
TORSDOF 9
