REMARK  Name = ZINCkj000005j7r9.0
REMARK                            x       y       z     vdW  Elec       q    Type
REMARK                         _______ _______ _______ _____ _____    ______ ____
ROOT
ATOM      1  C   LIG    1       -3.332   2.849  -3.542  0.00  0.00    -0.030 C 
ATOM      2  C   LIG    1       -3.047   4.119  -4.349  0.00  0.00    +0.050 C 
ATOM      3  C   LIG    1       -2.129   5.041  -3.543  0.00  0.00    +0.020 C 
ATOM      4  C   LIG    1       -2.835   5.445  -2.240  0.00  0.00    +0.300 C 
ATOM      5  N   LIG    1       -3.238   4.224  -1.529  0.00  0.00    -0.990 NA
ATOM      6  C   LIG    1       -4.047   3.226  -2.241  0.00  0.00    +0.280 C 
ENDROOT
BRANCH   5   7
ATOM      7  S   LIG    1       -2.794   3.981   0.048  0.00  0.00    +2.690 S 
ATOM      8  O   LIG    1       -2.539   5.267   0.596  0.00  0.00    -0.930 OA
ATOM      9  O   LIG    1       -3.742   3.076   0.597  0.00  0.00    -0.950 OA
BRANCH   7  10
ATOM     10  C   LIG    1       -1.249   3.133   0.030  0.00  0.00    -0.680 A 
ATOM     11  C   LIG    1       -1.221   1.750   0.017  0.00  0.00    +0.130 A 
ATOM     12  C   LIG    1       -0.013   1.076   0.008  0.00  0.00    +0.020 A 
ATOM     13  C   LIG    1        1.173   1.780   0.000  0.00  0.00    +0.140 A 
ATOM     14  C   LIG    1        1.153   3.176   0.008  0.00  0.00    -0.030 A 
ATOM     15  C   LIG    1       -0.070   3.850   0.022  0.00  0.00    +0.180 A 
BRANCH  14  16
ATOM     16  C   LIG    1        2.380   3.914   0.000  0.00  0.00    +0.230 C 
ATOM     17  N   LIG    1        3.353   4.499  -0.005  0.00  0.00    -0.380 NA
ENDBRANCH  14  16
ENDBRANCH   7  10
ENDBRANCH   5   7
BRANCH   1  19
ATOM     18  C   LIG    1       -3.508   1.538  -5.662  0.00  0.00    +0.090 C 
ATOM     19  C   LIG    1       -4.222   1.913  -4.362  0.00  0.00    +0.180 C 
BRANCH  19  20
ATOM     20  N   LIG    1       -4.499   0.697  -3.586  0.00  0.00    -0.640 N 
ATOM     21  H   LIG    1       -3.631   0.231  -3.370  0.00  0.00    +0.430 HD
ATOM     22  H   LIG    1       -5.086   0.080  -4.127  0.00  0.00    +0.440 HD
ATOM     23  H   LIG    1       -4.970   0.945  -2.729  0.00  0.00    +0.440 HD
ENDBRANCH  19  20
ENDBRANCH   1  19
TORSDOF 5
