REMARK  Name = ZINCrD000000AAAW.0
REMARK                            x       y       z     vdW  Elec       q    Type
REMARK                         _______ _______ _______ _____ _____    ______ ____
ROOT
ATOM      1  O   LIG    1        3.540  -1.310  -1.584  0.00  0.00    -0.520 OA
ATOM      2  C   LIG    1        4.244  -1.856  -0.761  0.00  0.00    +0.520 C 
ATOM      3  N   LIG    1        5.374  -2.479  -1.149  0.00  0.00    -0.730 N 
ATOM      4  H   LIG    1        5.937  -2.916  -0.490  0.00  0.00    +0.400 HD
ENDROOT
BRANCH   3   5
ATOM      5  C   LIG    1        5.753  -2.496  -2.564  0.00  0.00    +0.240 C 
ATOM      6  C   LIG    1        5.045  -3.656  -3.267  0.00  0.00    +0.010 C 
ATOM      7  C   LIG    1        5.416  -3.650  -4.753  0.00  0.00    +0.290 C 
ATOM      8  N   LIG    1        6.880  -3.674  -4.875  0.00  0.00    -0.610 N 
ATOM      9  C   LIG    1        7.665  -2.655  -4.163  0.00  0.00    +0.290 C 
ATOM     10  C   LIG    1        7.492  -4.611  -5.626  0.00  0.00    +0.610 C 
ATOM     11  O   LIG    1        6.846  -5.527  -6.101  0.00  0.00    -0.520 OA
ATOM     12  C   LIG    1        7.269  -2.673  -2.684  0.00  0.00    +0.020 C 
BRANCH  10  13
ATOM     13  C   LIG    1        8.936  -4.528  -5.870  0.00  0.00    -0.080 A 
ATOM     14  C   LIG    1        9.702  -5.477  -6.483  0.00  0.00    +0.050 A 
ATOM     15  C   LIG    1       11.016  -4.984  -6.503  0.00  0.00    -0.060 A 
ATOM     16  C   LIG    1       10.995  -3.771  -5.909  0.00  0.00    +0.200 A 
ATOM     17  O   LIG    1        9.738  -3.497  -5.534  0.00  0.00    -0.160 OA
ENDBRANCH  10  13
ENDBRANCH   3   5
BRANCH   2  18
ATOM     18  C   LIG    1        3.854  -1.839   0.695  0.00  0.00    +0.110 C 
BRANCH  18  19
ATOM     19  C   LIG    1        2.560  -1.084   0.859  0.00  0.00    -0.060 A 
ATOM     20  C   LIG    1        2.575   0.237   1.184  0.00  0.00    +0.020 A 
ATOM     21  C   LIG    1        1.388   0.951   1.341  0.00  0.00    +0.010 A 
ATOM     22  C   LIG    1        0.180   0.348   1.174  0.00  0.00    +0.030 A 
ATOM     23  C   LIG    1        0.124  -1.016   0.838  0.00  0.00    -0.050 A 
ATOM     24  C   LIG    1       -1.104  -1.673   0.658  0.00  0.00    +0.030 A 
ATOM     25  C   LIG    1       -1.119  -2.996   0.335  0.00  0.00    +0.000 A 
ATOM     26  C   LIG    1        0.067  -3.709   0.177  0.00  0.00    +0.010 A 
ATOM     27  C   LIG    1        1.276  -3.105   0.344  0.00  0.00    +0.010 A 
ATOM     28  C   LIG    1        1.331  -1.742   0.679  0.00  0.00    -0.030 A 
ENDBRANCH  18  19
ENDBRANCH   2  18
TORSDOF 4
