REMARK  Name = ZINCtV00000pjCiy.0
REMARK                            x       y       z     vdW  Elec       q    Type
REMARK                         _______ _______ _______ _____ _____    ______ ____
ROOT
ATOM      1  N   LIG    1        7.761  -1.771   4.677  0.00  0.00    -0.330 N 
ATOM      2  C   LIG    1        7.156  -0.659   4.174  0.00  0.00    +0.150 A 
ATOM      3  C   LIG    1        6.395  -1.050   3.121  0.00  0.00    +0.080 A 
ATOM      4  C   LIG    1        6.546  -2.437   2.971  0.00  0.00    +0.220 A 
ATOM      5  N   LIG    1        7.361  -2.866   3.901  0.00  0.00    -0.260 NA
ENDROOT
BRANCH   1   9
ATOM      6  C   LIG    1       10.357  -1.892   7.936  0.00  0.00    -0.200 A 
ATOM      7  C   LIG    1       10.047  -3.056   7.258  0.00  0.00    +0.110 A 
ATOM      8  C   LIG    1        9.187  -3.020   6.178  0.00  0.00    +0.020 A 
ATOM      9  C   LIG    1        8.634  -1.812   5.774  0.00  0.00    +0.210 A 
ATOM     10  C   LIG    1        8.951  -0.644   6.453  0.00  0.00    -0.010 A 
ATOM     11  C   LIG    1        9.808  -0.688   7.536  0.00  0.00    +0.110 A 
BRANCH   6  13
ATOM     12  F   LIG    1       12.610  -1.751   8.671  0.00  0.00    -0.180 F 
ATOM     13  C   LIG    1       11.296  -1.935   9.115  0.00  0.00    +0.510 C 
ATOM     14  F   LIG    1       11.188  -3.177   9.751  0.00  0.00    -0.180 F 
ATOM     15  F   LIG    1       10.961  -0.919  10.015  0.00  0.00    -0.180 F 
ENDBRANCH   6  13
ENDBRANCH   1   9
BRANCH   3  16
ATOM     16  N   LIG    1        5.600  -0.211   2.317  0.00  0.00    -0.740 N 
ATOM     17  H   LIG    1        5.560   0.741   2.500  0.00  0.00    +0.400 HD
BRANCH  16  18
ATOM     18  C   LIG    1        4.833  -0.776   1.204  0.00  0.00    +0.380 C 
BRANCH  18  19
ATOM     19  C   LIG    1        4.072   0.324   0.509  0.00  0.00    -0.030 A 
ATOM     20  C   LIG    1        4.527   1.062  -0.523  0.00  0.00    -0.030 A 
ATOM     21  C   LIG    1        3.503   1.969  -0.864  0.00  0.00    -0.040 A 
ATOM     22  C   LIG    1        2.470   1.732  -0.012  0.00  0.00    +0.030 A 
ATOM     23  O   LIG    1        2.832   0.736   0.819  0.00  0.00    -0.150 OA
BRANCH  22  24
ATOM     24  C   LIG    1        1.178   2.449   0.004  0.00  0.00    -0.020 A 
ATOM     25  C   LIG    1        1.149   3.844   0.012  0.00  0.00    +0.060 A 
ATOM     26  C   LIG    1       -0.061   4.506   0.027  0.00  0.00    +0.030 A 
ATOM     27  C   LIG    1       -1.245   3.791   0.034  0.00  0.00    +0.050 A 
ATOM     28  C   LIG    1       -1.225   2.408   0.021  0.00  0.00    +0.030 A 
ATOM     29  C   LIG    1       -0.021   1.732   0.012  0.00  0.00    -0.020 A 
ATOM     30 CL   LIG    1        0.002  -0.004   0.002  0.00  0.00    -0.050 Cl
ENDBRANCH  22  24
ENDBRANCH  18  19
ENDBRANCH  16  18
ENDBRANCH   3  16
TORSDOF 6
