REMARK  Name = ZINCvU0000000JUG.0
REMARK                            x       y       z     vdW  Elec       q    Type
REMARK                         _______ _______ _______ _____ _____    ______ ____
ROOT
ATOM      1  C   LIG    1        1.328   1.882   0.152  0.00  0.00    +0.290 C 
ATOM      2  N   LIG    1        0.001   1.303  -0.070  0.00  0.00    -0.590 N 
ATOM      3  C   LIG    1       -0.120   0.003  -0.406  0.00  0.00    +0.580 C 
ATOM      4  O   LIG    1       -1.223  -0.502  -0.493  0.00  0.00    -0.520 OA
ENDROOT
BRANCH   3   5
ATOM      5  C   LIG    1        1.081  -0.803  -0.668  0.00  0.00    +0.040 A 
ATOM      6  C   LIG    1        2.380  -0.341  -0.744  0.00  0.00    -0.050 A 
ATOM      7  C   LIG    1        3.204  -1.434  -1.004  0.00  0.00    +0.100 A 
ATOM      8  N   LIG    1        2.462  -2.510  -1.094  0.00  0.00    -0.250 NA
ATOM      9  N   LIG    1        1.123  -2.154  -0.889  0.00  0.00    -0.290 N 
BRANCH   9  10
ATOM     10  C   LIG    1        0.025  -3.023  -0.907  0.00  0.00    +0.140 A 
ATOM     11  C   LIG    1       -0.945  -2.939   0.084  0.00  0.00    +0.050 A 
ATOM     12  C   LIG    1       -2.029  -3.794   0.060  0.00  0.00    +0.020 A 
ATOM     13  C   LIG    1       -2.144  -4.740  -0.942  0.00  0.00    +0.020 A 
ATOM     14  C   LIG    1       -1.177  -4.830  -1.927  0.00  0.00    +0.020 A 
ATOM     15  C   LIG    1       -0.093  -3.974  -1.912  0.00  0.00    +0.030 A 
ENDBRANCH   9  10
BRANCH   7  16
ATOM     16  C   LIG    1        4.702  -1.385  -1.161  0.00  0.00    +0.030 C 
ATOM     17  C   LIG    1        5.343  -0.017  -1.402  0.00  0.00    +0.050 C 
ATOM     18  C   LIG    1        5.256  -1.033  -2.543  0.00  0.00    +0.040 C 
ENDBRANCH   7  16
ENDBRANCH   3   5
BRANCH   2  19
ATOM     19  C   LIG    1       -1.195   2.138   0.069  0.00  0.00    +0.340 C 
BRANCH  19  20
ATOM     20  C   LIG    1       -1.689   2.076   1.491  0.00  0.00    -0.140 A 
ATOM     21  C   LIG    1       -2.609   1.112   1.860  0.00  0.00    +0.070 A 
ATOM     22  C   LIG    1       -3.059   1.049   3.164  0.00  0.00    -0.050 A 
ATOM     23  C   LIG    1       -2.597   1.963   4.102  0.00  0.00    +0.120 A 
ATOM     24  C   LIG    1       -1.677   2.934   3.726  0.00  0.00    -0.030 A 
ATOM     25  C   LIG    1       -1.226   2.988   2.422  0.00  0.00    +0.040 A 
BRANCH  23  26
ATOM     26  N   LIG    1       -3.055   1.906   5.420  0.00  0.00    -0.490 N 
ATOM     27  C   LIG    1       -1.935   1.788   6.363  0.00  0.00    +0.180 C 
ATOM     28  C   LIG    1       -2.462   1.874   7.797  0.00  0.00    +0.020 C 
ATOM     29  C   LIG    1       -3.473   0.749   8.033  0.00  0.00    +0.010 C 
ATOM     30  C   LIG    1       -4.605   0.867   7.008  0.00  0.00    +0.020 C 
ATOM     31  C   LIG    1       -4.016   0.810   5.597  0.00  0.00    +0.180 C 
ENDBRANCH  23  26
ENDBRANCH  19  20
ENDBRANCH   2  19
TORSDOF 6
