REMARK  Name = ZINCvU00000004uD.0
REMARK                            x       y       z     vdW  Elec       q    Type
REMARK                         _______ _______ _______ _____ _____    ______ ____
ROOT
ATOM      1  C   LIG    1        2.492  -3.688   0.742  0.00  0.00    +0.520 C 
ATOM      2  O   LIG    1        1.452  -4.213   0.399  0.00  0.00    -0.480 OA
ENDROOT
BRANCH   1  11
ATOM      3  C   LIG    1        5.646  -5.750   0.691  0.00  0.00    +0.170 A 
ATOM      4  N   LIG    1        5.786  -6.087   1.949  0.00  0.00    -0.450 NA
ATOM      5  C   LIG    1        4.916  -5.697   2.884  0.00  0.00    +0.130 A 
ATOM      6  C   LIG    1        5.085  -6.069   4.230  0.00  0.00    +0.060 A 
ATOM      7  C   LIG    1        4.194  -5.642   5.166  0.00  0.00    +0.040 A 
ATOM      8  C   LIG    1        3.101  -4.855   4.810  0.00  0.00    +0.030 A 
ATOM      9  C   LIG    1        2.902  -4.480   3.515  0.00  0.00    +0.010 A 
ATOM     10  C   LIG    1        3.806  -4.891   2.528  0.00  0.00    -0.070 A 
ATOM     11  C   LIG    1        3.635  -4.522   1.169  0.00  0.00    -0.050 A 
ATOM     12  C   LIG    1        4.581  -4.966   0.254  0.00  0.00    -0.080 A 
BRANCH  12  13
ATOM     13  C   LIG    1        4.456  -4.601  -1.203  0.00  0.00    +0.070 C 
ATOM     14  C   LIG    1        3.652  -5.679  -1.932  0.00  0.00    +0.040 C 
ENDBRANCH  12  13
BRANCH   3  15
ATOM     15  C   LIG    1        6.665  -6.226  -0.312  0.00  0.00    +0.100 C 
BRANCH  15  17
ATOM     16  C   LIG    1        8.790  -5.640  -1.488  0.00  0.00    +0.030 C 
ATOM     17  C   LIG    1        7.815  -5.219  -0.387  0.00  0.00    +0.010 C 
ENDBRANCH  15  17
ENDBRANCH   3  15
ENDBRANCH   1  11
BRANCH   1  18
ATOM     18  O   LIG    1        2.603  -2.345   0.735  0.00  0.00    -0.320 OA
BRANCH  18  19
ATOM     19  C   LIG    1        1.441  -1.590   0.304  0.00  0.00    +0.270 C 
BRANCH  19  20
ATOM     20  C   LIG    1        1.750  -0.116   0.361  0.00  0.00    +0.510 C 
ATOM     21  N   LIG    1        0.812   0.784   0.003  0.00  0.00    -0.670 N 
ATOM     22  H   LIG    1       -0.086   0.488  -0.213  0.00  0.00    +0.410 HD
ATOM     23  O   LIG    1        2.843   0.261   0.728  0.00  0.00    -0.490 OA
BRANCH  21  24
ATOM     24  C   LIG    1        1.135   2.144  -0.057  0.00  0.00    +0.130 A 
ATOM     25  C   LIG    1        1.647   2.787   1.062  0.00  0.00    -0.060 A 
ATOM     26  C   LIG    1        1.965   4.130   1.000  0.00  0.00    +0.010 A 
ATOM     27  C   LIG    1        1.773   4.834  -0.175  0.00  0.00    +0.020 A 
ATOM     28  C   LIG    1        1.263   4.196  -1.291  0.00  0.00    +0.020 A 
ATOM     29  C   LIG    1        1.856   2.022   2.343  0.00  0.00    +0.090 C 
ATOM     30  C   LIG    1        0.948   2.852  -1.237  0.00  0.00    -0.080 A 
BRANCH  30  31
ATOM     31  C   LIG    1        0.398   2.156  -2.455  0.00  0.00    +0.060 C 
ATOM     32  C   LIG    1       -1.130   2.148  -2.391  0.00  0.00    +0.020 C 
ENDBRANCH  30  31
ENDBRANCH  21  24
ENDBRANCH  19  20
ENDBRANCH  18  19
ENDBRANCH   1  18
TORSDOF 9
