REMARK  Name = ZINCpk000000mWvT.0
REMARK                            x       y       z     vdW  Elec       q    Type
REMARK                         _______ _______ _______ _____ _____    ______ ____
ROOT
ATOM      1  C   LIG    1        1.875   4.725   1.447  0.00  0.00    +0.250 C 
ENDROOT
BRANCH   1   2
ATOM      2  C   LIG    1        2.890   5.840   1.456  0.00  0.00    +0.520 C 
ATOM      3  N   LIG    1        4.205   5.555   1.378  0.00  0.00    -0.620 N 
ATOM      4  C   LIG    1        4.785   4.208   1.281  0.00  0.00    +0.220 C 
ATOM      5  C   LIG    1        6.319   4.372   1.243  0.00  0.00    +0.180 C 
ATOM      6  C   LIG    1        6.536   5.765   1.891  0.00  0.00    -0.070 C 
ATOM      7  C   LIG    1        7.833   6.406   1.392  0.00  0.00    +0.050 C 
ATOM      8  C   LIG    1        6.527   5.668   3.417  0.00  0.00    +0.050 C 
ATOM      9  C   LIG    1        5.299   6.543   1.371  0.00  0.00    +0.260 C 
ATOM     10  O   LIG    1        2.522   6.993   1.532  0.00  0.00    -0.500 OA
BRANCH   5  11
ATOM     11  O   LIG    1        6.957   3.351   2.014  0.00  0.00    -0.550 OA
ATOM     12  H   LIG    1        6.787   2.454   1.696  0.00  0.00    +0.380 HD
ENDBRANCH   5  11
ENDBRANCH   1   2
BRANCH   1  15
ATOM     13  C   LIG    1       -1.333   6.740   1.996  0.00  0.00    +0.080 C 
ATOM     14  C   LIG    1       -0.032   6.240   1.421  0.00  0.00    +0.520 C 
ATOM     15  N   LIG    1        0.611   5.210   2.005  0.00  0.00    -0.720 N 
ATOM     16  H   LIG    1        0.237   4.790   2.796  0.00  0.00    +0.400 HD
ATOM     17  O   LIG    1        0.435   6.765   0.433  0.00  0.00    -0.520 OA
ENDBRANCH   1  15
BRANCH   1  18
ATOM     18  C   LIG    1        1.650   4.252   0.009  0.00  0.00    +0.120 C 
BRANCH  18  19
ATOM     19  C   LIG    1        0.730   3.058   0.011  0.00  0.00    -0.160 A 
ATOM     20  C   LIG    1        1.098   1.767   0.001  0.00  0.00    +0.220 A 
ATOM     21  N   LIG    1       -0.011   0.966   0.007  0.00  0.00    -0.590 N 
ATOM     22  H   LIG    1        0.002  -0.004   0.002  0.00  0.00    +0.420 HD
ATOM     23  C   LIG    1       -1.149   1.741   0.016  0.00  0.00    +0.090 A 
ATOM     24  C   LIG    1       -2.508   1.447   0.021  0.00  0.00    -0.010 A 
ATOM     25  C   LIG    1       -3.430   2.472   0.030  0.00  0.00    +0.030 A 
ATOM     26  C   LIG    1       -3.016   3.796   0.035  0.00  0.00    -0.030 A 
ATOM     27  C   LIG    1       -1.685   4.108   0.040  0.00  0.00    +0.050 A 
ATOM     28  C   LIG    1       -0.734   3.086   0.026  0.00  0.00    -0.090 A 
ENDBRANCH  18  19
ENDBRANCH   1  18
TORSDOF 5
