REMARK  Name = ZINCnE000001E3h3.1
REMARK                            x       y       z     vdW  Elec       q    Type
REMARK                         _______ _______ _______ _____ _____    ______ ____
ROOT
ATOM      1  S   LIG    1       -0.738   7.858   2.093  0.00  0.00    +2.530 S 
ATOM      2  O   LIG    1       -2.037   7.915   1.520  0.00  0.00    -1.010 OA
ATOM      3  O   LIG    1        0.425   7.951   1.282  0.00  0.00    -1.020 OA
ENDROOT
BRANCH   1   4
ATOM      4  N   LIG    1       -0.652   6.345   2.760  0.00  0.00    -1.070 NA
BRANCH   4   7
ATOM      5  C   LIG    1       -0.749   3.086   1.275  0.00  0.00    +0.080 A 
ATOM      6  C   LIG    1       -0.654   3.878   2.368  0.00  0.00    -0.150 A 
ATOM      7  C   LIG    1       -0.715   5.213   1.938  0.00  0.00    +0.380 A 
ATOM      8  N   LIG    1       -0.842   5.215   0.632  0.00  0.00    -0.410 NA
ATOM      9  N   LIG    1       -0.860   3.885   0.193  0.00  0.00    -0.500 N 
ATOM     10  H   LIG    1       -0.939   3.590  -0.727  0.00  0.00    +0.420 HD
BRANCH   5  12
ATOM     11  C   LIG    1       -0.013   1.086   0.008  0.00  0.00    +0.020 C 
ATOM     12  C   LIG    1       -0.729   1.579   1.267  0.00  0.00    +0.060 C 
ATOM     13  C   LIG    1       -2.164   1.050   1.278  0.00  0.00    +0.020 C 
ENDBRANCH   5  12
ENDBRANCH   4   7
ENDBRANCH   1   4
BRANCH   1  14
ATOM     14  C   LIG    1       -0.617   8.985   3.510  0.00  0.00    -0.310 C 
BRANCH  14  15
ATOM     15  C   LIG    1       -0.684  10.410   3.025  0.00  0.00    -0.070 A 
ATOM     16  C   LIG    1        0.477  11.083   2.694  0.00  0.00    +0.060 A 
ATOM     17  C   LIG    1        0.415  12.389   2.245  0.00  0.00    +0.020 A 
ATOM     18  C   LIG    1       -0.807  13.025   2.137  0.00  0.00    +0.060 A 
ATOM     19  C   LIG    1       -1.968  12.354   2.474  0.00  0.00    -0.180 A 
ATOM     20  C   LIG    1       -1.907  11.047   2.918  0.00  0.00    +0.080 A 
BRANCH  19  21
ATOM     21  C   LIG    1       -3.301  13.048   2.356  0.00  0.00    +0.510 C 
ATOM     22  F   LIG    1       -4.294  12.105   2.071  0.00  0.00    -0.170 F 
ATOM     23  F   LIG    1       -3.245  13.993   1.326  0.00  0.00    -0.180 F 
ATOM     24  F   LIG    1       -3.600  13.691   3.562  0.00  0.00    -0.180 F 
ENDBRANCH  19  21
ENDBRANCH  14  15
ENDBRANCH   1  14
TORSDOF 6
