REMARK  Name = ZINCpk000000pRjQ.0
REMARK                            x       y       z     vdW  Elec       q    Type
REMARK                         _______ _______ _______ _____ _____    ______ ____
ROOT
ATOM      1  C   LIG    1       -2.408   3.372   3.076  0.00  0.00    +0.520 C 
ATOM      2  N   LIG    1       -2.473   2.091   2.662  0.00  0.00    -0.590 N 
ATOM      3  C   LIG    1       -1.808   1.075   3.448  0.00  0.00    +0.280 C 
ATOM      4  C   LIG    1       -0.360   0.886   2.932  0.00  0.00    +0.020 C 
ATOM      5  C   LIG    1       -0.384   0.255   1.599  0.00  0.00    +0.170 C 
ATOM      6  N   LIG    1       -1.055   1.046   0.568  0.00  0.00    -0.510 NA
ATOM      7  C   LIG    1       -2.474   0.762   0.550  0.00  0.00    +0.190 C 
ATOM      8  C   LIG    1       -3.220   1.787   1.424  0.00  0.00    +0.260 C 
ATOM      9  O   LIG    1       -1.731   3.663   4.040  0.00  0.00    -0.520 OA
ENDROOT
BRANCH   1  10
ATOM     10  C   LIG    1       -3.174   4.442   2.343  0.00  0.00    +0.170 C 
BRANCH  10  12
ATOM     11  C   LIG    1       -3.285   5.784   0.238  0.00  0.00    +0.020 C 
ATOM     12  C   LIG    1       -2.440   4.799   1.049  0.00  0.00    +0.030 C 
ENDBRANCH  10  12
BRANCH  10  13
ATOM     13  O   LIG    1       -3.278   5.604   3.167  0.00  0.00    -0.280 OA
BRANCH  13  14
ATOM     14  C   LIG    1       -4.416   6.340   3.056  0.00  0.00    +0.130 A 
ATOM     15  C   LIG    1       -5.438   5.916   2.220  0.00  0.00    -0.080 A 
ATOM     16  C   LIG    1       -6.593   6.666   2.108  0.00  0.00    +0.030 A 
ATOM     17  C   LIG    1       -6.731   7.837   2.830  0.00  0.00    -0.030 A 
ATOM     18  C   LIG    1       -5.712   8.262   3.664  0.00  0.00    +0.050 A 
ATOM     19  C   LIG    1       -4.558   7.513   3.783  0.00  0.00    -0.110 A 
ATOM     20  C   LIG    1       -3.452   7.973   4.698  0.00  0.00    +0.090 C 
ENDBRANCH  13  14
ENDBRANCH  10  13
ENDBRANCH   1  10
BRANCH   6  21
ATOM     21  C   LIG    1       -0.453   0.811  -0.751  0.00  0.00    +0.260 C 
BRANCH  21  22
ATOM     22  C   LIG    1       -0.691  -0.619  -1.164  0.00  0.00    +0.480 C 
ATOM     23  N   LIG    1       -0.317  -1.037  -2.389  0.00  0.00    -0.730 N 
ATOM     24  H   LIG    1        0.105  -0.418  -3.005  0.00  0.00    +0.400 HD
ATOM     25  C   LIG    1       -0.548  -2.427  -2.790  0.00  0.00    +0.280 C 
ATOM     26  O   LIG    1       -1.218  -1.393  -0.393  0.00  0.00    -0.540 OA
ENDBRANCH  21  22
ENDBRANCH   6  21
TORSDOF 6
