REMARK  Name = ZINCvU0000000JJZ.0
REMARK                            x       y       z     vdW  Elec       q    Type
REMARK                         _______ _______ _______ _____ _____    ______ ____
ROOT
ATOM      1  C   LIG    1       -2.330  -2.538   0.642  0.00  0.00    +0.200 A 
ATOM      2  N   LIG    1       -3.076  -1.452   0.618  0.00  0.00    -0.220 NA
ATOM      3  N   LIG    1       -2.206  -0.354   0.717  0.00  0.00    -0.330 N 
ATOM      4  C   LIG    1       -0.943  -0.871   0.789  0.00  0.00    +0.370 A 
ATOM      5  N   LIG    1       -1.042  -2.184   0.746  0.00  0.00    -0.490 NA
ENDROOT
BRANCH   3   6
ATOM      6  C   LIG    1       -2.562   1.000   0.736  0.00  0.00    +0.120 A 
ATOM      7  C   LIG    1       -1.846   1.918  -0.021  0.00  0.00    +0.070 A 
ATOM      8  C   LIG    1       -2.199   3.253  -0.001  0.00  0.00    +0.070 A 
ATOM      9  C   LIG    1       -3.265   3.676   0.772  0.00  0.00    +0.090 A 
ATOM     10  C   LIG    1       -3.980   2.764   1.527  0.00  0.00    -0.170 A 
ATOM     11  C   LIG    1       -3.635   1.427   1.507  0.00  0.00    +0.110 A 
BRANCH  10  12
ATOM     12  C   LIG    1       -5.141   3.229   2.368  0.00  0.00    +0.510 C 
ATOM     13  F   LIG    1       -4.895   2.928   3.711  0.00  0.00    -0.170 F 
ATOM     14  F   LIG    1       -6.308   2.579   1.951  0.00  0.00    -0.170 F 
ATOM     15  F   LIG    1       -5.299   4.611   2.221  0.00  0.00    -0.170 F 
ENDBRANCH  10  12
ENDBRANCH   3   6
BRANCH   4  16
ATOM     16  C   LIG    1        0.304  -0.099   0.901  0.00  0.00    -0.180 A 
ATOM     17  C   LIG    1        1.541  -0.569   0.625  0.00  0.00    +0.110 A 
ATOM     18  C   LIG    1        2.557   0.344   0.804  0.00  0.00    +0.000 A 
ATOM     19  C   LIG    1        2.166   1.553   1.224  0.00  0.00    -0.010 A 
ATOM     20  S   LIG    1        0.418   1.580   1.414  0.00  0.00    +0.160 S 
ENDBRANCH   4  16
BRANCH   1  22
ATOM     21  N   LIG    1       -1.970  -4.959   0.613  0.00  0.00    -0.530 N 
ATOM     22  C   LIG    1       -2.833  -3.925   0.567  0.00  0.00    +0.610 C 
ATOM     23  O   LIG    1       -4.027  -4.134   0.465  0.00  0.00    -0.480 OA
ATOM     24  C   LIG    1       -0.527  -4.708   0.625  0.00  0.00    +0.330 C 
BRANCH  21  29
ATOM     25  C   LIG    1       -3.924 -10.283   0.759  0.00  0.00    +0.100 C 
ATOM     26  C   LIG    1       -3.405  -8.868   0.721  0.00  0.00    -0.110 A 
ATOM     27  C   LIG    1       -2.054  -8.624   0.888  0.00  0.00    +0.030 A 
ATOM     28  C   LIG    1       -1.575  -7.329   0.853  0.00  0.00    -0.020 A 
ATOM     29  C   LIG    1       -2.451  -6.272   0.649  0.00  0.00    +0.140 A 
ATOM     30  C   LIG    1       -3.808  -6.520   0.486  0.00  0.00    +0.020 A 
ATOM     31  C   LIG    1       -4.280  -7.817   0.517  0.00  0.00    +0.030 A 
ENDBRANCH  21  29
ENDBRANCH   1  22
TORSDOF 5
