REMARK  Name = ZINCrH000004qFLY.0
REMARK                            x       y       z     vdW  Elec       q    Type
REMARK                         _______ _______ _______ _____ _____    ______ ____
ROOT
ATOM      1  C   LIG    1        1.806   3.283   5.037  0.00  0.00    +0.520 C 
ATOM      2  N   LIG    1        1.389   4.378   4.370  0.00  0.00    -0.670 N 
ATOM      3  H   LIG    1        1.586   5.262   4.718  0.00  0.00    +0.430 HD
ATOM      4  O   LIG    1        1.644   2.182   4.556  0.00  0.00    -0.490 OA
ENDROOT
BRANCH   2   5
ATOM      5  C   LIG    1        0.671   4.239   3.175  0.00  0.00    +0.240 A 
ATOM      6  C   LIG    1       -0.215   3.181   3.017  0.00  0.00    +0.040 A 
ATOM      7  C   LIG    1       -0.920   3.049   1.834  0.00  0.00    +0.150 A 
ATOM      8  C   LIG    1       -0.743   3.969   0.811  0.00  0.00    +0.050 A 
ATOM      9  O   LIG    1       -1.444   3.828  -0.352  0.00  0.00    -0.310 OA
ATOM     10  C   LIG    1       -1.094   2.703  -1.160  0.00  0.00    +0.220 C 
ATOM     11  C   LIG    1       -1.830   1.456  -0.696  0.00  0.00    +0.000 C 
ATOM     12  C   LIG    1       -1.419   1.028   0.704  0.00  0.00    +0.250 C 
ATOM     13  C   LIG    1        0.140   5.024   0.969  0.00  0.00    +0.140 A 
ATOM     14  O   LIG    1       -1.796   2.015   1.666  0.00  0.00    -0.310 OA
ATOM     15  C   LIG    1        0.846   5.159   2.150  0.00  0.00    -0.070 A 
BRANCH  15  16
ATOM     16  N   LIG    1        1.791   6.285   2.321  0.00  0.00    +0.040 N 
ATOM     17  O   LIG    1        2.346   6.457   3.392  0.00  0.00    -0.180 OA
ATOM     18  O   LIG    1        2.014   7.040   1.392  0.00  0.00    -0.140 OA
ENDBRANCH  15  16
ENDBRANCH   2   5
BRANCH   1  19
ATOM     19  C   LIG    1        2.474   3.428   6.380  0.00  0.00    +0.260 C 
BRANCH  19  20
ATOM     20  O   LIG    1        2.821   2.136   6.881  0.00  0.00    -0.280 OA
BRANCH  20  28
ATOM     21  C   LIG    1        3.517  -0.409   7.889  0.00  0.00    +0.110 C 
ATOM     22  C   LIG    1        3.802   0.867   8.639  0.00  0.00    -0.100 A 
ATOM     23  C   LIG    1        4.427   0.821   9.870  0.00  0.00    +0.070 A 
ATOM     24  C   LIG    1        4.689   1.992  10.558  0.00  0.00    -0.060 A 
ATOM     25  C   LIG    1        4.325   3.212  10.015  0.00  0.00    +0.070 A 
ATOM     26  C   LIG    1        3.705   3.262   8.781  0.00  0.00    -0.050 A 
ATOM     27 CL   LIG    1        5.475   1.932  12.104  0.00  0.00    -0.070 Cl
ATOM     28  C   LIG    1        3.436   2.089   8.092  0.00  0.00    +0.130 A 
ENDBRANCH  20  28
ENDBRANCH  19  20
ENDBRANCH   1  19
TORSDOF 5
