REMARK  Name = ZINCrH000004v3Fj.0
REMARK                            x       y       z     vdW  Elec       q    Type
REMARK                         _______ _______ _______ _____ _____    ______ ____
ROOT
ATOM      1  O   LIG    1        1.187   5.784   0.544  0.00  0.00    -0.490 OA
ATOM      2  C   LIG    1        2.182   5.337   0.006  0.00  0.00    +0.560 C 
ATOM      3  N   LIG    1        2.190   4.069  -0.451  0.00  0.00    -0.660 N 
ATOM      4  H   LIG    1        3.004   3.692  -0.818  0.00  0.00    +0.420 HD
ENDROOT
BRANCH   2   5
ATOM      5  C   LIG    1        3.381   6.184  -0.145  0.00  0.00    -0.100 A 
ATOM      6  C   LIG    1        4.642   5.600  -0.261  0.00  0.00    +0.020 A 
ATOM      7  C   LIG    1        5.762   6.398  -0.403  0.00  0.00    +0.100 A 
ATOM      8  C   LIG    1        5.639   7.779  -0.430  0.00  0.00    +0.030 A 
ATOM      9  C   LIG    1        4.398   8.372  -0.317  0.00  0.00    +0.070 A 
ATOM     10  F   LIG    1        6.982   5.829  -0.515  0.00  0.00    -0.130 F 
ATOM     11  C   LIG    1        3.259   7.585  -0.179  0.00  0.00    +0.010 A 
BRANCH  11  12
ATOM     12  C   LIG    1        1.925   8.219  -0.063  0.00  0.00    -0.050 A 
ATOM     13  C   LIG    1        0.915   7.896  -0.969  0.00  0.00    +0.030 A 
ATOM     14  C   LIG    1       -0.327   8.486  -0.852  0.00  0.00    +0.000 A 
ATOM     15  C   LIG    1       -0.568   9.404   0.154  0.00  0.00    +0.010 A 
ATOM     16  C   LIG    1        0.431   9.732   1.053  0.00  0.00    +0.000 A 
ATOM     17  C   LIG    1        1.675   9.145   0.950  0.00  0.00    +0.020 A 
ENDBRANCH  11  12
ENDBRANCH   2   5
BRANCH   3  18
ATOM     18  C   LIG    1        1.023   3.298  -0.396  0.00  0.00    +0.090 A 
ATOM     19  C   LIG    1        0.132   3.442   0.666  0.00  0.00    +0.110 A 
ATOM     20  C   LIG    1       -1.009   2.659   0.679  0.00  0.00    +0.020 A 
ATOM     21  C   LIG    1       -1.224   1.758  -0.357  0.00  0.00    +0.350 A 
ATOM     22  N   LIG    1       -0.358   1.651  -1.352  0.00  0.00    -0.480 NA
ATOM     23  C   LIG    1        0.739   2.381  -1.398  0.00  0.00    +0.290 A 
BRANCH  21  24
ATOM     24  N   LIG    1       -2.372   0.958  -0.350  0.00  0.00    -0.330 N 
ATOM     25  C   LIG    1       -2.726   0.046  -1.277  0.00  0.00    +0.520 A 
ATOM     26  N   LIG    1       -3.861  -0.489  -0.905  0.00  0.00    -0.540 NA
ATOM     27  C   LIG    1       -4.265   0.059   0.241  0.00  0.00    +0.450 A 
ATOM     28  N   LIG    1       -3.387   0.950   0.620  0.00  0.00    -0.310 NA
ENDBRANCH  21  24
ENDBRANCH   3  18
TORSDOF 4
