REMARK  Name = ZINCpe000000TWQb.0
REMARK                            x       y       z     vdW  Elec       q    Type
REMARK                         _______ _______ _______ _____ _____    ______ ____
ROOT
ATOM      1  N   LIG    1        1.209  -5.935   1.625  0.00  0.00    -0.720 N 
ATOM      2  H   LIG    1        1.310  -6.551   0.883  0.00  0.00    +0.410 HD
ATOM      3  C   LIG    1        0.978  -4.628   1.388  0.00  0.00    +0.500 C 
ATOM      4  O   LIG    1        0.851  -3.857   2.316  0.00  0.00    -0.520 OA
ENDROOT
BRANCH   1   5
ATOM      5  C   LIG    1        1.307  -6.423   3.002  0.00  0.00    +0.320 C 
BRANCH   5  10
ATOM      6  C   LIG    1        3.103  -9.748   2.966  0.00  0.00    +0.130 A 
ATOM      7  C   LIG    1        2.038 -10.636   2.971  0.00  0.00    -0.070 A 
ATOM      8  C   LIG    1        0.741 -10.157   2.987  0.00  0.00    +0.050 A 
ATOM      9  C   LIG    1        0.506  -8.795   3.002  0.00  0.00    -0.010 A 
ATOM     10  C   LIG    1        1.567  -7.908   2.991  0.00  0.00    -0.070 A 
ATOM     11  C   LIG    1        2.864  -8.381   2.976  0.00  0.00    +0.000 A 
BRANCH   6  12
ATOM     12  O   LIG    1        4.379 -10.216   2.951  0.00  0.00    -0.320 OA
BRANCH  12  14
ATOM     13  C   LIG    1        6.043 -11.969   2.925  0.00  0.00    +0.070 C 
ATOM     14  C   LIG    1        4.550 -11.634   2.942  0.00  0.00    +0.170 C 
ENDBRANCH  12  14
ENDBRANCH   6  12
ENDBRANCH   5  10
ENDBRANCH   1   5
BRANCH   3  15
ATOM     15  C   LIG    1        0.877  -4.125  -0.029  0.00  0.00    +0.340 C 
BRANCH  15  16
ATOM     16  N   LIG    1        0.624  -2.682  -0.018  0.00  0.00    -0.530 N 
ATOM     17  C   LIG    1       -0.651  -2.220  -0.004  0.00  0.00    +0.630 A 
ATOM     18  N   LIG    1       -0.947  -0.953   0.006  0.00  0.00    -0.530 NA
ATOM     19  C   LIG    1        0.002  -0.004   0.002  0.00  0.00    +0.330 A 
ATOM     20  C   LIG    1        1.353  -0.387  -0.013  0.00  0.00    -0.340 A 
ATOM     21  C   LIG    1        2.121   0.793  -0.014  0.00  0.00    +0.330 A 
ATOM     22  N   LIG    1        1.307   1.812  -0.001  0.00  0.00    -0.270 NA
ATOM     23  N   LIG    1       -0.016   1.354   0.009  0.00  0.00    -0.350 N 
ATOM     24  C   LIG    1       -1.215   2.196   0.020  0.00  0.00    +0.360 C 
ATOM     25  C   LIG    1        1.664  -1.816  -0.024  0.00  0.00    +0.580 A 
ATOM     26  O   LIG    1        2.816  -2.212  -0.037  0.00  0.00    -0.510 OA
ENDBRANCH  15  16
ENDBRANCH   3  15
TORSDOF 6
