REMARK  Name = ZINCpe00000zhuHn.0
REMARK                            x       y       z     vdW  Elec       q    Type
REMARK                         _______ _______ _______ _____ _____    ______ ____
ROOT
ATOM      1  C   LIG    1       -6.049   1.024  -0.388  0.00  0.00    +0.360 C 
ATOM      2  N   LIG    1       -4.594   0.901  -0.269  0.00  0.00    -0.350 N 
ATOM      3  N   LIG    1       -3.877  -0.299  -0.217  0.00  0.00    -0.290 NA
ATOM      4  C   LIG    1       -2.605  -0.027  -0.111  0.00  0.00    +0.270 A 
ATOM      5  C   LIG    1       -2.459   1.378  -0.090  0.00  0.00    -0.290 A 
ATOM      6  C   LIG    1       -3.725   1.921  -0.186  0.00  0.00    +0.160 A 
ENDROOT
BRANCH   5   7
ATOM      7  C   LIG    1       -1.192   2.125   0.019  0.00  0.00    +0.600 C 
ATOM      8  N   LIG    1       -0.262   1.745   0.917  0.00  0.00    -0.610 N 
ATOM      9  C   LIG    1       -0.554   0.667   1.870  0.00  0.00    +0.280 C 
ATOM     10  C   LIG    1       -0.339   1.188   3.300  0.00  0.00    +0.310 C 
ATOM     11  N   LIG    1        0.942   1.911   3.316  0.00  0.00    -0.630 N 
ATOM     12  C   LIG    1        1.981   1.730   4.132  0.00  0.00    +0.700 C 
ATOM     13  N   LIG    1        3.078   2.409   3.766  0.00  0.00    -0.740 N 
ATOM     14  H   LIG    1        3.942   2.360   4.205  0.00  0.00    +0.430 HD
ATOM     15  C   LIG    1        2.764   3.241   2.593  0.00  0.00    +0.280 C 
ATOM     16  O   LIG    1        1.937   1.016   5.115  0.00  0.00    -0.580 OA
ATOM     17  C   LIG    1        1.269   2.980   2.348  0.00  0.00    +0.200 C 
ATOM     18  C   LIG    1        1.052   2.406   0.943  0.00  0.00    +0.300 C 
ATOM     19  O   LIG    1       -0.988   3.083  -0.701  0.00  0.00    -0.540 OA
ENDBRANCH   5   7
BRANCH   6  20
ATOM     20  C   LIG    1       -4.067   3.388  -0.198  0.00  0.00    +0.180 C 
BRANCH  20  21
ATOM     21  C   LIG    1       -4.295   3.863   1.214  0.00  0.00    -0.080 A 
ATOM     22  C   LIG    1       -5.562   3.814   1.764  0.00  0.00    +0.010 A 
ATOM     23  C   LIG    1       -5.769   4.244   3.061  0.00  0.00    +0.000 A 
ATOM     24  C   LIG    1       -4.712   4.734   3.805  0.00  0.00    +0.000 A 
ATOM     25  C   LIG    1       -3.446   4.788   3.253  0.00  0.00    +0.000 A 
ATOM     26  C   LIG    1       -3.237   4.353   1.957  0.00  0.00    +0.020 A 
ENDBRANCH  20  21
ENDBRANCH   6  20
TORSDOF 3
