REMARK  Name = ZINCrD0000075IaZ.0
REMARK                            x       y       z     vdW  Elec       q    Type
REMARK                         _______ _______ _______ _____ _____    ______ ____
ROOT
ATOM      1  O   LIG    1       -0.973   0.471   2.474  0.00  0.00    -0.490 OA
ATOM      2  C   LIG    1        0.111  -0.081   2.435  0.00  0.00    +0.590 C 
ATOM      3  N   LIG    1        0.658  -0.409   1.248  0.00  0.00    -0.710 N 
ATOM      4  H   LIG    1        1.489  -0.908   1.218  0.00  0.00    +0.410 HD
ENDROOT
BRANCH   2   5
ATOM      5  C   LIG    1        0.821  -0.390   3.680  0.00  0.00    -0.260 A 
ATOM      6  C   LIG    1        0.378  -0.106   4.930  0.00  0.00    +0.130 A 
ATOM      7  C   LIG    1        1.240  -0.505   5.947  0.00  0.00    -0.100 A 
ATOM      8  C   LIG    1        2.364  -1.101   5.508  0.00  0.00    -0.200 A 
ATOM      9  C   LIG    1        3.503  -1.662   6.337  0.00  0.00    +0.180 C 
ATOM     10  C   LIG    1        3.510  -1.083   7.747  0.00  0.00    -0.310 C 
ATOM     11  S   LIG    1        1.859  -1.319   8.473  0.00  0.00    +2.430 S 
ATOM     12  O   LIG    1        1.455  -2.666   8.264  0.00  0.00    -0.920 OA
ATOM     13  O   LIG    1        1.858  -0.786   9.790  0.00  0.00    -0.930 OA
ATOM     14  C   LIG    1        0.871  -0.239   7.402  0.00  0.00    -0.250 C 
ATOM     15  S   LIG    1        2.383  -1.178   3.793  0.00  0.00    +0.230 S 
ENDBRANCH   2   5
BRANCH   3  16
ATOM     16  C   LIG    1       -0.003  -0.012   0.002  0.00  0.00    +0.190 C 
ATOM     17  C   LIG    1       -0.227   1.515  -0.022  0.00  0.00    +0.090 C 
ATOM     18  C   LIG    1        1.038   2.025  -0.743  0.00  0.00    +0.100 C 
ATOM     19  C   LIG    1        1.491   0.871  -1.613  0.00  0.00    -0.060 A 
ATOM     20  C   LIG    1        2.357   0.848  -2.693  0.00  0.00    +0.020 A 
ATOM     21  C   LIG    1        2.624  -0.342  -3.343  0.00  0.00    +0.040 A 
ATOM     22  C   LIG    1        2.026  -1.512  -2.915  0.00  0.00    +0.010 A 
ATOM     23  C   LIG    1        1.162  -1.490  -1.837  0.00  0.00    +0.050 A 
ATOM     24  C   LIG    1        0.893  -0.301  -1.183  0.00  0.00    -0.130 A 
BRANCH  16  25
ATOM     25  C   LIG    1       -1.336  -0.747  -0.149  0.00  0.00    +0.440 C 
ATOM     26  F   LIG    1       -1.125  -2.125  -0.027  0.00  0.00    -0.180 F 
ATOM     27  F   LIG    1       -1.883  -0.468  -1.406  0.00  0.00    -0.170 F 
ATOM     28  F   LIG    1       -2.219  -0.321   0.849  0.00  0.00    -0.150 F 
ENDBRANCH  16  25
ENDBRANCH   3  16
TORSDOF 3
