REMARK  Name = ZINCqH0000032wn0.0
REMARK                            x       y       z     vdW  Elec       q    Type
REMARK                         _______ _______ _______ _____ _____    ______ ____
ROOT
ATOM      1  C   LIG    1        4.772   1.476   0.216  0.00  0.00    +0.520 C 
ATOM      2  N   LIG    1        3.603   2.105  -0.014  0.00  0.00    -0.550 N 
ATOM      3  C   LIG    1        3.552   3.557  -0.252  0.00  0.00    +0.240 C 
ATOM      4  C   LIG    1        2.333   4.100   0.507  0.00  0.00    +0.250 C 
ATOM      5  N   LIG    1        1.119   3.479  -0.029  0.00  0.00    -0.460 N 
ATOM      6  C   LIG    1        1.176   2.083  -0.035  0.00  0.00    +0.080 A 
ATOM      7  C   LIG    1       -0.014   1.363  -0.047  0.00  0.00    +0.060 A 
ATOM      8  C   LIG    1        0.010  -0.018  -0.065  0.00  0.00    +0.020 A 
ATOM      9  C   LIG    1        1.216  -0.695  -0.071  0.00  0.00    -0.020 A 
ATOM     10  C   LIG    1        2.406   0.012  -0.056  0.00  0.00    +0.050 A 
ATOM     11 CL   LIG    1        1.238  -2.431  -0.097  0.00  0.00    -0.060 Cl
ATOM     12  C   LIG    1        2.388   1.397  -0.037  0.00  0.00    +0.130 A 
ATOM     13  O   LIG    1        4.780   0.300   0.515  0.00  0.00    -0.500 OA
ENDROOT
BRANCH   5  14
ATOM     14  C   LIG    1        0.808   3.999  -1.367  0.00  0.00    +0.100 C 
ATOM     15  C   LIG    1       -0.438   4.874  -1.513  0.00  0.00    +0.040 C 
ATOM     16  C   LIG    1       -0.436   3.448  -2.067  0.00  0.00    +0.030 C 
ENDBRANCH   5  14
BRANCH   1  17
ATOM     17  C   LIG    1        6.071   2.233   0.102  0.00  0.00    +0.080 C 
BRANCH  17  18
ATOM     18  C   LIG    1        7.242   1.265   0.277  0.00  0.00    +0.220 C 
BRANCH  18  22
ATOM     19  C   LIG    1       10.289   3.140   0.573  0.00  0.00    +0.180 A 
ATOM     20  N   LIG    1       10.234   2.884  -0.700  0.00  0.00    -0.380 NA
ATOM     21  O   LIG    1        9.240   2.238  -0.956  0.00  0.00    +0.080 OA
ATOM     22  C   LIG    1        8.540   2.022   0.163  0.00  0.00    +0.180 A 
ATOM     23  N   LIG    1        9.203   2.589   1.142  0.00  0.00    -0.470 NA
BRANCH  19  25
ATOM     24  C   LIG    1       12.716   3.210   1.079  0.00  0.00    +0.040 C 
ATOM     25  C   LIG    1       11.372   3.913   1.281  0.00  0.00    +0.090 C 
ATOM     26  C   LIG    1       11.447   5.329   0.707  0.00  0.00    +0.040 C 
ENDBRANCH  19  25
ENDBRANCH  18  22
ENDBRANCH  17  18
ENDBRANCH   1  17
TORSDOF 5
