REMARK  Name = ZINCrg000000qN3f.0
REMARK                            x       y       z     vdW  Elec       q    Type
REMARK                         _______ _______ _______ _____ _____    ______ ____
ROOT
ATOM      1  C   LIG    1       -5.824  -8.096  -2.593  0.00  0.00    +0.570 C 
ATOM      2  N   LIG    1       -5.357  -6.877  -2.927  0.00  0.00    -0.610 N 
ATOM      3  C   LIG    1       -4.646  -6.669  -4.196  0.00  0.00    +0.280 C 
ATOM      4  C   LIG    1       -3.294  -6.011  -3.902  0.00  0.00    +0.060 C 
ATOM      5  C   LIG    1       -3.520  -4.732  -3.091  0.00  0.00    +0.000 C 
ATOM      6  C   LIG    1       -4.187  -5.082  -1.759  0.00  0.00    +0.030 C 
ATOM      7  C   LIG    1       -5.548  -5.730  -2.029  0.00  0.00    +0.280 C 
ATOM      8  O   LIG    1       -5.726  -9.020  -3.376  0.00  0.00    -0.520 OA
ENDROOT
BRANCH   1  15
ATOM      9  C   LIG    1       -5.983  -9.317  -0.424  0.00  0.00    +0.180 A 
ATOM     10  C   LIG    1       -6.583  -9.509   0.812  0.00  0.00    -0.050 A 
ATOM     11  C   LIG    1       -7.639  -8.709   1.200  0.00  0.00    +0.090 A 
ATOM     12  C   LIG    1       -8.108  -7.711   0.361  0.00  0.00    -0.080 A 
ATOM     13  C   LIG    1       -7.520  -7.503  -0.869  0.00  0.00    +0.110 A 
ATOM     14 CL   LIG    1       -9.437  -6.713   0.864  0.00  0.00    -0.060 Cl
ATOM     15  C   LIG    1       -6.454  -8.309  -1.276  0.00  0.00    -0.150 A 
BRANCH   9  17
ATOM     16  C   LIG    1       -4.520 -11.110   0.114  0.00  0.00    +0.250 C 
ATOM     17  O   LIG    1       -4.945 -10.103  -0.807  0.00  0.00    -0.300 OA
ENDBRANCH   9  17
ENDBRANCH   1  15
BRANCH   5  18
ATOM     18  C   LIG    1       -2.195  -4.064  -2.830  0.00  0.00    +0.520 C 
ATOM     19  N   LIG    1       -2.147  -2.913  -2.129  0.00  0.00    -0.730 N 
ATOM     20  H   LIG    1       -2.966  -2.516  -1.793  0.00  0.00    +0.400 HD
ATOM     21  O   LIG    1       -1.171  -4.561  -3.249  0.00  0.00    -0.530 OA
BRANCH  19  22
ATOM     22  C   LIG    1       -0.859  -2.263  -1.874  0.00  0.00    +0.420 C 
BRANCH  22  23
ATOM     23  C   LIG    1       -1.081  -1.004  -1.076  0.00  0.00    +0.150 A 
ATOM     24  N   LIG    1       -1.300   0.195  -1.556  0.00  0.00    -0.290 NA
ATOM     25  N   LIG    1       -1.436   1.002  -0.560  0.00  0.00    -0.140 N 
ATOM     26  N   LIG    1       -1.316   0.340   0.538  0.00  0.00    -0.060 NA
ATOM     27  C   LIG    1       -1.693   2.441  -0.661  0.00  0.00    +0.430 C 
ATOM     28  N   LIG    1       -1.097  -0.899   0.253  0.00  0.00    -0.270 NA
ENDBRANCH  22  23
ENDBRANCH  19  22
ENDBRANCH   5  18
TORSDOF 5
