REMARK  Name = ZINCrD000000Bdat.0
REMARK                            x       y       z     vdW  Elec       q    Type
REMARK                         _______ _______ _______ _____ _____    ______ ____
ROOT
ATOM      1  O   LIG    1        1.558  -4.588   1.678  0.00  0.00    -0.580 OA
ATOM      2  C   LIG    1        2.179  -3.769   2.328  0.00  0.00    +0.710 C 
ATOM      3  N   LIG    1        3.073  -4.180   3.250  0.00  0.00    -0.630 N 
ATOM      4  C   LIG    1        3.756  -3.214   4.125  0.00  0.00    +0.240 C 
ATOM      5  C   LIG    1        5.263  -3.489   4.064  0.00  0.00    +0.220 C 
ATOM      6  O   LIG    1        5.500  -4.872   4.338  0.00  0.00    -0.370 OA
ATOM      7  C   LIG    1        4.918  -5.765   3.385  0.00  0.00    +0.200 C 
ATOM      8  C   LIG    1        3.389  -5.607   3.415  0.00  0.00    +0.300 C 
ATOM      9  N   LIG    1        1.973  -2.453   2.128  0.00  0.00    -0.740 N 
ATOM     10  H   LIG    1        2.413  -1.801   2.697  0.00  0.00    +0.400 HD
ENDROOT
BRANCH   7  11
ATOM     11  C   LIG    1        5.282  -7.184   3.738  0.00  0.00    -0.070 A 
ATOM     12  C   LIG    1        5.298  -7.585   5.061  0.00  0.00    +0.060 A 
ATOM     13  C   LIG    1        5.628  -8.888   5.385  0.00  0.00    +0.050 A 
ATOM     14  C   LIG    1        5.952  -9.788   4.385  0.00  0.00    -0.080 A 
ATOM     15  C   LIG    1        5.941  -9.385   3.062  0.00  0.00    +0.050 A 
ATOM     16 BR   LIG    1        6.410 -11.569   4.828  0.00  0.00    -0.050 Br
ATOM     17  C   LIG    1        5.606  -8.083   2.739  0.00  0.00    +0.030 A 
ENDBRANCH   7  11
BRANCH   9  18
ATOM     18  C   LIG    1        1.085  -2.005   1.052  0.00  0.00    +0.330 C 
BRANCH  18  19
ATOM     19  C   LIG    1        1.027  -0.476   1.042  0.00  0.00    +0.130 C 
ATOM     20  C   LIG    1        0.004  -0.004   0.000  0.00  0.00    +0.240 C 
ATOM     21  O   LIG    1       -0.016   1.428   0.009  0.00  0.00    -0.300 OA
ATOM     22  C   LIG    1        1.192   2.056   0.002  0.00  0.00    +0.050 A 
ATOM     23  C   LIG    1        1.260   3.396  -0.348  0.00  0.00    +0.030 A 
ATOM     24  C   LIG    1        2.478   4.049  -0.355  0.00  0.00    +0.020 A 
ATOM     25  C   LIG    1        3.632   3.368  -0.014  0.00  0.00    +0.020 A 
ATOM     26  C   LIG    1        3.571   2.031   0.334  0.00  0.00    +0.020 A 
ATOM     27  C   LIG    1        2.352   1.370   0.343  0.00  0.00    +0.050 A 
ATOM     28  O   LIG    1        2.308   0.054   0.685  0.00  0.00    -0.300 OA
ENDBRANCH  18  19
ENDBRANCH   9  18
TORSDOF 3
