REMARK  Name = ZINCpe000015mdj9.0
REMARK                            x       y       z     vdW  Elec       q    Type
REMARK                         _______ _______ _______ _____ _____    ______ ____
ROOT
ATOM      1  CA  LIG    1        6.660  -6.495   0.222  0.00  0.00    +0.260 C 
ATOM      2  N   LIG    1        5.420  -7.226   0.445  0.00  0.00    -0.700 N 
ATOM      3  H   LIG    1        4.611  -6.910   0.014  0.00  0.00    +0.420 HD
ATOM      4  C   LIG    1        5.350  -8.315   1.218  0.00  0.00    +0.530 C 
ATOM      5  CA  LIG    1        6.542  -8.884   1.927  0.00  0.00    +0.330 C 
ATOM      6  N   LIG    1        7.785  -8.424   1.323  0.00  0.00    -0.700 N 
ATOM      7  H   LIG    1        8.597  -8.927   1.493  0.00  0.00    +0.420 HD
ATOM      8  O   LIG    1        4.277  -8.864   1.352  0.00  0.00    -0.520 OA
ATOM      9  C   LIG    1        7.856  -7.339   0.546  0.00  0.00    +0.520 C 
ATOM     10  O   LIG    1        8.932  -7.024   0.084  0.00  0.00    -0.520 OA
ENDROOT
BRANCH   5  11
ATOM     11  C   LIG    1        6.507  -8.458   3.372  0.00  0.00    +0.050 A 
ATOM     12  C   LIG    1        7.008  -7.306   3.876  0.00  0.00    -0.100 A 
ATOM     13  C   LIG    1        6.769  -7.301   5.254  0.00  0.00    +0.240 A 
ATOM     14  N   LIG    1        6.147  -8.409   5.566  0.00  0.00    -0.280 NA
ATOM     15  N   LIG    1        5.966  -9.153   4.394  0.00  0.00    -0.350 N 
ATOM     16  C   LIG    1        5.308 -10.458   4.295  0.00  0.00    +0.370 C 
ENDBRANCH   5  11
BRANCH   1  17
ATOM     17  C   LIG    1        6.672  -5.248   1.108  0.00  0.00    +0.100 C 
BRANCH  17  21
ATOM     18  C   LIG    1        3.470  -2.658  -0.034  0.00  0.00    +0.130 A 
ATOM     19  C   LIG    1        4.714  -2.533  -0.636  0.00  0.00    -0.080 A 
ATOM     20  C   LIG    1        5.748  -3.368  -0.261  0.00  0.00    +0.060 A 
ATOM     21  C   LIG    1        5.543  -4.335   0.706  0.00  0.00    -0.130 A 
ATOM     22  C   LIG    1        4.303  -4.465   1.304  0.00  0.00    +0.060 A 
ATOM     23  C   LIG    1        3.266  -3.629   0.936  0.00  0.00    -0.020 A 
BRANCH  18  24
ATOM     24  O   LIG    1        2.452  -1.835  -0.397  0.00  0.00    -0.310 OA
BRANCH  24  25
ATOM     25  C   LIG    1        2.734  -0.858  -1.401  0.00  0.00    +0.230 C 
BRANCH  25  27
ATOM     26  C   LIG    1        1.577   1.260  -1.768  0.00  0.00    +0.040 C 
ATOM     27  C   LIG    1        1.495  -0.044  -1.672  0.00  0.00    -0.040 C 
ENDBRANCH  25  27
ENDBRANCH  24  25
ENDBRANCH  18  24
ENDBRANCH  17  21
ENDBRANCH   1  17
TORSDOF 6
