REMARK  Name = ZINCrD000000BSX3.0
REMARK                            x       y       z     vdW  Elec       q    Type
REMARK                         _______ _______ _______ _____ _____    ______ ____
ROOT
ATOM      1  C   LIG    1        2.264  -6.189  -0.335  0.00  0.00    +0.590 C 
ATOM      2  N   LIG    1        1.710  -5.027   0.062  0.00  0.00    -0.700 N 
ATOM      3  H   LIG    1        0.757  -4.978   0.236  0.00  0.00    +0.410 HD
ATOM      4  O   LIG    1        3.440  -6.229  -0.642  0.00  0.00    -0.540 OA
ENDROOT
BRANCH   1  12
ATOM      5  O   LIG    1       -0.513  -6.310   0.090  0.00  0.00    -0.530 OA
ATOM      6  C   LIG    1        0.042  -7.364  -0.165  0.00  0.00    +0.540 A 
ATOM      7  N   LIG    1       -0.658  -8.516  -0.234  0.00  0.00    -0.620 N 
ATOM      8  H   LIG    1       -1.616  -8.509  -0.080  0.00  0.00    +0.420 HD
ATOM      9  C   LIG    1       -0.032  -9.672  -0.515  0.00  0.00    +0.460 A 
ATOM     10  N   LIG    1        1.257  -9.730  -0.730  0.00  0.00    -0.540 NA
ATOM     11  C   LIG    1        2.022  -8.643  -0.688  0.00  0.00    +0.440 A 
ATOM     12  C   LIG    1        1.446  -7.411  -0.396  0.00  0.00    -0.330 A 
BRANCH   9  13
ATOM     13  C   LIG    1       -0.842 -10.942  -0.585  0.00  0.00    -0.020 C 
ATOM     14  C   LIG    1       -0.262 -12.187   0.090  0.00  0.00    +0.080 C 
ATOM     15  C   LIG    1       -0.289 -12.086  -1.438  0.00  0.00    +0.100 C 
ENDBRANCH   9  13
ENDBRANCH   1  12
BRANCH   2  16
ATOM     16  C   LIG    1        2.547  -3.836   0.231  0.00  0.00    +0.230 C 
ATOM     17  C   LIG    1        2.341  -2.778  -0.865  0.00  0.00    +0.040 C 
ATOM     18  C   LIG    1        1.232  -2.188   0.022  0.00  0.00    +0.020 C 
ATOM     19  C   LIG    1        1.968  -2.811   1.220  0.00  0.00    +0.050 C 
BRANCH  18  20
ATOM     20  C   LIG    1        1.212  -0.682   0.042  0.00  0.00    -0.040 A 
ATOM     21  C   LIG    1        0.005  -0.007   0.074  0.00  0.00    +0.010 A 
ATOM     22  C   LIG    1       -0.013   1.375   0.094  0.00  0.00    +0.070 A 
ATOM     23  C   LIG    1        1.174   2.082   0.081  0.00  0.00    -0.190 A 
ATOM     24  C   LIG    1        2.380   1.408   0.047  0.00  0.00    +0.070 A 
ATOM     25  C   LIG    1        2.399   0.026   0.028  0.00  0.00    +0.020 A 
BRANCH  23  26
ATOM     26  C   LIG    1        1.154   3.589   0.101  0.00  0.00    +0.510 C 
ATOM     27  F   LIG    1       -0.007   4.048  -0.531  0.00  0.00    -0.180 F 
ATOM     28  F   LIG    1        2.277   4.080  -0.574  0.00  0.00    -0.180 F 
ATOM     29  F   LIG    1        1.173   4.038   1.426  0.00  0.00    -0.180 F 
ENDBRANCH  23  26
ENDBRANCH  18  20
ENDBRANCH   2  16
TORSDOF 5
