REMARK  Name = ZINCnE000001L3ye.1
REMARK                            x       y       z     vdW  Elec       q    Type
REMARK                         _______ _______ _______ _____ _____    ______ ____
ROOT
ATOM      1  C   LIG    1       -0.020   7.918   0.044  0.00  0.00    +0.460 C 
ATOM      2  N   LIG    1       -0.430   6.634   0.041  0.00  0.00    -0.660 NA
ATOM      3  O   LIG    1        1.165   8.175   0.035  0.00  0.00    -0.590 OA
ENDROOT
BRANCH   2   4
ATOM      4  C   LIG    1        0.503   5.608   0.027  0.00  0.00    +0.410 A 
ATOM      5  N   LIG    1        0.215   4.353   0.022  0.00  0.00    -0.550 NA
ATOM      6  C   LIG    1        1.236   3.472   0.003  0.00  0.00    +0.130 A 
ATOM      7  C   LIG    1        1.185   2.058   0.002  0.00  0.00    +0.140 A 
ATOM      8  C   LIG    1        2.348   1.321  -0.013  0.00  0.00    -0.090 A 
ATOM      9  C   LIG    1        3.583   1.952  -0.021  0.00  0.00    +0.000 A 
ATOM     10  C   LIG    1        3.654   3.327  -0.015  0.00  0.00    +0.020 A 
ATOM     11  C   LIG    1        2.488   4.091   0.000  0.00  0.00    -0.210 A 
ATOM     12  S   LIG    1        2.246   5.837   0.012  0.00  0.00    -0.020 S 
BRANCH   7  13
ATOM     13  O   LIG    1       -0.017   1.425   0.010  0.00  0.00    -0.300 OA
ATOM     14  C   LIG    1        0.002  -0.004   0.002  0.00  0.00    +0.220 C 
ENDBRANCH   7  13
ENDBRANCH   2   4
BRANCH   1  15
ATOM     15  C   LIG    1       -1.034   9.032   0.059  0.00  0.00    +0.110 C 
BRANCH  15  19
ATOM     16  C   LIG    1        0.988  12.797   0.063  0.00  0.00    +0.110 A 
ATOM     17  C   LIG    1        0.649  12.192  -1.138  0.00  0.00    -0.020 A 
ATOM     18  C   LIG    1       -0.004  10.975  -1.137  0.00  0.00    +0.060 A 
ATOM     19  C   LIG    1       -0.320  10.360   0.061  0.00  0.00    -0.080 A 
ATOM     20  C   LIG    1        0.012  10.964   1.259  0.00  0.00    +0.050 A 
ATOM     21  C   LIG    1        0.671  12.178   1.263  0.00  0.00    -0.090 A 
BRANCH  16  23
ATOM     22  C   LIG    1        1.949  14.559   1.338  0.00  0.00    +0.230 C 
ATOM     23  O   LIG    1        1.631  13.995   0.064  0.00  0.00    -0.320 OA
ENDBRANCH  16  23
ENDBRANCH  15  19
ENDBRANCH   1  15
TORSDOF 5
