REMARK  Name = ZINCqH0000036oXJ.1
REMARK                            x       y       z     vdW  Elec       q    Type
REMARK                         _______ _______ _______ _____ _____    ______ ____
ROOT
ATOM      1  C   LIG    1       -0.849   1.996   1.180  0.00  0.00    +0.220 C 
ENDROOT
BRANCH   1   7
ATOM      2  C   LIG    1       -1.862   3.909   2.445  0.00  0.00    +0.140 A 
ATOM      3  C   LIG    1       -1.903   5.252   2.793  0.00  0.00    -0.080 A 
ATOM      4  C   LIG    1       -0.983   6.131   2.256  0.00  0.00    +0.060 A 
ATOM      5  C   LIG    1       -0.022   5.675   1.373  0.00  0.00    -0.030 A 
ATOM      6  C   LIG    1        0.025   4.336   1.030  0.00  0.00    +0.050 A 
ATOM      7  C   LIG    1       -0.896   3.454   1.559  0.00  0.00    -0.150 A 
BRANCH   2   9
ATOM      8  C   LIG    1       -3.732   3.582   3.877  0.00  0.00    +0.250 C 
ATOM      9  O   LIG    1       -2.767   3.042   2.971  0.00  0.00    -0.310 OA
ENDBRANCH   2   9
ENDBRANCH   1   7
BRANCH   1  10
ATOM     10  N   LIG    1       -0.137   1.845  -0.096  0.00  0.00    -0.500 NA
ATOM     11  C   LIG    1       -0.609   2.843  -1.090  0.00  0.00    +0.160 C 
ATOM     12  C   LIG    1        0.551   2.897  -2.116  0.00  0.00    +0.030 C 
ATOM     13  C   LIG    1        1.807   2.762  -1.226  0.00  0.00    +0.010 C 
ATOM     14  C   LIG    1        1.311   2.097   0.072  0.00  0.00    +0.160 C 
ENDBRANCH   1  10
BRANCH   1  15
ATOM     15  C   LIG    1       -0.117   1.209   2.268  0.00  0.00    +0.300 C 
BRANCH  15  16
ATOM     16  N   LIG    1       -0.034  -0.201   1.880  0.00  0.00    -0.730 N 
ATOM     17  H   LIG    1       -0.479  -0.509   1.075  0.00  0.00    +0.410 HD
ATOM     18  C   LIG    1        0.660  -1.070   2.641  0.00  0.00    +0.710 C 
ATOM     19  N   LIG    1        0.736  -2.367   2.284  0.00  0.00    -0.680 N 
ATOM     20  H   LIG    1        0.342  -2.664   1.449  0.00  0.00    +0.410 HD
ATOM     21  O   LIG    1        1.218  -0.684   3.650  0.00  0.00    -0.570 OA
BRANCH  19  22
ATOM     22  C   LIG    1        1.383  -3.287   3.119  0.00  0.00    +0.140 A 
ATOM     23  C   LIG    1        1.357  -3.114   4.496  0.00  0.00    +0.050 A 
ATOM     24  C   LIG    1        1.996  -4.023   5.317  0.00  0.00    +0.020 A 
ATOM     25  C   LIG    1        2.661  -5.105   4.770  0.00  0.00    +0.020 A 
ATOM     26  C   LIG    1        2.689  -5.281   3.399  0.00  0.00    +0.010 A 
ATOM     27  C   LIG    1        2.047  -4.379   2.571  0.00  0.00    +0.070 A 
ATOM     28  F   LIG    1        2.069  -4.555   1.232  0.00  0.00    -0.140 F 
ENDBRANCH  19  22
ENDBRANCH  15  16
ENDBRANCH   1  15
TORSDOF 6
