REMARK  Name = ZINCqH00000365R0.0
REMARK                            x       y       z     vdW  Elec       q    Type
REMARK                         _______ _______ _______ _____ _____    ______ ____
ROOT
ATOM      1  C   LIG    1       -1.181  -0.877   0.015  0.00  0.00    +0.290 C 
ATOM      2  C   LIG    1       -0.675  -2.334  -0.030  0.00  0.00    +0.050 C 
ATOM      3  C   LIG    1        0.750  -2.192  -0.628  0.00  0.00    +0.040 C 
ATOM      4  C   LIG    1        1.212  -0.847  -0.013  0.00  0.00    +0.240 C 
ATOM      5  N   LIG    1        0.002  -0.004   0.002  0.00  0.00    -0.620 N 
ATOM      6  C   LIG    1       -0.016   1.344   0.009  0.00  0.00    +0.530 C 
ATOM      7  O   LIG    1       -1.075   1.936   0.018  0.00  0.00    -0.500 OA
ENDROOT
BRANCH   1  11
ATOM      8  C   LIG    1       -3.435  -0.220   3.589  0.00  0.00    +0.170 A 
ATOM      9  C   LIG    1       -2.109   0.183   3.517  0.00  0.00    -0.110 A 
ATOM     10  C   LIG    1       -1.383  -0.031   2.360  0.00  0.00    +0.100 A 
ATOM     11  C   LIG    1       -1.975  -0.646   1.274  0.00  0.00    -0.150 A 
ATOM     12  C   LIG    1       -3.303  -1.046   1.340  0.00  0.00    +0.180 A 
ATOM     13  C   LIG    1       -4.031  -0.837   2.500  0.00  0.00    -0.100 A 
BRANCH   8  15
ATOM     14  C   LIG    1       -3.470   0.633   5.808  0.00  0.00    +0.250 C 
ATOM     15  O   LIG    1       -4.149  -0.009   4.726  0.00  0.00    -0.320 OA
ENDBRANCH   8  15
BRANCH  12  16
ATOM     16  O   LIG    1       -3.886  -1.646   0.269  0.00  0.00    -0.310 OA
ATOM     17  C   LIG    1       -5.255  -2.031   0.408  0.00  0.00    +0.240 C 
ENDBRANCH  12  16
ENDBRANCH   1  11
BRANCH   6  18
ATOM     18  C   LIG    1        1.278   2.115   0.001  0.00  0.00    +0.230 C 
BRANCH  18  19
ATOM     19  O   LIG    1        0.998   3.516   0.011  0.00  0.00    -0.290 OA
BRANCH  19  20
ATOM     20  C   LIG    1        2.065   4.358   0.006  0.00  0.00    +0.120 A 
ATOM     21  C   LIG    1        3.354   3.847  -0.004  0.00  0.00    -0.080 A 
ATOM     22  C   LIG    1        4.436   4.706  -0.016  0.00  0.00    +0.040 A 
ATOM     23  C   LIG    1        4.236   6.073  -0.006  0.00  0.00    -0.030 A 
ATOM     24  C   LIG    1        2.951   6.586   0.009  0.00  0.00    +0.050 A 
ATOM     25  C   LIG    1        1.866   5.731   0.015  0.00  0.00    -0.110 A 
ATOM     26  C   LIG    1        0.466   6.291   0.031  0.00  0.00    +0.100 C 
ENDBRANCH  19  20
ENDBRANCH  18  19
ENDBRANCH   6  18
TORSDOF 6
