REMARK  Name = ZINCpk00000y6wzw.0
REMARK                            x       y       z     vdW  Elec       q    Type
REMARK                         _______ _______ _______ _____ _____    ______ ____
ROOT
ATOM      1  N   LIG    1        2.503   0.667   0.254  0.00  0.00    -0.480 N 
ATOM      2  C   LIG    1        3.505   1.722   0.403  0.00  0.00    +0.230 C 
ATOM      3  C   LIG    1        4.727   1.150   1.090  0.00  0.00    +0.040 C 
ATOM      4  C   LIG    1        5.731   0.660   0.033  0.00  0.00    +0.270 C 
ATOM      5  N   LIG    1        5.045  -0.008  -1.090  0.00  0.00    -0.610 N 
ATOM      6  C   LIG    1        3.937  -0.921  -0.894  0.00  0.00    +0.300 C 
ATOM      7  C   LIG    1        5.464   0.241  -2.346  0.00  0.00    +0.510 C 
ATOM      8  O   LIG    1        6.323   1.074  -2.545  0.00  0.00    -0.510 OA
ATOM      9  C   LIG    1        2.604  -0.134  -0.907  0.00  0.00    +0.190 C 
ENDROOT
BRANCH   1  14
ATOM     10  C   LIG    1       -2.581   2.908   0.839  0.00  0.00    +0.140 C 
ATOM     11  C   LIG    1       -1.232   2.254   0.679  0.00  0.00    +0.040 A 
ATOM     12  C   LIG    1       -1.138   0.874   0.578  0.00  0.00    +0.060 A 
ATOM     13  C   LIG    1        0.123   0.315   0.438  0.00  0.00    +0.020 A 
ATOM     14  C   LIG    1        1.218   1.177   0.398  0.00  0.00    +0.250 A 
ATOM     15  N   LIG    1        1.028   2.485   0.498  0.00  0.00    -0.280 NA
ATOM     16  N   LIG    1       -0.142   2.995   0.632  0.00  0.00    -0.220 NA
ENDBRANCH   1  14
BRANCH   7  17
ATOM     17  C   LIG    1        4.866  -0.515  -3.505  0.00  0.00    +0.150 C 
ATOM     18  C   LIG    1        5.451  -1.929  -3.547  0.00  0.00    +0.040 C 
BRANCH  17  19
ATOM     19  O   LIG    1        5.171   0.163  -4.725  0.00  0.00    -0.350 OA
BRANCH  19  20
ATOM     20  C   LIG    1        4.185  -0.005  -5.745  0.00  0.00    +0.190 C 
BRANCH  20  21
ATOM     21  C   LIG    1        4.613   0.760  -6.999  0.00  0.00    +0.160 C 
ATOM     22  C   LIG    1        3.602   0.518  -8.148  0.00  0.00    +0.020 C 
ATOM     23  C   LIG    1        3.820   1.796  -9.005  0.00  0.00    +0.000 C 
ATOM     24  C   LIG    1        4.132   2.862  -7.933  0.00  0.00    +0.190 C 
ATOM     25  O   LIG    1        4.576   2.175  -6.757  0.00  0.00    -0.370 OA
ENDBRANCH  20  21
ENDBRANCH  19  20
ENDBRANCH  17  19
ENDBRANCH   7  17
TORSDOF 5
