REMARK  Name = ZINCrH000004rAAk.1
REMARK                            x       y       z     vdW  Elec       q    Type
REMARK                         _______ _______ _______ _____ _____    ______ ____
ROOT
ATOM      1  N   LIG    1       -0.364   3.721   5.454  0.00  0.00    -0.740 N 
ATOM      2  H   LIG    1       -1.275   4.014   5.296  0.00  0.00    +0.390 HD
ATOM      3  C   LIG    1        0.441   4.429   6.270  0.00  0.00    +0.710 C 
ATOM      4  N   LIG    1       -0.020   5.546   6.867  0.00  0.00    -0.740 N 
ATOM      5  H   LIG    1       -0.931   5.840   6.710  0.00  0.00    +0.400 HD
ATOM      6  O   LIG    1        1.583   4.061   6.468  0.00  0.00    -0.590 OA
ENDROOT
BRANCH   4   7
ATOM      7  C   LIG    1        0.854   6.316   7.755  0.00  0.00    +0.250 C 
ATOM      8  C   LIG    1        0.800   5.725   9.166  0.00  0.00    +0.010 C 
ATOM      9  C   LIG    1        1.668   6.570  10.102  0.00  0.00    +0.170 C 
ATOM     10  N   LIG    1        1.175   7.953  10.112  0.00  0.00    -0.530 NA
ATOM     11  C   LIG    1        1.261   8.558   8.777  0.00  0.00    +0.180 C 
ATOM     12  C   LIG    1        0.382   7.772   7.802  0.00  0.00    +0.040 C 
BRANCH  10  13
ATOM     13  C   LIG    1        1.896   8.761  11.104  0.00  0.00    +0.230 C 
BRANCH  13  14
ATOM     14  C   LIG    1        1.585   8.254  12.489  0.00  0.00    -0.030 A 
ATOM     15  C   LIG    1        0.516   8.765  13.208  0.00  0.00    -0.010 A 
ATOM     16  C   LIG    1        0.258   8.271  14.473  0.00  0.00    +0.260 A 
ATOM     17  N   LIG    1        1.021   7.333  15.000  0.00  0.00    -0.490 NA
ATOM     18  C   LIG    1        2.049   6.828  14.347  0.00  0.00    +0.260 A 
ATOM     19  C   LIG    1        2.365   7.268  13.075  0.00  0.00    -0.040 A 
ENDBRANCH  13  14
ENDBRANCH  10  13
ENDBRANCH   4   7
BRANCH   1  20
ATOM     20  C   LIG    1        0.137   2.507   4.804  0.00  0.00    +0.300 C 
ATOM     21  C   LIG    1       -0.023   1.317   5.753  0.00  0.00    +0.040 C 
BRANCH  20  26
ATOM     22  C   LIG    1       -2.866   1.540  -0.037  0.00  0.00    +0.090 C 
ATOM     23  C   LIG    1       -2.083   1.789   1.226  0.00  0.00    -0.090 A 
ATOM     24  C   LIG    1       -2.731   2.230   2.365  0.00  0.00    +0.010 A 
ATOM     25  C   LIG    1       -2.012   2.464   3.522  0.00  0.00    +0.000 A 
ATOM     26  C   LIG    1       -0.646   2.252   3.542  0.00  0.00    -0.090 A 
ATOM     27  C   LIG    1        0.001   1.806   2.405  0.00  0.00    +0.020 A 
ATOM     28  C   LIG    1       -0.718   1.572   1.248  0.00  0.00    -0.080 A 
ATOM     29  C   LIG    1       -0.013   1.086   0.008  0.00  0.00    +0.090 C 
ENDBRANCH  20  26
ENDBRANCH   1  20
TORSDOF 5
