REMARK  Name = ZINCpe00000O2en2.0
REMARK                            x       y       z     vdW  Elec       q    Type
REMARK                         _______ _______ _______ _____ _____    ______ ____
ROOT
ATOM      1  O   LIG    1        4.755  -0.196  -0.757  0.00  0.00    -0.510 OA
ATOM      2  C   LIG    1        4.056   0.193  -1.669  0.00  0.00    +0.530 C 
ATOM      3  N   LIG    1        2.900   0.834  -1.406  0.00  0.00    -0.720 N 
ATOM      4  H   LIG    1        2.341   1.145  -2.135  0.00  0.00    +0.400 HD
ENDROOT
BRANCH   2   5
ATOM      5  C   LIG    1        4.480  -0.040  -3.096  0.00  0.00    -0.070 C 
ATOM      6  C   LIG    1        3.453  -0.946  -3.808  0.00  0.00    +0.060 C 
ATOM      7  C   LIG    1        4.051  -2.369  -3.680  0.00  0.00    +0.020 C 
ATOM      8  C   LIG    1        5.569  -2.119  -3.859  0.00  0.00    +0.050 C 
ATOM      9  C   LIG    1        4.542   1.302  -3.852  0.00  0.00    -0.290 C 
ATOM     10  S   LIG    1        6.326   1.737  -3.773  0.00  0.00    +2.370 S 
ATOM     11  O   LIG    1        6.697   2.458  -4.940  0.00  0.00    -0.930 OA
ATOM     12  O   LIG    1        6.640   2.249  -2.485  0.00  0.00    -0.920 OA
ATOM     13  C   LIG    1        6.897  -0.004  -3.908  0.00  0.00    -0.290 C 
ATOM     14  C   LIG    1        5.819  -0.783  -3.128  0.00  0.00    +0.040 C 
ENDBRANCH   2   5
BRANCH   3  15
ATOM     15  C   LIG    1        2.487   1.061  -0.019  0.00  0.00    +0.330 C 
BRANCH  15  16
ATOM     16  C   LIG    1        1.169   1.792   0.001  0.00  0.00    -0.060 A 
ATOM     17  C   LIG    1       -0.013   1.076   0.008  0.00  0.00    +0.020 A 
ATOM     18  C   LIG    1       -1.214   1.760   0.017  0.00  0.00    +0.140 A 
ATOM     19  C   LIG    1       -1.228   3.139   0.029  0.00  0.00    -0.630 A 
ATOM     20  C   LIG    1       -0.056   3.873   0.028  0.00  0.00    -0.040 A 
ATOM     21  C   LIG    1       -0.221   5.373   0.059  0.00  0.00    +0.130 C 
ATOM     22  C   LIG    1       -1.629   5.780  -0.420  0.00  0.00    -0.270 C 
ATOM     23  S   LIG    1       -2.586   4.283   0.037  0.00  0.00    +2.470 S 
ATOM     24  O   LIG    1       -3.028   4.338   1.386  0.00  0.00    -0.920 OA
ATOM     25  O   LIG    1       -3.439   3.866  -1.020  0.00  0.00    -0.930 OA
ATOM     26  C   LIG    1        1.151   3.168   0.011  0.00  0.00    +0.030 A 
ENDBRANCH  15  16
ENDBRANCH   3  15
TORSDOF 3
