REMARK  Name = ZINCpk000000oDW4.0
REMARK                            x       y       z     vdW  Elec       q    Type
REMARK                         _______ _______ _______ _____ _____    ______ ____
ROOT
ATOM      1  N   LIG    1       -2.962   5.284  -2.614  0.00  0.00    -0.740 N 
ATOM      2  H   LIG    1       -2.591   6.181  -2.600  0.00  0.00    +0.400 HD
ATOM      3  C   LIG    1       -2.349   4.291  -1.940  0.00  0.00    +0.700 C 
ATOM      4  N   LIG    1       -1.220   4.543  -1.248  0.00  0.00    -0.670 N 
ATOM      5  H   LIG    1       -0.886   5.451  -1.179  0.00  0.00    +0.420 HD
ATOM      6  O   LIG    1       -2.813   3.168  -1.957  0.00  0.00    -0.570 OA
ENDROOT
BRANCH   4   7
ATOM      7  C   LIG    1       -0.528   3.493  -0.628  0.00  0.00    +0.150 A 
ATOM      8  C   LIG    1       -0.694   2.186  -1.065  0.00  0.00    +0.080 A 
ATOM      9  C   LIG    1        0.008   1.178  -0.416  0.00  0.00    -0.010 A 
ATOM     10  C   LIG    1        0.851   1.503   0.627  0.00  0.00    +0.250 A 
ATOM     11  N   LIG    1        0.995   2.756   1.019  0.00  0.00    -0.490 NA
ATOM     12  C   LIG    1        0.343   3.747   0.434  0.00  0.00    +0.250 A 
BRANCH  12  13
ATOM     13  N   LIG    1        0.526   5.053   0.880  0.00  0.00    -0.470 N 
ATOM     14  C   LIG    1       -0.287   5.319   2.094  0.00  0.00    +0.180 C 
ATOM     15  C   LIG    1        0.412   6.548   2.727  0.00  0.00    +0.040 C 
ATOM     16  C   LIG    1        1.909   6.268   2.463  0.00  0.00    +0.010 C 
ATOM     17  C   LIG    1        1.932   5.285   1.278  0.00  0.00    +0.190 C 
ENDBRANCH  12  13
ENDBRANCH   4   7
BRANCH   1  18
ATOM     18  C   LIG    1       -4.189   5.010  -3.366  0.00  0.00    +0.280 C 
BRANCH  18  19
ATOM     19  C   LIG    1       -4.677   6.298  -4.032  0.00  0.00    +0.000 C 
BRANCH  19  20
ATOM     20  C   LIG    1       -5.958   6.012  -4.818  0.00  0.00    +0.300 C 
BRANCH  20  21
ATOM     21  N   LIG    1       -6.426   7.245  -5.456  0.00  0.00    -1.000 NA
BRANCH  21  22
ATOM     22  S   LIG    1       -6.008   7.575  -7.024  0.00  0.00    +2.610 S 
ATOM     23  O   LIG    1       -4.839   6.799  -7.247  0.00  0.00    -0.950 OA
ATOM     24  O   LIG    1       -5.968   8.994  -7.085  0.00  0.00    -0.950 OA
ATOM     25  C   LIG    1       -7.393   6.935  -8.006  0.00  0.00    -0.280 C 
ENDBRANCH  21  22
BRANCH  21  27
ATOM     26  C   LIG    1       -6.370   9.121  -3.889  0.00  0.00    +0.020 C 
ATOM     27  C   LIG    1       -7.262   8.186  -4.707  0.00  0.00    +0.280 C 
ENDBRANCH  21  27
ENDBRANCH  20  21
ENDBRANCH  19  20
ENDBRANCH  18  19
ENDBRANCH   1  18
TORSDOF 8
