REMARK  Name = ZINCpe000000WBij.0
REMARK                            x       y       z     vdW  Elec       q    Type
REMARK                         _______ _______ _______ _____ _____    ______ ____
ROOT
ATOM      1  N   LIG    1       -4.745   4.866   8.469  0.00  0.00    -0.480 N 
ATOM      2  C   LIG    1       -5.205   3.474   8.557  0.00  0.00    +0.220 C 
ATOM      3  C   LIG    1       -4.276   2.579   7.733  0.00  0.00    +0.190 C 
ATOM      4  N   LIG    1       -4.266   3.040   6.338  0.00  0.00    -0.520 NA
ATOM      5  C   LIG    1       -3.805   4.433   6.250  0.00  0.00    +0.190 C 
ATOM      6  C   LIG    1       -4.734   5.328   7.074  0.00  0.00    +0.220 C 
ENDROOT
BRANCH   1  11
ATOM      7  C   LIG    1       -6.031   7.880  10.113  0.00  0.00    +0.190 A 
ATOM      8  C   LIG    1       -7.075   7.300  10.833  0.00  0.00    -0.150 A 
ATOM      9  C   LIG    1       -7.291   5.943  10.732  0.00  0.00    +0.320 A 
ATOM     10  N   LIG    1       -6.526   5.189   9.965  0.00  0.00    -0.540 NA
ATOM     11  C   LIG    1       -5.524   5.700   9.264  0.00  0.00    +0.350 A 
ATOM     12  C   LIG    1       -5.240   7.058   9.319  0.00  0.00    -0.080 A 
BRANCH   7  14
ATOM     13  C   LIG    1       -6.651   9.981  11.034  0.00  0.00    +0.250 C 
ATOM     14  O   LIG    1       -5.791   9.214  10.189  0.00  0.00    -0.310 OA
ENDBRANCH   7  14
ENDBRANCH   1  11
BRANCH   4  15
ATOM     15  C   LIG    1       -3.442   2.159   5.498  0.00  0.00    +0.180 C 
ATOM     16  C   LIG    1       -1.982   2.247   5.946  0.00  0.00    +0.020 C 
BRANCH  15  17
ATOM     17  C   LIG    1       -3.554   2.590   4.059  0.00  0.00    +0.520 C 
ATOM     18  N   LIG    1       -2.880   1.922   3.102  0.00  0.00    -0.730 N 
ATOM     19  H   LIG    1       -2.322   1.165   3.340  0.00  0.00    +0.400 HD
ATOM     20  O   LIG    1       -4.250   3.537   3.761  0.00  0.00    -0.520 OA
BRANCH  18  21
ATOM     21  C   LIG    1       -2.988   2.341   1.702  0.00  0.00    +0.290 C 
BRANCH  21  22
ATOM     22  C   LIG    1       -2.131   1.423   0.827  0.00  0.00    +0.140 C 
ATOM     23  C   LIG    1       -2.230   1.847  -0.655  0.00  0.00    +0.010 C 
ATOM     24  C   LIG    1       -0.804   1.620  -1.206  0.00  0.00    +0.000 C 
ATOM     25  C   LIG    1       -0.013   1.086   0.008  0.00  0.00    +0.190 C 
ATOM     26  O   LIG    1       -0.731   1.573   1.163  0.00  0.00    -0.370 OA
ENDBRANCH  21  22
ENDBRANCH  18  21
ENDBRANCH  15  17
ENDBRANCH   4  15
TORSDOF 6
