REMARK  Name = ZINCrg00001JduPu.0
REMARK                            x       y       z     vdW  Elec       q    Type
REMARK                         _______ _______ _______ _____ _____    ______ ____
ROOT
ATOM      1  C   LIG    1       -8.724  -0.443   0.039  0.00  0.00    +0.270 C 
ATOM      2  C   LIG    1       -8.886  -1.787  -0.070  0.00  0.00    -0.280 C 
ATOM      3  S   LIG    1       -7.628  -3.039  -0.104  0.00  0.00    +0.120 S 
ATOM      4  C   LIG    1       -8.772  -4.383  -0.261  0.00  0.00    +0.250 C 
ATOM      5  N   LIG    1       -9.999  -3.850  -0.279  0.00  0.00    -0.510 N 
ATOM      6  S   LIG    1       -8.382  -6.047  -0.368  0.00  0.00    -0.360 S 
ATOM      7  C   LIG    1      -10.141  -2.539  -0.181  0.00  0.00    +0.550 C 
ATOM      8  O   LIG    1      -11.231  -1.996  -0.187  0.00  0.00    -0.460 OA
ENDROOT
BRANCH   1  12
ATOM      9  C   LIG    1       -4.838   1.245  -0.131  0.00  0.00    +0.160 A 
ATOM     10  C   LIG    1       -5.875   1.952   0.467  0.00  0.00    -0.080 A 
ATOM     11  C   LIG    1       -7.140   1.411   0.520  0.00  0.00    +0.110 A 
ATOM     12  C   LIG    1       -7.378   0.141  -0.020  0.00  0.00    -0.150 A 
ATOM     13  C   LIG    1       -6.329  -0.569  -0.616  0.00  0.00    +0.090 A 
ATOM     14  C   LIG    1       -5.069  -0.016  -0.669  0.00  0.00    +0.010 A 
BRANCH   9  15
ATOM     15  O   LIG    1       -3.594   1.785  -0.185  0.00  0.00    -0.280 OA
BRANCH  15  16
ATOM     16  C   LIG    1       -3.425   3.084   0.387  0.00  0.00    +0.240 C 
BRANCH  16  20
ATOM     17  N   LIG    1       -1.595   4.718   0.704  0.00  0.00    -0.850 N 
ATOM     18  H   LIG    1       -0.670   4.995   0.610  0.00  0.00    +0.410 HD
ATOM     19  H   LIG    1       -2.235   5.303   1.139  0.00  0.00    +0.400 HD
ATOM     20  C   LIG    1       -1.990   3.517   0.235  0.00  0.00    +0.520 C 
ATOM     21  O   LIG    1       -1.190   2.786  -0.309  0.00  0.00    -0.510 OA
ENDBRANCH  16  20
ENDBRANCH  15  16
ENDBRANCH   9  15
ENDBRANCH   1  12
BRANCH   5  22
ATOM     22  C   LIG    1      -11.177  -4.713  -0.401  0.00  0.00    +0.320 C 
BRANCH  22  23
ATOM     23  C   LIG    1      -11.656  -5.121   0.994  0.00  0.00    +0.180 C 
BRANCH  23  24
ATOM     24  N   LIG    1      -12.837  -5.986   0.872  0.00  0.00    -0.530 NA
ATOM     25  C   LIG    1      -13.980  -5.243   0.320  0.00  0.00    +0.150 C 
ATOM     26  C   LIG    1      -15.168  -6.194   0.154  0.00  0.00    +0.220 C 
ATOM     27  O   LIG    1      -15.471  -6.794   1.416  0.00  0.00    -0.380 OA
ATOM     28  C   LIG    1      -14.381  -7.526   1.982  0.00  0.00    +0.220 C 
ATOM     29  C   LIG    1      -13.185  -6.589   2.167  0.00  0.00    +0.150 C 
ENDBRANCH  23  24
ENDBRANCH  22  23
ENDBRANCH   5  22
TORSDOF 7
