REMARK  Name = ZINCrg000009KbUV.0
REMARK                            x       y       z     vdW  Elec       q    Type
REMARK                         _______ _______ _______ _____ _____    ______ ____
ROOT
ATOM      1  C   LIG    1       -3.909   2.137   2.633  0.00  0.00    +0.560 C 
ATOM      2  N   LIG    1       -2.595   1.885   2.469  0.00  0.00    -0.610 N 
ATOM      3  C   LIG    1       -1.680   1.903   3.619  0.00  0.00    +0.270 C 
ATOM      4  C   LIG    1       -0.540   2.885   3.322  0.00  0.00    +0.270 C 
ATOM      5  N   LIG    1        0.003   2.587   1.990  0.00  0.00    -0.610 N 
ATOM      6  C   LIG    1       -0.912   2.569   0.840  0.00  0.00    +0.210 C 
ATOM      7  C   LIG    1       -0.156   2.116  -0.411  0.00  0.00    +0.060 C 
ATOM      8  C   LIG    1        1.317   2.334   1.825  0.00  0.00    +0.490 C 
ATOM      9  O   LIG    1        1.764   2.152   0.713  0.00  0.00    -0.520 OA
ATOM     10  C   LIG    1       -2.052   1.587   1.136  0.00  0.00    +0.290 C 
ATOM     11  O   LIG    1       -4.656   2.118   1.675  0.00  0.00    -0.530 OA
ENDROOT
BRANCH   1  15
ATOM     12  C   LIG    1       -5.437   3.000   6.501  0.00  0.00    -0.080 A 
ATOM     13  C   LIG    1       -6.021   3.574   5.386  0.00  0.00    +0.030 A 
ATOM     14  C   LIG    1       -5.530   3.298   4.127  0.00  0.00    +0.080 A 
ATOM     15  C   LIG    1       -4.440   2.438   3.980  0.00  0.00    -0.120 A 
ATOM     16  C   LIG    1       -3.859   1.858   5.108  0.00  0.00    +0.040 A 
ATOM     17  C   LIG    1       -4.357   2.147   6.362  0.00  0.00    +0.030 A 
BRANCH  12  18
ATOM     18  C   LIG    1       -5.979   3.307   7.874  0.00  0.00    +0.320 C 
BRANCH  18  21
ATOM     19  C   LIG    1       -8.714   1.408   9.761  0.00  0.00    +0.090 C 
ATOM     20  C   LIG    1       -7.647   2.410   9.407  0.00  0.00    +0.510 C 
ATOM     21  N   LIG    1       -7.017   2.332   8.218  0.00  0.00    -0.730 N 
ATOM     22  H   LIG    1       -7.250   1.631   7.590  0.00  0.00    +0.400 HD
ATOM     23  O   LIG    1       -7.355   3.288  10.192  0.00  0.00    -0.540 OA
ENDBRANCH  18  21
ENDBRANCH  12  18
ENDBRANCH   1  15
BRANCH   8  24
ATOM     24  C   LIG    1        2.229   2.278   3.023  0.00  0.00    +0.210 C 
BRANCH  24  25
ATOM     25  C   LIG    1        2.297   3.659   3.678  0.00  0.00    -0.040 C 
ATOM     26  C   LIG    1        2.839   4.675   2.671  0.00  0.00    +0.030 C 
ATOM     27  C   LIG    1        3.223   3.603   4.894  0.00  0.00    +0.050 C 
ENDBRANCH  24  25
BRANCH  24  28
ATOM     28  O   LIG    1        3.538   1.884   2.607  0.00  0.00    -0.530 OA
ATOM     29  H   LIG    1        3.945   2.484   1.966  0.00  0.00    +0.380 HD
ENDBRANCH  24  28
ENDBRANCH   8  24
TORSDOF 6
