REMARK  Name = ZINCrH000004tYP5.0
REMARK                            x       y       z     vdW  Elec       q    Type
REMARK                         _______ _______ _______ _____ _____    ______ ____
ROOT
ATOM      1  O   LIG    1        3.642   6.446   0.971  0.00  0.00    -0.500 OA
ATOM      2  C   LIG    1        2.845   5.574   0.699  0.00  0.00    +0.520 C 
ATOM      3  N   LIG    1        2.093   5.020   1.671  0.00  0.00    -0.670 N 
ATOM      4  H   LIG    1        1.412   4.368   1.446  0.00  0.00    +0.420 HD
ENDROOT
BRANCH   3   5
ATOM      5  C   LIG    1        2.297   5.387   3.008  0.00  0.00    +0.150 A 
ATOM      6  C   LIG    1        2.141   4.447   4.018  0.00  0.00    +0.010 A 
ATOM      7  C   LIG    1        2.348   4.807   5.334  0.00  0.00    +0.040 A 
ATOM      8  C   LIG    1        2.700   6.112   5.650  0.00  0.00    +0.060 A 
ATOM      9  C   LIG    1        2.850   7.053   4.642  0.00  0.00    +0.030 A 
ATOM     10  C   LIG    1        2.649   6.692   3.324  0.00  0.00    +0.040 A 
BRANCH   8  11
ATOM     11  O   LIG    1        2.898   6.467   6.947  0.00  0.00    -0.250 OA
BRANCH  11  12
ATOM     12  C   LIG    1        1.931   7.194   7.564  0.00  0.00    +0.140 A 
ATOM     13  C   LIG    1        2.042   7.495   8.914  0.00  0.00    +0.000 A 
ATOM     14  C   LIG    1        1.058   8.235   9.540  0.00  0.00    +0.070 A 
ATOM     15  C   LIG    1       -0.039   8.676   8.822  0.00  0.00    +0.000 A 
ATOM     16  C   LIG    1       -0.153   8.377   7.476  0.00  0.00    +0.000 A 
ATOM     17 CL   LIG    1       -1.532   8.933   6.578  0.00  0.00    -0.060 Cl
ATOM     18  C   LIG    1        0.832   7.642   6.844  0.00  0.00    -0.050 A 
ENDBRANCH  11  12
ENDBRANCH   8  11
ENDBRANCH   3   5
BRANCH   2  19
ATOM     19  C   LIG    1        2.694   5.108  -0.727  0.00  0.00    +0.220 C 
BRANCH  19  20
ATOM     20  C   LIG    1        3.640   5.880  -1.610  0.00  0.00    +0.290 A 
ATOM     21  N   LIG    1        3.359   7.009  -2.215  0.00  0.00    -0.320 NA
ATOM     22  N   LIG    1        4.503   7.389  -2.929  0.00  0.00    -0.320 N 
ATOM     23  C   LIG    1        4.796   8.450  -3.727  0.00  0.00    +0.350 A 
ATOM     24  C   LIG    1        6.029   8.531  -4.288  0.00  0.00    -0.040 A 
ATOM     25  C   LIG    1        6.966   7.523  -4.030  0.00  0.00    +0.400 A 
ATOM     26  N   LIG    1        6.653   6.510  -3.255  0.00  0.00    -0.450 NA
ATOM     27  C   LIG    1        5.440   6.421  -2.697  0.00  0.00    +0.450 A 
ATOM     28  N   LIG    1        4.885   5.521  -1.894  0.00  0.00    -0.510 NA
ENDBRANCH  19  20
ENDBRANCH   2  19
TORSDOF 5
