REMARK  Name = ZINCpk000005iayQ.0
REMARK                            x       y       z     vdW  Elec       q    Type
REMARK                         _______ _______ _______ _____ _____    ______ ____
ROOT
ATOM      1  C   LIG    1       -2.177  -0.720   1.387  0.00  0.00    +0.420 A 
ATOM      2  N   LIG    1       -3.451  -0.896   1.116  0.00  0.00    -0.350 NA
ATOM      3  N   LIG    1       -3.619  -1.107  -0.140  0.00  0.00    -0.030 NA
ATOM      4  N   LIG    1       -2.487  -1.076  -0.754  0.00  0.00    -0.080 NA
ATOM      5  N   LIG    1       -1.504  -0.820   0.218  0.00  0.00    -0.380 N 
ENDROOT
BRANCH   1   6
ATOM      6  N   LIG    1       -1.628  -0.476   2.634  0.00  0.00    -0.450 N 
BRANCH   6   7
ATOM      7  C   LIG    1       -2.568  -0.836   3.703  0.00  0.00    +0.240 C 
BRANCH   7   8
ATOM      8  C   LIG    1       -1.887  -0.661   5.062  0.00  0.00    +0.050 C 
BRANCH   8   9
ATOM      9  C   LIG    1       -2.821  -1.157   6.168  0.00  0.00    +0.170 C 
BRANCH   9  11
ATOM     10  C   LIG    1       -2.975  -1.430   8.544  0.00  0.00    +0.200 C 
ATOM     11  O   LIG    1       -2.184  -0.994   7.437  0.00  0.00    -0.390 OA
ENDBRANCH   9  11
ENDBRANCH   8   9
ENDBRANCH   7   8
ENDBRANCH   6   7
BRANCH   6  12
ATOM     12  C   LIG    1       -1.202   0.924   2.756  0.00  0.00    +0.270 C 
BRANCH  12  13
ATOM     13  C   LIG    1       -2.373   1.846   2.410  0.00  0.00    +0.140 C 
BRANCH  13  14
ATOM     14  O   LIG    1       -3.390   1.718   3.406  0.00  0.00    -0.380 OA
ATOM     15  C   LIG    1       -4.535   2.542   3.177  0.00  0.00    +0.200 C 
ENDBRANCH  13  14
ENDBRANCH  12  13
ENDBRANCH   6  12
ENDBRANCH   1   6
BRANCH   5  16
ATOM     16  C   LIG    1       -0.059  -0.693   0.010  0.00  0.00    +0.350 C 
BRANCH  16  17
ATOM     17  C   LIG    1        0.267   0.728  -0.454  0.00  0.00    +0.080 C 
BRANCH  17  18
ATOM     18  C   LIG    1        1.760   0.883  -0.587  0.00  0.00    -0.130 A 
ATOM     19  C   LIG    1        2.508   1.317   0.492  0.00  0.00    +0.060 A 
ATOM     20  C   LIG    1        3.877   1.454   0.374  0.00  0.00    -0.080 A 
ATOM     21  C   LIG    1        4.501   1.167  -0.831  0.00  0.00    +0.130 A 
ATOM     22  C   LIG    1        3.748   0.738  -1.914  0.00  0.00    -0.020 A 
ATOM     23  C   LIG    1        2.379   0.596  -1.790  0.00  0.00    +0.060 A 
BRANCH  21  24
ATOM     24  O   LIG    1        5.847   1.308  -0.951  0.00  0.00    -0.320 OA
ATOM     25  C   LIG    1        6.559   1.755   0.205  0.00  0.00    +0.250 C 
ENDBRANCH  21  24
ENDBRANCH  17  18
ENDBRANCH  16  17
ENDBRANCH   5  16
TORSDOF 12
