REMARK  Name = ZINCb70000002qDL.0
REMARK                            x       y       z     vdW  Elec       q    Type
REMARK                         _______ _______ _______ _____ _____    ______ ____
ROOT
ATOM      1  C   LIG    1       -0.013   1.086   0.008  0.00  0.00    +0.110 C 
ATOM      2  C   LIG    1       -0.729   1.579   1.267  0.00  0.00    +0.160 C 
ATOM      3  C   LIG    1       -0.745   3.110   1.279  0.00  0.00    +0.240 C 
ATOM      4  N   LIG    1       -1.383   3.580   2.516  0.00  0.00    -0.500 N 
ATOM      5  C   LIG    1       -0.627   3.088   3.675  0.00  0.00    +0.110 C 
ATOM      6  C   LIG    1        0.808   3.614   3.608  0.00  0.00    +0.250 C 
ATOM      7  O   LIG    1        1.560   3.085   4.702  0.00  0.00    -0.350 OA
ATOM      8  C   LIG    1        1.656   1.659   4.710  0.00  0.00    +0.240 C 
ATOM      9  C   LIG    1        0.254   1.056   4.824  0.00  0.00    +0.060 C 
ATOM     10  C   LIG    1       -0.606   1.557   3.659  0.00  0.00    +0.170 C 
ATOM     11  H   LIG    1       -1.396   4.588   2.526  0.00  0.00    +0.440 HD
ATOM     12  H   LIG    1       -2.329   3.231   2.559  0.00  0.00    +0.430 HD
ATOM     13  O   LIG    1       -0.038   1.106   2.426  0.00  0.00    -0.350 OA
ENDROOT
TORSDOF 0
