REMARK  Name = ZINCqH0000033K23.0
REMARK                            x       y       z     vdW  Elec       q    Type
REMARK                         _______ _______ _______ _____ _____    ______ ____
ROOT
ATOM      1  N   LIG    1       -0.922   1.701  -5.936  0.00  0.00    -0.660 N 
ATOM      2  H   LIG    1       -0.803   1.200  -6.758  0.00  0.00    +0.420 HD
ATOM      3  C   LIG    1       -1.681   2.815  -5.929  0.00  0.00    +0.510 C 
ATOM      4  O   LIG    1       -1.749   3.496  -4.928  0.00  0.00    -0.490 OA
ENDROOT
BRANCH   1   9
ATOM      5  C   LIG    1       -0.219   1.192  -2.357  0.00  0.00    +0.120 A 
ATOM      6  C   LIG    1        0.921   0.405  -2.422  0.00  0.00    -0.060 A 
ATOM      7  C   LIG    1        1.449   0.048  -3.649  0.00  0.00    -0.010 A 
ATOM      8  C   LIG    1        0.841   0.476  -4.817  0.00  0.00    +0.070 A 
ATOM      9  C   LIG    1       -0.304   1.267  -4.755  0.00  0.00    +0.160 A 
ATOM     10  C   LIG    1       -0.835   1.619  -3.524  0.00  0.00    +0.030 A 
BRANCH   5  11
ATOM     11  O   LIG    1       -0.736   1.541  -1.149  0.00  0.00    -0.310 OA
BRANCH  11  13
ATOM     12  C   LIG    1       -0.777   1.552   1.267  0.00  0.00    +0.070 C 
ATOM     13  C   LIG    1       -0.054   1.061   0.012  0.00  0.00    +0.170 C 
ENDBRANCH  11  13
ENDBRANCH   5  11
BRANCH   8  14
ATOM     14  O   LIG    1        1.361   0.124  -6.024  0.00  0.00    -0.320 OA
BRANCH  14  15
ATOM     15  C   LIG    1        2.537  -0.689  -6.012  0.00  0.00    +0.180 C 
ATOM     16  C   LIG    1        2.971  -0.980  -7.450  0.00  0.00    +0.070 C 
ENDBRANCH  14  15
ENDBRANCH   8  14
ENDBRANCH   1   9
BRANCH   3  17
ATOM     17  C   LIG    1       -2.445   3.213  -7.165  0.00  0.00    +0.240 C 
BRANCH  17  18
ATOM     18  O   LIG    1       -3.168   4.419  -6.910  0.00  0.00    -0.280 OA
BRANCH  18  19
ATOM     19  C   LIG    1       -3.914   4.917  -7.928  0.00  0.00    +0.160 A 
ATOM     20  C   LIG    1       -3.943   4.258  -9.152  0.00  0.00    -0.090 A 
ATOM     21  C   LIG    1       -4.700   4.754 -10.183  0.00  0.00    +0.110 A 
ATOM     22  C   LIG    1       -5.435   5.933 -10.004  0.00  0.00    -0.210 A 
ATOM     23  C   LIG    1       -5.397   6.595  -8.771  0.00  0.00    +0.120 A 
ATOM     24  C   LIG    1       -4.642   6.088  -7.745  0.00  0.00    -0.020 A 
BRANCH  22  25
ATOM     25  C   LIG    1       -6.241   6.472 -11.107  0.00  0.00    +0.400 C 
ATOM     26  O   LIG    1       -6.876   7.494 -10.950  0.00  0.00    -0.460 OA
ATOM     27  C   LIG    1       -6.279   5.757 -12.432  0.00  0.00    +0.080 C 
ENDBRANCH  22  25
ENDBRANCH  18  19
ENDBRANCH  17  18
ENDBRANCH   3  17
TORSDOF 9
