REMARK  Name = ZINCrg00000fRtTt.0
REMARK                            x       y       z     vdW  Elec       q    Type
REMARK                         _______ _______ _______ _____ _____    ______ ____
ROOT
ATOM      1  N   LIG    1        2.443   1.147  -0.010  0.00  0.00    -0.360 N 
ATOM      2  N   LIG    1        3.355   2.210  -0.018  0.00  0.00    -0.300 NA
ATOM      3  C   LIG    1        2.683   3.332  -0.005  0.00  0.00    +0.140 A 
ATOM      4  C   LIG    1        1.317   3.032   0.006  0.00  0.00    -0.080 A 
ATOM      5  C   LIG    1        3.281   4.715  -0.003  0.00  0.00    +0.180 C 
ATOM      6  C   LIG    1        1.186   1.679  -0.000  0.00  0.00    +0.360 A 
ENDROOT
BRANCH   1  12
ATOM      7  C   LIG    1        2.050  -2.396  -0.011  0.00  0.00    +0.220 A 
ATOM      8  C   LIG    1        3.341  -2.837  -0.020  0.00  0.00    -0.150 A 
ATOM      9  C   LIG    1        4.382  -1.890  -0.026  0.00  0.00    +0.540 A 
ATOM     10  N   LIG    1        4.064  -0.577  -0.023  0.00  0.00    -0.620 N 
ATOM     11  H   LIG    1        4.765   0.093  -0.027  0.00  0.00    +0.430 HD
ATOM     12  C   LIG    1        2.759  -0.199  -0.013  0.00  0.00    +0.650 A 
ATOM     13  O   LIG    1        5.548  -2.247  -0.035  0.00  0.00    -0.530 OA
ATOM     14  N   LIG    1        1.791  -1.089  -0.002  0.00  0.00    -0.560 NA
BRANCH   7  16
ATOM     15  C   LIG    1        0.459  -3.630   1.437  0.00  0.00    +0.040 C 
ATOM     16  C   LIG    1        0.916  -3.388  -0.003  0.00  0.00    +0.110 C 
ENDBRANCH   7  16
ENDBRANCH   1  12
BRANCH   6  17
ATOM     17  N   LIG    1       -0.011   0.966   0.007  0.00  0.00    -0.630 N 
ATOM     18  H   LIG    1        0.002  -0.004   0.002  0.00  0.00    +0.440 HD
ATOM     19  C   LIG    1       -1.187   1.624   0.017  0.00  0.00    +0.550 C 
ATOM     20  O   LIG    1       -1.204   2.837   0.023  0.00  0.00    -0.490 OA
BRANCH  19  21
ATOM     21  C   LIG    1       -2.482   0.853   0.018  0.00  0.00    -0.010 C 
ATOM     22  C   LIG    1       -2.903   0.353  -1.373  0.00  0.00    +0.070 C 
ATOM     23  C   LIG    1       -3.641   1.694  -1.542  0.00  0.00    +0.030 C 
ATOM     24  C   LIG    1       -3.732   1.748  -0.008  0.00  0.00    +0.090 C 
BRANCH  21  25
ATOM     25  C   LIG    1       -2.526  -0.214   1.082  0.00  0.00    +0.230 A 
ATOM     26  N   LIG    1       -3.490  -0.384   1.948  0.00  0.00    -0.290 NA
ATOM     27  N   LIG    1       -3.131  -1.484   2.744  0.00  0.00    -0.480 N 
ATOM     28  H   LIG    1       -3.642  -1.862   3.477  0.00  0.00    +0.450 HD
ATOM     29  C   LIG    1       -1.937  -1.904   2.293  0.00  0.00    +0.490 A 
ATOM     30  N   LIG    1       -1.586  -1.134   1.296  0.00  0.00    -0.530 NA
ENDBRANCH  21  25
ENDBRANCH  19  21
ENDBRANCH   6  17
TORSDOF 5
