REMARK  Name = ZINCrg00000fRtTt.1
REMARK                            x       y       z     vdW  Elec       q    Type
REMARK                         _______ _______ _______ _____ _____    ______ ____
ROOT
ATOM      1  N   LIG    1        0.224  -2.616  -2.414  0.00  0.00    -0.360 N 
ATOM      2  N   LIG    1        0.264  -4.001  -2.620  0.00  0.00    -0.290 NA
ATOM      3  C   LIG    1        0.361  -4.225  -3.905  0.00  0.00    +0.140 A 
ATOM      4  C   LIG    1        0.397  -2.995  -4.570  0.00  0.00    -0.060 A 
ATOM      5  C   LIG    1        0.431  -5.582  -4.558  0.00  0.00    +0.180 C 
ATOM      6  C   LIG    1        0.311  -2.012  -3.634  0.00  0.00    +0.350 A 
ENDROOT
BRANCH   1  12
ATOM      7  C   LIG    1        0.002  -0.004   0.002  0.00  0.00    +0.200 A 
ATOM      8  C   LIG    1       -0.080  -0.693   1.176  0.00  0.00    -0.120 A 
ATOM      9  C   LIG    1       -0.060  -2.100   1.141  0.00  0.00    +0.540 A 
ATOM     10  N   LIG    1        0.041  -2.717  -0.056  0.00  0.00    -0.620 N 
ATOM     11  H   LIG    1        0.058  -3.685  -0.104  0.00  0.00    +0.430 HD
ATOM     12  C   LIG    1        0.120  -1.976  -1.193  0.00  0.00    +0.660 A 
ATOM     13  O   LIG    1       -0.131  -2.749   2.171  0.00  0.00    -0.520 OA
ATOM     14  N   LIG    1        0.095  -0.662  -1.153  0.00  0.00    -0.590 NA
BRANCH   7  16
ATOM     15  C   LIG    1        1.417   2.032  -0.001  0.00  0.00    +0.030 C 
ATOM     16  C   LIG    1       -0.018   1.503   0.010  0.00  0.00    +0.100 C 
ENDBRANCH   7  16
ENDBRANCH   1  12
BRANCH   6  17
ATOM     17  N   LIG    1        0.312  -0.640  -3.877  0.00  0.00    -0.640 N 
ATOM     18  H   LIG    1        0.247  -0.016  -3.137  0.00  0.00    +0.420 HD
ATOM     19  C   LIG    1        0.405  -0.179  -5.141  0.00  0.00    +0.550 C 
ATOM     20  O   LIG    1        0.487  -0.959  -6.066  0.00  0.00    -0.470 OA
BRANCH  19  21
ATOM     21  C   LIG    1        0.406   1.304  -5.403  0.00  0.00    -0.030 C 
ATOM     22  C   LIG    1       -0.998   1.932  -5.399  0.00  0.00    +0.060 C 
ATOM     23  C   LIG    1       -1.057   1.612  -6.905  0.00  0.00    +0.040 C 
ATOM     24  C   LIG    1        0.480   1.666  -6.896  0.00  0.00    +0.120 C 
BRANCH  21  25
ATOM     25  C   LIG    1        1.403   2.049  -4.552  0.00  0.00    +0.180 A 
ATOM     26  N   LIG    1        2.462   2.683  -4.977  0.00  0.00    -0.260 NA
ATOM     27  N   LIG    1        3.082   3.206  -3.979  0.00  0.00    -0.280 NA
ATOM     28  C   LIG    1        2.453   2.920  -2.872  0.00  0.00    +0.390 A 
ATOM     29  N   LIG    1        1.369   2.178  -3.204  0.00  0.00    -0.580 N 
ATOM     30  H   LIG    1        0.705   1.813  -2.599  0.00  0.00    +0.420 HD
ENDBRANCH  21  25
ENDBRANCH  19  21
ENDBRANCH   6  17
TORSDOF 5
