REMARK  Name = ZINCvU00000008tI.0
REMARK                            x       y       z     vdW  Elec       q    Type
REMARK                         _______ _______ _______ _____ _____    ______ ____
ROOT
ATOM      1  C   LIG    1        1.182   2.310  -6.104  0.00  0.00    +0.600 C 
ATOM      2  N   LIG    1        2.419   2.773  -6.375  0.00  0.00    -0.650 N 
ATOM      3  H   LIG    1        3.013   3.023  -5.650  0.00  0.00    +0.420 HD
ATOM      4  O   LIG    1        0.404   2.087  -7.011  0.00  0.00    -0.510 OA
ENDROOT
BRANCH   2   5
ATOM      5  C   LIG    1        2.846   2.892  -7.703  0.00  0.00    +0.140 A 
ATOM      6  C   LIG    1        2.408   1.976  -8.657  0.00  0.00    +0.040 A 
ATOM      7  C   LIG    1        2.817   2.086  -9.968  0.00  0.00    +0.040 A 
ATOM      8  C   LIG    1        3.679   3.107 -10.342  0.00  0.00    +0.040 A 
ATOM      9  N   LIG    1        4.263   3.481 -11.537  0.00  0.00    -0.600 N 
ATOM     10  H   LIG    1        4.151   3.040 -12.394  0.00  0.00    +0.420 HD
ATOM     11  C   LIG    1        5.025   4.580 -11.289  0.00  0.00    +0.300 A 
ATOM     12  N   LIG    1        4.948   4.903 -10.031  0.00  0.00    -0.490 NA
ATOM     13  C   LIG    1        4.130   4.032  -9.385  0.00  0.00    +0.070 A 
ATOM     14  C   LIG    1        3.704   3.915  -8.059  0.00  0.00    +0.040 A 
BRANCH  11  15
ATOM     15  C   LIG    1        5.840   5.316 -12.321  0.00  0.00    +0.010 C 
ATOM     16  C   LIG    1        6.603   4.308 -13.182  0.00  0.00    +0.040 C 
ATOM     17  C   LIG    1        6.834   6.244 -11.619  0.00  0.00    +0.060 C 
ATOM     18  C   LIG    1        4.909   6.144 -13.209  0.00  0.00    +0.050 C 
ENDBRANCH  11  15
ENDBRANCH   2   5
BRANCH   1  21
ATOM     19  C   LIG    1        1.090   2.050  -2.507  0.00  0.00    +0.080 A 
ATOM     20  N   LIG    1        1.583   2.301  -3.682  0.00  0.00    -0.430 NA
ATOM     21  C   LIG    1        0.774   2.074  -4.708  0.00  0.00    +0.010 A 
ATOM     22  C   LIG    1       -0.453   1.611  -4.381  0.00  0.00    -0.040 A 
ATOM     23  S   LIG    1       -0.559   1.458  -2.681  0.00  0.00    +0.250 S 
BRANCH  19  28
ATOM     24  C   LIG    1        1.846   2.094   1.182  0.00  0.00    +0.120 A 
ATOM     25  C   LIG    1        3.152   2.558   1.179  0.00  0.00    -0.040 A 
ATOM     26  C   LIG    1        3.782   2.860  -0.016  0.00  0.00    +0.060 A 
ATOM     27  C   LIG    1        3.118   2.698  -1.214  0.00  0.00    +0.040 A 
ATOM     28  C   LIG    1        1.804   2.226  -1.225  0.00  0.00    -0.010 A 
ATOM     29  C   LIG    1        1.167   1.920  -0.019  0.00  0.00    +0.080 A 
BRANCH  24  31
ATOM     30  C   LIG    1        1.988   2.006   3.555  0.00  0.00    +0.240 C 
ATOM     31  O   LIG    1        1.230   1.803   2.360  0.00  0.00    -0.300 OA
ENDBRANCH  24  31
BRANCH  29  32
ATOM     32  O   LIG    1       -0.112   1.460  -0.019  0.00  0.00    -0.320 OA
ATOM     33  C   LIG    1       -0.292   0.045  -0.096  0.00  0.00    +0.230 C 
ENDBRANCH  29  32
ENDBRANCH  19  28
ENDBRANCH   1  21
TORSDOF 6
