REMARK  Name = ZINCvU00000008tI.1
REMARK                            x       y       z     vdW  Elec       q    Type
REMARK                         _______ _______ _______ _____ _____    ______ ____
ROOT
ATOM      1  C   LIG    1        3.551   1.793  -0.123  0.00  0.00    +0.600 C 
ATOM      2  N   LIG    1        2.397   1.106  -0.015  0.00  0.00    -0.650 N 
ATOM      3  H   LIG    1        2.413   0.138   0.048  0.00  0.00    +0.420 HD
ATOM      4  O   LIG    1        3.538   3.010  -0.117  0.00  0.00    -0.510 OA
ENDROOT
BRANCH   2   5
ATOM      5  C   LIG    1        1.176   1.789   0.009  0.00  0.00    +0.170 A 
ATOM      6  C   LIG    1        1.088   3.033   0.632  0.00  0.00    +0.030 A 
ATOM      7  C   LIG    1       -0.095   3.712   0.664  0.00  0.00    +0.080 A 
ATOM      8  C   LIG    1       -1.234   3.161   0.069  0.00  0.00    +0.040 A 
ATOM      9  N   LIG    1       -2.518   3.583  -0.060  0.00  0.00    -0.480 NA
ATOM     10  C   LIG    1       -3.204   2.699  -0.724  0.00  0.00    +0.300 A 
ATOM     11  N   LIG    1       -2.412   1.642  -1.053  0.00  0.00    -0.600 N 
ATOM     12  H   LIG    1       -2.684   0.849  -1.541  0.00  0.00    +0.420 HD
ATOM     13  C   LIG    1       -1.148   1.909  -0.565  0.00  0.00    +0.070 A 
ATOM     14  C   LIG    1        0.059   1.226  -0.586  0.00  0.00    -0.010 A 
BRANCH  10  15
ATOM     15  C   LIG    1       -4.667   2.820  -1.066  0.00  0.00    +0.010 C 
ATOM     16  C   LIG    1       -4.886   2.410  -2.523  0.00  0.00    +0.030 C 
ATOM     17  C   LIG    1       -5.118   4.269  -0.870  0.00  0.00    +0.060 C 
ATOM     18  C   LIG    1       -5.483   1.905  -0.151  0.00  0.00    +0.040 C 
ENDBRANCH  10  15
ENDBRANCH   2   5
BRANCH   1  21
ATOM     19  C   LIG    1        6.091  -0.755  -0.380  0.00  0.00    +0.080 A 
ATOM     20  N   LIG    1        4.899  -0.253  -0.263  0.00  0.00    -0.430 NA
ATOM     21  C   LIG    1        4.829   1.071  -0.250  0.00  0.00    +0.010 A 
ATOM     22  C   LIG    1        6.014   1.710  -0.368  0.00  0.00    -0.040 A 
ATOM     23  S   LIG    1        7.266   0.552  -0.488  0.00  0.00    +0.250 S 
BRANCH  19  28
ATOM     24  C   LIG    1        8.030  -3.978  -0.581  0.00  0.00    +0.120 A 
ATOM     25  C   LIG    1        7.007  -4.907  -0.486  0.00  0.00    -0.040 A 
ATOM     26  C   LIG    1        5.694  -4.490  -0.357  0.00  0.00    +0.060 A 
ATOM     27  C   LIG    1        5.391  -3.145  -0.321  0.00  0.00    +0.040 A 
ATOM     28  C   LIG    1        6.412  -2.197  -0.417  0.00  0.00    -0.010 A 
ATOM     29  C   LIG    1        7.739  -2.619  -0.552  0.00  0.00    +0.080 A 
BRANCH  24  31
ATOM     30  C   LIG    1        9.544  -5.805  -0.737  0.00  0.00    +0.240 C 
ATOM     31  O   LIG    1        9.318  -4.394  -0.709  0.00  0.00    -0.300 OA
ENDBRANCH  24  31
BRANCH  29  32
ATOM     32  O   LIG    1        8.739  -1.704  -0.651  0.00  0.00    -0.320 OA
ATOM     33  C   LIG    1        9.345  -1.270   0.568  0.00  0.00    +0.230 C 
ENDBRANCH  29  32
ENDBRANCH  19  28
ENDBRANCH   1  21
TORSDOF 6
