REMARK  Name = ZINCrH000004m3YU.0
REMARK                            x       y       z     vdW  Elec       q    Type
REMARK                         _______ _______ _______ _____ _____    ______ ____
ROOT
ATOM      1  C   LIG    1        3.652   1.704  -3.318  0.00  0.00    +0.060 C 
ENDROOT
BRANCH   1   2
ATOM      2  C   LIG    1        2.280   1.084  -3.245  0.00  0.00    +0.510 C 
ATOM      3  N   LIG    1        1.297   1.702  -2.562  0.00  0.00    -0.730 N 
ATOM      4  H   LIG    1        1.472   2.546  -2.117  0.00  0.00    +0.400 HD
ATOM      5  O   LIG    1        2.061   0.028  -3.801  0.00  0.00    -0.540 OA
BRANCH   3   6
ATOM      6  C   LIG    1       -0.037   1.099  -2.490  0.00  0.00    +0.230 C 
ATOM      7  C   LIG    1       -0.844   1.500  -3.727  0.00  0.00    +0.030 C 
BRANCH   6   8
ATOM      8  C   LIG    1       -0.753   1.593  -1.232  0.00  0.00    +0.030 C 
BRANCH   8   9
ATOM      9  C   LIG    1       -0.013   1.086   0.008  0.00  0.00    +0.060 C 
BRANCH   9  10
ATOM     10  C   LIG    1       -0.718   1.572   1.248  0.00  0.00    -0.080 A 
ATOM     11  C   LIG    1       -0.360   2.779   1.819  0.00  0.00    +0.000 A 
ATOM     12  C   LIG    1       -1.010   3.227   2.953  0.00  0.00    +0.000 A 
ATOM     13  C   LIG    1       -2.012   2.463   3.523  0.00  0.00    +0.000 A 
ATOM     14  C   LIG    1       -2.366   1.254   2.955  0.00  0.00    +0.000 A 
ATOM     15  C   LIG    1       -1.719   0.808   1.818  0.00  0.00    +0.000 A 
ENDBRANCH   9  10
ENDBRANCH   8   9
ENDBRANCH   6   8
ENDBRANCH   3   6
ENDBRANCH   1   2
BRANCH   1  16
ATOM     16  C   LIG    1        4.573   0.806  -4.147  0.00  0.00    +0.090 C 
BRANCH  16  19
ATOM     17  C   LIG    1        8.155   1.688  -3.325  0.00  0.00    +0.150 A 
ATOM     18  C   LIG    1        6.892   1.121  -3.261  0.00  0.00    -0.090 A 
ATOM     19  C   LIG    1        5.945   1.427  -4.220  0.00  0.00    -0.010 A 
ATOM     20  C   LIG    1        6.255   2.295  -5.250  0.00  0.00    -0.090 A 
ATOM     21  C   LIG    1        7.514   2.872  -5.318  0.00  0.00    +0.150 A 
ATOM     22  C   LIG    1        8.469   2.567  -4.355  0.00  0.00    +0.020 A 
BRANCH  17  24
ATOM     23  C   LIG    1        8.694   0.476  -1.351  0.00  0.00    +0.240 C 
ATOM     24  O   LIG    1        9.086   1.386  -2.381  0.00  0.00    -0.300 OA
ENDBRANCH  17  24
BRANCH  21  25
ATOM     25  O   LIG    1        7.816   3.731  -6.328  0.00  0.00    -0.300 OA
ATOM     26  C   LIG    1        6.786   3.999  -7.282  0.00  0.00    +0.240 C 
ENDBRANCH  21  25
BRANCH  22  27
ATOM     27  O   LIG    1        9.708   3.126  -4.422  0.00  0.00    -0.310 OA
ATOM     28  C   LIG    1       10.701   2.415  -5.164  0.00  0.00    +0.210 C 
ENDBRANCH  22  27
ENDBRANCH  16  19
ENDBRANCH   1  16
TORSDOF 10
