REMARK  Name = ZINCkj00000kJz8U.1
REMARK                            x       y       z     vdW  Elec       q    Type
REMARK                         _______ _______ _______ _____ _____    ______ ____
ROOT
ATOM      1  C   LIG    1       -0.822   1.605  -1.251  0.00  0.00    +0.160 C 
ATOM      2  C   LIG    1       -0.017   0.966  -2.384  0.00  0.00    +0.110 C 
ENDROOT
BRANCH   1   6
ATOM      3  C   LIG    1       -5.007   1.224  -3.769  0.00  0.00    +0.110 C 
ATOM      4  C   LIG    1       -4.297   0.863  -2.463  0.00  0.00    +0.160 C 
ATOM      5  C   LIG    1       -2.881   1.444  -2.474  0.00  0.00    +0.240 C 
ATOM      6  N   LIG    1       -2.182   1.048  -1.243  0.00  0.00    -0.390 N 
ATOM      7  C   LIG    1       -2.111  -0.418  -1.172  0.00  0.00    +0.240 C 
ATOM      8  C   LIG    1       -3.529  -0.995  -1.163  0.00  0.00    +0.220 C 
ATOM      9  C   LIG    1       -4.273  -0.507   0.081  0.00  0.00    +0.040 C 
ATOM     10  H   LIG    1       -2.685   1.400  -0.442  0.00  0.00    +0.410 HD
ATOM     11  O   LIG    1       -4.222  -0.559  -2.336  0.00  0.00    -0.350 OA
ENDBRANCH   1   6
BRANCH   1  12
ATOM     12  C   LIG    1       -0.142   1.309   0.087  0.00  0.00    +0.320 C 
BRANCH  12  13
ATOM     13  N   LIG    1       -0.954   1.855   1.178  0.00  0.00    -0.750 N 
ATOM     14  H   LIG    1       -1.811   2.265   0.987  0.00  0.00    +0.390 HD
ATOM     15  C   LIG    1       -0.508   1.787   2.449  0.00  0.00    +0.570 C 
ATOM     16  O   LIG    1        0.566   1.273   2.689  0.00  0.00    -0.500 OA
BRANCH  15  17
ATOM     17  C   LIG    1       -1.328   2.339   3.552  0.00  0.00    -0.100 A 
ATOM     18  C   LIG    1       -2.565   2.940   3.297  0.00  0.00    -0.020 A 
ATOM     19  C   LIG    1       -3.299   3.437   4.356  0.00  0.00    +0.270 A 
ATOM     20  N   LIG    1       -2.844   3.360   5.590  0.00  0.00    -0.460 NA
ATOM     21  C   LIG    1       -1.682   2.806   5.874  0.00  0.00    +0.280 A 
ATOM     22  C   LIG    1       -0.885   2.279   4.876  0.00  0.00    +0.040 A 
ENDBRANCH  15  17
ENDBRANCH  12  13
ENDBRANCH   1  12
TORSDOF 4
