REMARK  Name = ZINCrg00000fSJkw.0
REMARK                            x       y       z     vdW  Elec       q    Type
REMARK                         _______ _______ _______ _____ _____    ______ ____
ROOT
ATOM      1  C   LIG    1        0.181   1.968   2.355  0.00  0.00    +0.530 C 
ATOM      2  N   LIG    1       -0.292   2.442   3.525  0.00  0.00    -0.610 N 
ATOM      3  C   LIG    1       -1.737   2.611   3.745  0.00  0.00    +0.260 C 
ATOM      4  C   LIG    1       -2.107   1.934   5.069  0.00  0.00    +0.220 C 
ATOM      5  O   LIG    1       -1.246   2.418   6.102  0.00  0.00    -0.360 OA
ATOM      6  C   LIG    1        0.137   2.118   5.901  0.00  0.00    +0.150 C 
ATOM      7  C   LIG    1        0.621   2.799   4.622  0.00  0.00    +0.280 C 
ATOM      8  O   LIG    1        1.376   1.836   2.193  0.00  0.00    -0.520 OA
ENDROOT
BRANCH   1  12
ATOM      9  O   LIG    1       -2.311   3.191  -1.566  0.00  0.00    -0.520 OA
ATOM     10  C   LIG    1       -1.585   2.591  -0.802  0.00  0.00    +0.520 C 
ATOM     11  C   LIG    1       -1.477   2.861   0.683  0.00  0.00    +0.080 C 
ATOM     12  C   LIG    1       -0.775   1.603   1.248  0.00  0.00    +0.000 C 
ATOM     13  C   LIG    1       -0.013   1.086   0.008  0.00  0.00    +0.310 C 
ATOM     14  N   LIG    1       -0.759   1.590  -1.151  0.00  0.00    -0.610 N 
BRANCH  14  15
ATOM     15  C   LIG    1       -0.621   1.069  -2.513  0.00  0.00    +0.380 C 
BRANCH  15  16
ATOM     16  C   LIG    1       -1.607  -0.051  -2.725  0.00  0.00    +0.100 A 
ATOM     17  C   LIG    1       -2.835   0.219  -3.298  0.00  0.00    -0.010 A 
ATOM     18  C   LIG    1       -3.733  -0.820  -3.492  0.00  0.00    +0.060 A 
ATOM     19  C   LIG    1       -3.364  -2.095  -3.092  0.00  0.00    -0.030 A 
ATOM     20  C   LIG    1       -2.119  -2.288  -2.522  0.00  0.00    +0.260 A 
ATOM     21  N   LIG    1       -1.289  -1.277  -2.356  0.00  0.00    -0.470 NA
ENDBRANCH  15  16
ENDBRANCH  14  15
ENDBRANCH   1  12
BRANCH   6  22
ATOM     22  C   LIG    1        0.949   2.627   7.093  0.00  0.00    +0.200 C 
BRANCH  22  23
ATOM     23  O   LIG    1        0.573   1.908   8.269  0.00  0.00    -0.380 OA
BRANCH  23  24
ATOM     24  C   LIG    1        1.277   2.309   9.446  0.00  0.00    +0.190 C 
BRANCH  24  25
ATOM     25  C   LIG    1        0.796   1.476  10.637  0.00  0.00    -0.050 C 
ATOM     26  C   LIG    1        0.094   2.215  11.778  0.00  0.00    +0.020 C 
ATOM     27  C   LIG    1        1.513   1.675  11.973  0.00  0.00    +0.030 C 
ENDBRANCH  24  25
ENDBRANCH  23  24
ENDBRANCH  22  23
ENDBRANCH   6  22
TORSDOF 7
