REMARK  Name = ZINCvU0000000HXW.0
REMARK                            x       y       z     vdW  Elec       q    Type
REMARK                         _______ _______ _______ _____ _____    ______ ____
ROOT
ATOM      1  C   LIG    1       -5.445   0.910   0.238  0.00  0.00    +0.580 C 
ATOM      2  N   LIG    1       -4.925  -0.331   0.166  0.00  0.00    -0.500 N 
ATOM      3  O   LIG    1       -4.714   1.880   0.187  0.00  0.00    -0.460 OA
ENDROOT
BRANCH   1   9
ATOM      4  C   LIG    1       -9.883  -1.074   0.372  0.00  0.00    +0.120 C 
ATOM      5  C   LIG    1       -9.016   0.156   0.444  0.00  0.00    +0.120 A 
ATOM      6  C   LIG    1       -9.603   1.396   0.636  0.00  0.00    -0.010 A 
ATOM      7  C   LIG    1       -8.801   2.525   0.701  0.00  0.00    +0.080 A 
ATOM      8  C   LIG    1       -7.430   2.370   0.571  0.00  0.00    +0.040 A 
ATOM      9  C   LIG    1       -6.908   1.092   0.380  0.00  0.00    +0.100 A 
ATOM     10  N   LIG    1       -7.712   0.038   0.318  0.00  0.00    -0.440 NA
ENDBRANCH   1   9
BRANCH   2  11
ATOM     11  C   LIG    1       -3.548  -0.505   0.140  0.00  0.00    +0.310 A 
ATOM     12  N   LIG    1       -2.670   0.448   0.185  0.00  0.00    -0.470 NA
ATOM     13  C   LIG    1       -1.393   0.094   0.145  0.00  0.00    +0.130 A 
ATOM     14  C   LIG    1       -1.165  -1.230   0.071  0.00  0.00    -0.080 A 
ATOM     15  S   LIG    1       -2.720  -2.057   0.047  0.00  0.00    +0.100 S 
BRANCH  13  16
ATOM     16  C   LIG    1       -0.293   1.088   0.185  0.00  0.00    -0.020 A 
ATOM     17  C   LIG    1       -0.583   2.449   0.261  0.00  0.00    +0.100 A 
ATOM     18  C   LIG    1        0.445   3.369   0.298  0.00  0.00    +0.020 A 
ATOM     19  C   LIG    1        1.760   2.943   0.258  0.00  0.00    +0.080 A 
ATOM     20  C   LIG    1        2.054   1.593   0.182  0.00  0.00    -0.190 A 
ATOM     21  C   LIG    1        1.034   0.664   0.145  0.00  0.00    +0.090 A 
BRANCH  20  22
ATOM     22  C   LIG    1        3.489   1.137   0.139  0.00  0.00    +0.510 C 
ATOM     23  F   LIG    1        3.595  -0.127   0.730  0.00  0.00    -0.180 F 
ATOM     24  F   LIG    1        4.289   2.047   0.838  0.00  0.00    -0.180 F 
ATOM     25  F   LIG    1        3.917   1.066  -1.191  0.00  0.00    -0.180 F 
ENDBRANCH  20  22
ENDBRANCH  13  16
ENDBRANCH   2  11
BRANCH   2  26
ATOM     26  C   LIG    1       -5.812  -1.496   0.115  0.00  0.00    +0.300 C 
BRANCH  26  27
ATOM     27  C   LIG    1       -5.998  -2.057   1.526  0.00  0.00    +0.150 C 
ATOM     28  C   LIG    1       -6.938  -3.281   1.483  0.00  0.00    +0.020 C 
ATOM     29  C   LIG    1       -7.788  -3.087   2.770  0.00  0.00    +0.010 C 
ATOM     30  C   LIG    1       -7.881  -1.541   2.832  0.00  0.00    +0.190 C 
ATOM     31  O   LIG    1       -6.608  -1.070   2.365  0.00  0.00    -0.360 OA
ENDBRANCH  26  27
ENDBRANCH   2  26
TORSDOF 6
