REMARK  Name = ZINCrD00000F5LIT.0
REMARK                            x       y       z     vdW  Elec       q    Type
REMARK                         _______ _______ _______ _____ _____    ______ ____
ROOT
ATOM      1  C   LIG    1        5.978   0.936  -0.050  0.00  0.00    +0.560 C 
ATOM      2  O   LIG    1        6.661  -0.069  -0.061  0.00  0.00    -0.480 OA
ENDROOT
BRANCH   1   8
ATOM      3  C   LIG    1        0.002  -0.004   0.002  0.00  0.00    +0.110 A 
ATOM      4  C   LIG    1       -0.017   1.388   0.010  0.00  0.00    -0.010 A 
ATOM      5  C   LIG    1        1.158   2.108   0.002  0.00  0.00    +0.070 A 
ATOM      6  C   LIG    1        2.380   1.446  -0.013  0.00  0.00    +0.050 A 
ATOM      7  O   LIG    1        3.659   1.873  -0.023  0.00  0.00    -0.170 OA
ATOM      8  C   LIG    1        4.514   0.829  -0.037  0.00  0.00    -0.020 A 
ATOM      9  C   LIG    1        3.815  -0.337  -0.037  0.00  0.00    -0.060 A 
ATOM     10  C   LIG    1        4.382  -1.733  -0.051  0.00  0.00    +0.150 C 
ATOM     11  C   LIG    1        2.402   0.038  -0.021  0.00  0.00    -0.110 A 
ATOM     12  C   LIG    1        1.205  -0.682  -0.014  0.00  0.00    +0.050 A 
BRANCH   3  13
ATOM     13  O   LIG    1       -1.167  -0.698   0.009  0.00  0.00    -0.310 OA
BRANCH  13  15
ATOM     14  C   LIG    1       -3.577  -0.881   0.032  0.00  0.00    +0.070 C 
ATOM     15  C   LIG    1       -2.375   0.066   0.025  0.00  0.00    +0.170 C 
ENDBRANCH  13  15
ENDBRANCH   3  13
ENDBRANCH   1   8
BRANCH   1  16
ATOM     16  O   LIG    1        6.565   2.151  -0.048  0.00  0.00    -0.320 OA
BRANCH  16  17
ATOM     17  C   LIG    1        8.017   2.181  -0.061  0.00  0.00    +0.270 C 
BRANCH  17  18
ATOM     18  C   LIG    1        8.489   3.612  -0.058  0.00  0.00    +0.520 C 
ATOM     19  N   LIG    1        9.809   3.886  -0.068  0.00  0.00    -0.720 N 
ATOM     20  H   LIG    1       10.454   3.162  -0.078  0.00  0.00    +0.410 HD
ATOM     21  O   LIG    1        7.682   4.517  -0.045  0.00  0.00    -0.490 OA
BRANCH  19  22
ATOM     22  C   LIG    1       10.268   5.277  -0.065  0.00  0.00    +0.290 C 
ATOM     23  C   LIG    1        9.755   5.980   1.193  0.00  0.00    +0.080 C 
BRANCH  22  24
ATOM     24  C   LIG    1       11.798   5.309  -0.079  0.00  0.00    +0.010 C 
ATOM     25  C   LIG    1       12.279   6.755   0.051  0.00  0.00    +0.050 C 
ATOM     26  C   LIG    1       12.309   4.717  -1.394  0.00  0.00    +0.030 C 
ENDBRANCH  22  24
BRANCH  22  27
ATOM     27  C   LIG    1        9.752   5.967  -1.258  0.00  0.00    +0.200 C 
ATOM     28  N   LIG    1        9.354   6.500  -2.179  0.00  0.00    -0.410 NA
ENDBRANCH  22  27
ENDBRANCH  19  22
ENDBRANCH  17  18
ENDBRANCH  16  17
ENDBRANCH   1  16
TORSDOF 9
