REMARK  Name = ZINCqH0000037Aea.0
REMARK                            x       y       z     vdW  Elec       q    Type
REMARK                         _______ _______ _______ _____ _____    ______ ____
ROOT
ATOM      1  C   LIG    1        1.720  -1.692  -0.695  0.00  0.00    +0.620 C 
ATOM      2  N   LIG    1        1.303  -0.420  -0.543  0.00  0.00    -0.600 N 
ATOM      3  C   LIG    1        2.075   0.785  -0.895  0.00  0.00    +0.260 C 
ATOM      4  C   LIG    1        1.488   1.907  -0.002  0.00  0.00    +0.040 C 
ATOM      5  C   LIG    1       -0.019   1.539   0.011  0.00  0.00    +0.050 C 
ATOM      6  C   LIG    1        0.002  -0.004   0.002  0.00  0.00    +0.240 C 
ATOM      7  O   LIG    1        0.995  -2.614  -0.368  0.00  0.00    -0.520 OA
ENDROOT
BRANCH   1  10
ATOM      8  C   LIG    1        2.936  -4.532  -1.154  0.00  0.00    +0.150 C 
ATOM      9  C   LIG    1        3.584  -3.206  -1.458  0.00  0.00    -0.020 A 
ATOM     10  C   LIG    1        3.049  -1.967  -1.255  0.00  0.00    -0.100 A 
ATOM     11  O   LIG    1        3.941  -1.034  -1.659  0.00  0.00    -0.140 OA
ATOM     12  C   LIG    1        5.040  -1.623  -2.109  0.00  0.00    +0.080 A 
ATOM     13  C   LIG    1        6.302  -1.004  -2.654  0.00  0.00    +0.160 C 
ATOM     14  C   LIG    1        7.443  -2.022  -2.567  0.00  0.00    +0.070 C 
ATOM     15  C   LIG    1        7.041  -3.344  -3.229  0.00  0.00    +0.040 C 
ATOM     16  C   LIG    1        5.895  -3.950  -2.432  0.00  0.00    +0.430 C 
ATOM     17  O   LIG    1        5.841  -5.133  -2.167  0.00  0.00    -0.440 OA
ATOM     18  C   LIG    1        4.859  -2.997  -2.005  0.00  0.00    -0.280 A 
ENDBRANCH   1  10
BRANCH   6  19
ATOM     19  C   LIG    1       -1.127  -0.535  -0.884  0.00  0.00    +0.190 C 
BRANCH  19  20
ATOM     20  O   LIG    1       -1.039   0.064  -2.178  0.00  0.00    -0.310 OA
BRANCH  20  21
ATOM     21  C   LIG    1       -1.975  -0.302  -3.092  0.00  0.00    +0.130 A 
ATOM     22  C   LIG    1       -2.955  -1.224  -2.753  0.00  0.00    -0.080 A 
ATOM     23  C   LIG    1       -3.908  -1.591  -3.683  0.00  0.00    +0.040 A 
ATOM     24  C   LIG    1       -3.881  -1.048  -4.954  0.00  0.00    -0.040 A 
ATOM     25  C   LIG    1       -2.902  -0.134  -5.297  0.00  0.00    +0.050 A 
ATOM     26  C   LIG    1       -1.949   0.241  -4.369  0.00  0.00    -0.020 A 
ENDBRANCH  20  21
ENDBRANCH  19  20
ENDBRANCH   6  19
TORSDOF 4
