REMARK  Name = ZINCrD00000F5Lui.0
REMARK                            x       y       z     vdW  Elec       q    Type
REMARK                         _______ _______ _______ _____ _____    ______ ____
ROOT
ATOM      1  C   LIG    1        2.411  -2.732  -0.138  0.00  0.00    +0.520 C 
ATOM      2  N   LIG    1        1.238  -2.078  -0.021  0.00  0.00    -0.670 N 
ATOM      3  H   LIG    1        0.409  -2.577   0.051  0.00  0.00    +0.420 HD
ATOM      4  O   LIG    1        3.453  -2.111  -0.144  0.00  0.00    -0.480 OA
ENDROOT
BRANCH   2   5
ATOM      5  C   LIG    1        1.216  -0.679  -0.005  0.00  0.00    +0.180 A 
ATOM      6  C   LIG    1        2.248   0.026   0.599  0.00  0.00    +0.030 A 
ATOM      7  C   LIG    1        2.227   1.408   0.615  0.00  0.00    +0.070 A 
ATOM      8  C   LIG    1        1.179   2.092   0.030  0.00  0.00    +0.000 A 
ATOM      9  C   LIG    1        0.143   1.393  -0.576  0.00  0.00    +0.150 A 
ATOM     10  C   LIG    1        0.161   0.006  -0.593  0.00  0.00    -0.010 A 
BRANCH   9  11
ATOM     11  N   LIG    1       -0.918   2.088  -1.174  0.00  0.00    -0.430 N 
ATOM     12  C   LIG    1       -1.995   1.552  -1.814  0.00  0.00    +0.380 A 
ATOM     13  N   LIG    1       -2.738   2.547  -2.218  0.00  0.00    -0.290 NA
ATOM     14  N   LIG    1       -2.196   3.663  -1.881  0.00  0.00    -0.290 NA
ATOM     15  C   LIG    1       -1.081   3.439  -1.241  0.00  0.00    +0.380 A 
ENDBRANCH   9  11
ENDBRANCH   2   5
BRANCH   1  16
ATOM     16  C   LIG    1        2.427  -4.234  -0.260  0.00  0.00    +0.240 C 
BRANCH  16  17
ATOM     17  O   LIG    1        3.777  -4.688  -0.370  0.00  0.00    -0.280 OA
BRANCH  17  21
ATOM     18  C   LIG    1        4.362  -8.764  -0.732  0.00  0.00    -0.050 A 
ATOM     19  C   LIG    1        3.071  -8.247  -0.620  0.00  0.00    +0.020 A 
ATOM     20  C   LIG    1        2.880  -6.886  -0.499  0.00  0.00    -0.030 A 
ATOM     21  C   LIG    1        3.970  -6.028  -0.489  0.00  0.00    +0.090 A 
ATOM     22  C   LIG    1        5.262  -6.538  -0.606  0.00  0.00    +0.110 A 
ATOM     23  C   LIG    1        5.459  -7.901  -0.722  0.00  0.00    -0.020 A 
BRANCH  18  26
ATOM     24  C   LIG    1        3.733 -12.526  -1.002  0.00  0.00    +0.070 C 
ATOM     25  C   LIG    1        3.524 -11.040  -0.870  0.00  0.00    -0.030 C 
ATOM     26  C   LIG    1        4.567 -10.221  -0.861  0.00  0.00    -0.010 C 
ENDBRANCH  18  26
BRANCH  22  27
ATOM     27  O   LIG    1        6.328  -5.694  -0.601  0.00  0.00    -0.300 OA
ATOM     28  C   LIG    1        7.623  -6.285  -0.725  0.00  0.00    +0.240 C 
ENDBRANCH  22  27
ENDBRANCH  17  21
ENDBRANCH  16  17
ENDBRANCH   1  16
TORSDOF 7
