REMARK  Name = ZINCtV000002KO21.0
REMARK                            x       y       z     vdW  Elec       q    Type
REMARK                         _______ _______ _______ _____ _____    ______ ____
ROOT
ATOM      1  C   LIG    1       -2.516   1.668  -0.020  0.00  0.00    +0.220 A 
ATOM      2  N   LIG    1       -2.653   0.365  -0.106  0.00  0.00    -0.240 NA
ATOM      3  N   LIG    1       -3.895   0.048  -0.013  0.00  0.00    -0.280 NA
ATOM      4  C   LIG    1       -4.628   1.129   0.129  0.00  0.00    +0.150 A 
ATOM      5  N   LIG    1       -3.777   2.198   0.129  0.00  0.00    -0.440 N 
ENDROOT
BRANCH   1  12
ATOM      6 CL   LIG    1       -0.644   0.927  -2.269  0.00  0.00    -0.040 Cl
ATOM      7  C   LIG    1       -0.315   2.152  -1.085  0.00  0.00    +0.000 A 
ATOM      8  C   LIG    1        0.866   2.865  -1.137  0.00  0.00    +0.030 A 
ATOM      9  C   LIG    1        1.130   3.842  -0.193  0.00  0.00    +0.050 A 
ATOM     10  C   LIG    1        0.213   4.112   0.808  0.00  0.00    +0.030 A 
ATOM     11  C   LIG    1       -0.971   3.407   0.871  0.00  0.00    +0.040 A 
ATOM     12  C   LIG    1       -1.247   2.423  -0.080  0.00  0.00    -0.010 A 
ENDBRANCH   1  12
BRANCH   5  13
ATOM     13  C   LIG    1       -4.132   3.613   0.260  0.00  0.00    +0.230 C 
ATOM     14  C   LIG    1       -4.853   3.854   1.603  0.00  0.00    +0.020 C 
ATOM     15  C   LIG    1       -5.933   4.913   1.269  0.00  0.00    +0.040 C 
ATOM     16  C   LIG    1       -6.409   4.483  -0.141  0.00  0.00    +0.040 C 
ATOM     17  C   LIG    1       -5.122   4.013  -0.848  0.00  0.00    +0.030 C 
ENDBRANCH   5  13
BRANCH   4  18
ATOM     18  S   LIG    1       -6.381   1.190   0.289  0.00  0.00    +0.060 S 
BRANCH  18  19
ATOM     19  C   LIG    1       -6.767  -0.576   0.198  0.00  0.00    +0.250 C 
BRANCH  19  20
ATOM     20  C   LIG    1       -8.256  -0.772   0.317  0.00  0.00    +0.170 A 
ATOM     21  N   LIG    1       -9.110  -0.792  -0.667  0.00  0.00    -0.250 NA
ATOM     22  N   LIG    1      -10.296  -0.984  -0.206  0.00  0.00    -0.260 NA
ATOM     23  C   LIG    1      -10.240  -1.084   1.104  0.00  0.00    +0.250 A 
ATOM     24  O   LIG    1       -8.945  -0.951   1.459  0.00  0.00    -0.210 OA
BRANCH  23  25
ATOM     25  C   LIG    1      -11.376  -1.301   2.012  0.00  0.00    -0.160 A 
ATOM     26  C   LIG    1      -12.676  -1.432   1.629  0.00  0.00    +0.110 A 
ATOM     27  C   LIG    1      -13.559  -1.628   2.668  0.00  0.00    +0.020 A 
ATOM     28  C   LIG    1      -13.007  -1.659   3.886  0.00  0.00    -0.010 A 
ATOM     29  S   LIG    1      -11.267  -1.439   3.762  0.00  0.00    +0.180 S 
ENDBRANCH  23  25
ENDBRANCH  19  20
ENDBRANCH  18  19
ENDBRANCH   4  18
TORSDOF 6
