REMARK  Name = ZINCvU00000005ly.0
REMARK                            x       y       z     vdW  Elec       q    Type
REMARK                         _______ _______ _______ _____ _____    ______ ____
ROOT
ATOM      1  C   LIG    1        2.413   3.957   0.010  0.00  0.00    +0.510 C 
ATOM      2  O   LIG    1        3.479   3.374   0.006  0.00  0.00    -0.480 OA
ENDROOT
BRANCH   1   3
ATOM      3  C   LIG    1        1.155   3.191   0.014  0.00  0.00    -0.120 A 
ATOM      4  C   LIG    1       -0.074   3.857   0.019  0.00  0.00    +0.110 A 
ATOM      5  C   LIG    1       -1.247   3.134   0.024  0.00  0.00    +0.000 A 
ATOM      6  C   LIG    1       -1.216   1.748   0.017  0.00  0.00    +0.070 A 
ATOM      7  C   LIG    1       -0.012   1.075   0.018  0.00  0.00    -0.010 A 
ATOM      8  C   LIG    1        1.183   1.786   0.014  0.00  0.00    -0.040 A 
BRANCH   8   9
ATOM      9  S   LIG    1        2.723   0.930   0.008  0.00  0.00    +0.020 S 
BRANCH   9  10
ATOM     10  C   LIG    1        2.132  -0.780   0.010  0.00  0.00    +0.120 C 
BRANCH  10  11
ATOM     11  C   LIG    1        3.311  -1.719   0.005  0.00  0.00    -0.200 A 
ATOM     12  C   LIG    1        3.967  -2.239   1.070  0.00  0.00    -0.010 A 
ATOM     13  O   LIG    1        4.940  -3.016   0.574  0.00  0.00    +0.100 OA
ATOM     14  N   LIG    1        4.936  -3.016  -0.635  0.00  0.00    -0.360 NA
ATOM     15  C   LIG    1        3.664  -1.992   2.526  0.00  0.00    +0.190 C 
ATOM     16  C   LIG    1        3.984  -2.266  -1.111  0.00  0.00    +0.040 A 
ATOM     17  C   LIG    1        3.665  -2.026  -2.564  0.00  0.00    +0.160 C 
ENDBRANCH  10  11
ENDBRANCH   9  10
ENDBRANCH   8   9
ENDBRANCH   1   3
BRANCH   1  18
ATOM     18  O   LIG    1        2.381   5.304   0.011  0.00  0.00    -0.330 OA
BRANCH  18  19
ATOM     19  C   LIG    1        3.659   5.994   0.007  0.00  0.00    +0.270 C 
BRANCH  19  22
ATOM     20  N   LIG    1        4.475   8.329   0.005  0.00  0.00    -0.670 N 
ATOM     21  H   LIG    1        5.379   7.981   0.070  0.00  0.00    +0.420 HD
ATOM     22  C   LIG    1        3.426   7.483   0.009  0.00  0.00    +0.520 C 
ATOM     23  O   LIG    1        2.295   7.920   0.013  0.00  0.00    -0.500 OA
BRANCH  20  27
ATOM     24  C   LIG    1        3.838  12.441  -0.280  0.00  0.00    +0.130 A 
ATOM     25  C   LIG    1        2.941  11.647   0.419  0.00  0.00    -0.040 A 
ATOM     26  C   LIG    1        3.152  10.285   0.514  0.00  0.00    +0.080 A 
ATOM     27  C   LIG    1        4.261   9.710  -0.091  0.00  0.00    +0.120 A 
ATOM     28  C   LIG    1        5.162  10.506  -0.787  0.00  0.00    +0.060 A 
ATOM     29  C   LIG    1        4.948  11.867  -0.885  0.00  0.00    -0.050 A 
ATOM     30 CL   LIG    1        6.070  12.861  -1.760  0.00  0.00    -0.050 Cl
BRANCH  24  32
ATOM     31  C   LIG    1        2.467  14.303   0.275  0.00  0.00    +0.250 C 
ATOM     32  O   LIG    1        3.629  13.781  -0.372  0.00  0.00    -0.300 OA
ENDBRANCH  24  32
ENDBRANCH  20  27
ENDBRANCH  19  22
ENDBRANCH  18  19
ENDBRANCH   1  18
TORSDOF 9
