REMARK  Name = ZINCrH00000tj1ha.0
REMARK                            x       y       z     vdW  Elec       q    Type
REMARK                         _______ _______ _______ _____ _____    ______ ____
ROOT
ATOM      1  C   LIG    1        1.110  -2.520   1.228  0.00  0.00    +0.110 C 
ATOM      2  C   LIG    1        1.646  -1.809  -0.017  0.00  0.00    +0.310 C 
ENDROOT
BRANCH   2   3
ATOM      3  N   LIG    1        1.213  -0.410  -0.004  0.00  0.00    -0.130 N 
ATOM      4  N   LIG    1       -0.010  -0.009   0.002  0.00  0.00    -0.030 NA
ATOM      5  N   LIG    1       -0.028   1.281   0.013  0.00  0.00    -0.270 NA
ATOM      6  C   LIG    1        1.246   1.697   0.014  0.00  0.00    +0.210 A 
ATOM      7  N   LIG    1        1.997   0.613   0.003  0.00  0.00    -0.300 NA
BRANCH   6   8
ATOM      8  C   LIG    1        1.720   3.104   0.024  0.00  0.00    -0.010 A 
ATOM      9  C   LIG    1        3.085   3.381   0.029  0.00  0.00    +0.070 A 
ATOM     10  C   LIG    1        3.521   4.691   0.034  0.00  0.00    +0.030 A 
ATOM     11  C   LIG    1        2.603   5.728   0.043  0.00  0.00    -0.020 A 
ATOM     12  C   LIG    1        1.246   5.457   0.043  0.00  0.00    +0.030 A 
ATOM     13 CL   LIG    1        3.157   7.373   0.057  0.00  0.00    -0.060 Cl
ATOM     14  C   LIG    1        0.801   4.150   0.034  0.00  0.00    +0.090 A 
ENDBRANCH   6   8
ENDBRANCH   2   3
BRANCH   2  15
ATOM     15  C   LIG    1        1.113  -2.488  -1.252  0.00  0.00    +0.510 C 
ATOM     16  N   LIG    1        1.387  -3.789  -1.477  0.00  0.00    -0.650 N 
ATOM     17  H   LIG    1        1.991  -4.266  -0.888  0.00  0.00    +0.410 HD
ATOM     18  O   LIG    1        0.438  -1.865  -2.043  0.00  0.00    -0.480 OA
BRANCH  16  19
ATOM     19  C   LIG    1        0.800  -4.448  -2.558  0.00  0.00    +0.160 A 
ATOM     20  C   LIG    1       -0.393  -4.000  -3.082  0.00  0.00    +0.020 A 
ATOM     21  C   LIG    1       -0.981  -4.649  -4.164  0.00  0.00    +0.060 A 
ATOM     22  C   LIG    1       -0.403  -5.746  -4.726  0.00  0.00    +0.030 A 
ATOM     23  C   LIG    1        0.811  -6.240  -4.218  0.00  0.00    +0.140 A 
ATOM     24  N   LIG    1        1.395  -7.316  -4.756  0.00  0.00    -0.470 NA
ATOM     25  C   LIG    1        2.527  -7.783  -4.288  0.00  0.00    +0.290 A 
ATOM     26  C   LIG    1        3.177  -7.184  -3.212  0.00  0.00    -0.030 A 
ATOM     27  C   LIG    1        2.634  -6.079  -2.617  0.00  0.00    +0.070 A 
ATOM     28  C   LIG    1        1.420  -5.583  -3.121  0.00  0.00    -0.110 A 
ENDBRANCH  16  19
ENDBRANCH   2  15
TORSDOF 4
