REMARK  Name = ZINCrH000004tNKA.0
REMARK                            x       y       z     vdW  Elec       q    Type
REMARK                         _______ _______ _______ _____ _____    ______ ____
ROOT
ATOM      1  O   LIG    1        1.024   2.123   0.004  0.00  0.00    -0.530 OA
ATOM      2  C   LIG    1       -0.018   1.503   0.010  0.00  0.00    +0.510 C 
ATOM      3  N   LIG    1       -1.195   2.161   0.019  0.00  0.00    -0.720 N 
ATOM      4  H   LIG    1       -2.028   1.664   0.021  0.00  0.00    +0.410 HD
ENDROOT
BRANCH   3   5
ATOM      5  C   LIG    1       -1.214   3.626   0.028  0.00  0.00    +0.400 C 
BRANCH   5   6
ATOM      6  C   LIG    1       -2.642   4.109   0.037  0.00  0.00    -0.030 A 
ATOM      7  C   LIG    1       -3.381   4.354   1.136  0.00  0.00    -0.010 A 
ATOM      8  C   LIG    1       -4.648   4.785   0.694  0.00  0.00    -0.030 A 
ATOM      9  C   LIG    1       -4.612   4.779  -0.665  0.00  0.00    +0.040 A 
ATOM     10  O   LIG    1       -3.387   4.371  -1.049  0.00  0.00    -0.160 OA
BRANCH   9  11
ATOM     11  C   LIG    1       -5.721   5.159  -1.563  0.00  0.00    -0.020 A 
ATOM     12  C   LIG    1       -6.946   5.566  -1.032  0.00  0.00    +0.060 A 
ATOM     13  C   LIG    1       -7.977   5.923  -1.876  0.00  0.00    +0.030 A 
ATOM     14  C   LIG    1       -7.801   5.870  -3.248  0.00  0.00    -0.030 A 
ATOM     15  C   LIG    1       -6.591   5.462  -3.782  0.00  0.00    +0.030 A 
ATOM     16 CL   LIG    1       -9.105   6.316  -4.304  0.00  0.00    -0.060 Cl
ATOM     17  C   LIG    1       -5.551   5.106  -2.948  0.00  0.00    +0.050 A 
ENDBRANCH   9  11
ENDBRANCH   5   6
ENDBRANCH   3   5
BRANCH   2  18
ATOM     18  C   LIG    1        0.002  -0.004   0.002  0.00  0.00    +0.320 C 
BRANCH  18  19
ATOM     19  N   LIG    1        1.390  -0.473  -0.014  0.00  0.00    -0.720 N 
ATOM     20  H   LIG    1        2.118   0.167  -0.017  0.00  0.00    +0.410 HD
ATOM     21  C   LIG    1        1.654  -1.795  -0.023  0.00  0.00    +0.560 C 
ATOM     22  O   LIG    1        0.741  -2.598  -0.019  0.00  0.00    -0.520 OA
BRANCH  21  23
ATOM     23  C   LIG    1        3.053  -2.268  -0.039  0.00  0.00    -0.180 A 
ATOM     24  C   LIG    1        4.104  -1.350  -0.044  0.00  0.00    +0.080 A 
ATOM     25  C   LIG    1        5.408  -1.798  -0.059  0.00  0.00    +0.000 A 
ATOM     26  C   LIG    1        5.678  -3.156  -0.070  0.00  0.00    +0.080 A 
ATOM     27  C   LIG    1        4.644  -4.073  -0.065  0.00  0.00    -0.020 A 
ATOM     28  C   LIG    1        3.331  -3.639  -0.043  0.00  0.00    +0.160 A 
ATOM     29  F   LIG    1        2.321  -4.536  -0.033  0.00  0.00    -0.110 F 
ENDBRANCH  21  23
ENDBRANCH  18  19
ENDBRANCH   2  18
TORSDOF 6
