REMARK  Name = ZINCrg000000nz4t.0
REMARK                            x       y       z     vdW  Elec       q    Type
REMARK                         _______ _______ _______ _____ _____    ______ ____
ROOT
ATOM      1  C   LIG    1       -1.463   2.002  -0.018  0.00  0.00    -0.440 A 
ATOM      2  C   LIG    1       -1.258   3.386   0.116  0.00  0.00    +0.550 A 
ATOM      3  N   LIG    1       -0.022   3.839   0.477  0.00  0.00    -0.540 N 
ATOM      4  C   LIG    1        0.992   2.990   0.709  0.00  0.00    +0.710 A 
ATOM      5  N   LIG    1        0.855   1.659   0.601  0.00  0.00    -0.560 N 
ATOM      6  C   LIG    1        2.003   0.789   0.869  0.00  0.00    +0.340 C 
ATOM      7  O   LIG    1        2.074   3.443   1.027  0.00  0.00    -0.520 OA
ATOM      8  C   LIG    1       -0.327   1.111   0.250  0.00  0.00    +0.580 A 
ATOM      9  O   LIG    1       -0.448  -0.096   0.153  0.00  0.00    -0.510 OA
ENDROOT
BRANCH   2  10
ATOM     10  N   LIG    1       -2.275   4.261  -0.115  0.00  0.00    -0.810 N 
ATOM     11  H   LIG    1       -2.284   5.122   0.331  0.00  0.00    +0.410 HD
ATOM     12  H   LIG    1       -2.990   4.023  -0.725  0.00  0.00    +0.440 HD
ENDBRANCH   2  10
BRANCH   1  13
ATOM     13  C   LIG    1       -2.721   1.485  -0.395  0.00  0.00    +0.440 C 
ATOM     14  O   LIG    1       -3.634   2.241  -0.658  0.00  0.00    -0.490 OA
BRANCH  13  15
ATOM     15  C   LIG    1       -2.931  -0.005  -0.470  0.00  0.00    +0.210 C 
BRANCH  15  20
ATOM     16  C   LIG    1       -8.386  -1.680  -0.809  0.00  0.00    +0.010 C 
ATOM     17  C   LIG    1       -6.931  -1.512  -0.365  0.00  0.00    -0.040 C 
ATOM     18  C   LIG    1       -6.669  -0.044  -0.017  0.00  0.00    +0.020 C 
ATOM     19  C   LIG    1       -5.198   0.128   0.369  0.00  0.00    +0.160 C 
ATOM     20  N   LIG    1       -4.345  -0.287  -0.752  0.00  0.00    -0.530 NA
ATOM     21  C   LIG    1       -4.545  -1.706  -1.074  0.00  0.00    +0.160 C 
ATOM     22  C   LIG    1       -5.997  -1.933  -1.503  0.00  0.00    +0.030 C 
ENDBRANCH  15  20
ENDBRANCH  13  15
ENDBRANCH   1  13
BRANCH   3  23
ATOM     23  C   LIG    1        0.203   5.280   0.614  0.00  0.00    +0.360 C 
BRANCH  23  24
ATOM     24  C   LIG    1        0.654   5.846  -0.708  0.00  0.00    -0.130 A 
ATOM     25  C   LIG    1        2.001   5.904  -1.012  0.00  0.00    +0.040 A 
ATOM     26  C   LIG    1        2.413   6.419  -2.227  0.00  0.00    +0.010 A 
ATOM     27  C   LIG    1        1.479   6.885  -3.133  0.00  0.00    +0.030 A 
ATOM     28  C   LIG    1        0.133   6.832  -2.827  0.00  0.00    +0.010 A 
ATOM     29  C   LIG    1       -0.280   6.312  -1.614  0.00  0.00    +0.020 A 
ENDBRANCH  23  24
ENDBRANCH   3  23
TORSDOF 6
