REMARK  Name = ZINCqH0000003MWo.0
REMARK                            x       y       z     vdW  Elec       q    Type
REMARK                         _______ _______ _______ _____ _____    ______ ____
ROOT
ATOM      1  C   LIG    1       -3.599   1.690   0.130  0.00  0.00    +0.530 C 
ATOM      2  N   LIG    1       -2.424   1.038   0.019  0.00  0.00    -0.670 N 
ATOM      3  H   LIG    1       -2.411   0.072  -0.063  0.00  0.00    +0.420 HD
ATOM      4  O   LIG    1       -3.621   2.902   0.137  0.00  0.00    -0.490 OA
ENDROOT
BRANCH   2   5
ATOM      5  C   LIG    1       -1.227   1.754   0.023  0.00  0.00    +0.170 A 
ATOM      6  C   LIG    1       -0.148   1.306  -0.733  0.00  0.00    -0.010 A 
ATOM      7  C   LIG    1        1.033   2.013  -0.736  0.00  0.00    +0.110 A 
ATOM      8  C   LIG    1        1.150   3.179   0.027  0.00  0.00    -0.150 A 
ATOM      9  C   LIG    1        0.066   3.622   0.790  0.00  0.00    +0.070 A 
ATOM     10  C   LIG    1       -1.112   2.910   0.788  0.00  0.00    +0.010 A 
BRANCH   8  11
ATOM     11  C   LIG    1        2.415   3.939   0.026  0.00  0.00    +0.570 C 
ATOM     12  N   LIG    1        2.526   5.062   0.762  0.00  0.00    -0.700 N 
ATOM     13  H   LIG    1        1.774   5.371   1.292  0.00  0.00    +0.400 HD
ATOM     14  O   LIG    1        3.357   3.551  -0.638  0.00  0.00    -0.530 OA
BRANCH  12  15
ATOM     15  C   LIG    1        3.782   5.817   0.762  0.00  0.00    +0.220 C 
ATOM     16  C   LIG    1        4.300   6.326   2.109  0.00  0.00    +0.010 C 
ATOM     17  C   LIG    1        3.709   7.309   1.095  0.00  0.00    +0.020 C 
ENDBRANCH  12  15
ENDBRANCH   8  11
ENDBRANCH   2   5
BRANCH   1  18
ATOM     18  C   LIG    1       -4.884   0.911   0.245  0.00  0.00    +0.080 C 
BRANCH  18  19
ATOM     19  S   LIG    1       -6.279   2.063   0.379  0.00  0.00    -0.030 S 
BRANCH  19  23
ATOM     20  C   LIG    1       -9.856  -0.700   0.697  0.00  0.00    +0.130 A 
ATOM     21  C   LIG    1      -10.038   0.675   0.720  0.00  0.00    +0.010 A 
ATOM     22  C   LIG    1       -8.948   1.518   0.623  0.00  0.00    +0.080 A 
ATOM     23  C   LIG    1       -7.670   0.989   0.502  0.00  0.00    -0.140 A 
ATOM     24  C   LIG    1       -7.489  -0.388   0.475  0.00  0.00    +0.030 A 
ATOM     25  C   LIG    1       -8.579  -1.229   0.577  0.00  0.00    -0.060 A 
BRANCH  20  26
ATOM     26  O   LIG    1      -10.930  -1.529   0.792  0.00  0.00    -0.310 OA
BRANCH  26  28
ATOM     27  C   LIG    1      -11.988  -3.700   0.880  0.00  0.00    +0.070 C 
ATOM     28  C   LIG    1      -10.669  -2.934   0.762  0.00  0.00    +0.170 C 
ENDBRANCH  26  28
ENDBRANCH  20  26
ENDBRANCH  19  23
ENDBRANCH  18  19
ENDBRANCH   1  18
TORSDOF 8
