REMARK  Name = ZINCrH000004rD80.0
REMARK                            x       y       z     vdW  Elec       q    Type
REMARK                         _______ _______ _______ _____ _____    ______ ____
ROOT
ATOM      1  C   LIG    1       -0.022   1.052   0.006  0.00  0.00    +0.280 C 
ENDROOT
BRANCH   1   2
ATOM      2  N   LIG    1       -0.669   1.618  -1.180  0.00  0.00    -0.720 N 
ATOM      3  H   LIG    1       -1.473   2.153  -1.085  0.00  0.00    +0.400 HD
ATOM      4  C   LIG    1       -0.148   1.394  -2.403  0.00  0.00    +0.550 C 
ATOM      5  O   LIG    1        0.859   0.724  -2.521  0.00  0.00    -0.490 OA
BRANCH   4   6
ATOM      6  C   LIG    1       -0.801   1.965  -3.599  0.00  0.00    -0.080 A 
ATOM      7  C   LIG    1       -1.961   2.730  -3.467  0.00  0.00    +0.090 A 
ATOM      8  C   LIG    1       -2.562   3.264  -4.588  0.00  0.00    +0.110 A 
ATOM      9  C   LIG    1       -2.026   3.034  -5.842  0.00  0.00    -0.010 A 
ATOM     10  C   LIG    1       -0.880   2.272  -5.982  0.00  0.00    +0.110 A 
ATOM     11  C   LIG    1       -0.264   1.735  -4.869  0.00  0.00    +0.010 A 
ATOM     12 CL   LIG    1        1.173   0.778  -5.045  0.00  0.00    +0.010 Cl
BRANCH   9  13
ATOM     13  N   LIG    1       -2.681   3.605  -7.040  0.00  0.00    +0.020 N 
ATOM     14  O   LIG    1       -3.690   4.277  -6.920  0.00  0.00    -0.140 OA
ATOM     15  O   LIG    1       -2.212   3.404  -8.146  0.00  0.00    -0.140 OA
ENDBRANCH   9  13
ENDBRANCH   4   6
ENDBRANCH   1   2
BRANCH   1  16
ATOM     16  C   LIG    1       -0.808   1.453   1.256  0.00  0.00    +0.040 C 
BRANCH  16  17
ATOM     17  C   LIG    1       -0.064   0.971   2.503  0.00  0.00    +0.200 C 
BRANCH  17  22
ATOM     18  C   LIG    1        3.670   4.303   1.872  0.00  0.00    +0.180 C 
ATOM     19  C   LIG    1        2.924   3.058   2.277  0.00  0.00    +0.020 A 
ATOM     20  C   LIG    1        3.450   2.001   2.922  0.00  0.00    -0.060 A 
ATOM     21  C   LIG    1        2.404   1.067   3.099  0.00  0.00    +0.020 A 
ATOM     22  C   LIG    1        1.301   1.609   2.552  0.00  0.00    -0.090 A 
ATOM     23  O   LIG    1        1.624   2.812   2.050  0.00  0.00    -0.160 OA
ENDBRANCH  17  22
BRANCH  17  24
ATOM     24  C   LIG    1       -0.855   1.364   3.753  0.00  0.00    +0.480 C 
ATOM     25  F   LIG    1       -0.973   2.757   3.811  0.00  0.00    -0.170 F 
ATOM     26  F   LIG    1       -0.185   0.905   4.892  0.00  0.00    -0.170 F 
ATOM     27  F   LIG    1       -2.129   0.789   3.698  0.00  0.00    -0.170 F 
ENDBRANCH  17  24
BRANCH  17  28
ATOM     28  O   LIG    1        0.076  -0.450   2.455  0.00  0.00    -0.520 OA
ATOM     29  H   LIG    1        0.568  -0.771   1.687  0.00  0.00    +0.400 HD
ENDBRANCH  17  28
ENDBRANCH  16  17
ENDBRANCH   1  16
TORSDOF 8
