REMARK  Name = ZINCnE000004RfKR.0
REMARK                            x       y       z     vdW  Elec       q    Type
REMARK                         _______ _______ _______ _____ _____    ______ ____
ROOT
ATOM      1  N   LIG    1        3.644  -4.026   1.428  0.00  0.00    -0.500 NA
ENDROOT
BRANCH   1   2
ATOM      2  C   LIG    1        4.317  -2.955   2.175  0.00  0.00    +0.120 C 
BRANCH   2   4
ATOM      3  O   LIG    1        5.898  -3.122   0.424  0.00  0.00    -0.690 OA
ATOM      4  C   LIG    1        5.600  -2.585   1.477  0.00  0.00    +0.470 C 
ATOM      5  O   LIG    1        6.340  -1.748   1.964  0.00  0.00    -0.690 OA
ENDBRANCH   2   4
ENDBRANCH   1   2
BRANCH   1   6
ATOM      6  C   LIG    1        3.225  -3.558   0.100  0.00  0.00    +0.310 C 
BRANCH   6   7
ATOM      7  C   LIG    1        2.159  -2.503   0.253  0.00  0.00    +0.320 A 
ATOM      8  N   LIG    1        0.888  -2.742   0.393  0.00  0.00    -0.490 NA
ATOM      9  C   LIG    1        0.213  -1.570   0.505  0.00  0.00    +0.050 A 
ATOM     10  C   LIG    1       -1.137  -1.247   0.670  0.00  0.00    +0.060 A 
ATOM     11  C   LIG    1       -1.518   0.062   0.753  0.00  0.00    -0.010 A 
ATOM     12  C   LIG    1       -0.579   1.080   0.674  0.00  0.00    +0.020 A 
ATOM     13  C   LIG    1        0.758   0.785   0.509  0.00  0.00    +0.010 A 
ATOM     14  C   LIG    1        1.165  -0.539   0.425  0.00  0.00    +0.040 A 
ATOM     15  N   LIG    1        2.387  -1.162   0.266  0.00  0.00    -0.590 N 
ATOM     16  H   LIG    1        3.248  -0.724   0.178  0.00  0.00    +0.430 HD
ENDBRANCH   6   7
ENDBRANCH   1   6
BRANCH   1  17
ATOM     17  C   LIG    1        4.503  -5.213   1.321  0.00  0.00    +0.240 C 
BRANCH  17  18
ATOM     18  C   LIG    1        4.587  -5.895   2.662  0.00  0.00    -0.050 A 
ATOM     19  C   LIG    1        5.653  -5.636   3.503  0.00  0.00    +0.040 A 
ATOM     20  C   LIG    1        5.728  -6.258   4.736  0.00  0.00    +0.010 A 
ATOM     21  C   LIG    1        4.743  -7.147   5.123  0.00  0.00    +0.030 A 
ATOM     22  C   LIG    1        3.679  -7.410   4.279  0.00  0.00    -0.090 A 
ATOM     23 BR   LIG    1        2.330  -8.626   4.808  0.00  0.00    -0.070 Br
ATOM     24  C   LIG    1        3.601  -6.784   3.048  0.00  0.00    +0.060 A 
ENDBRANCH  17  18
ENDBRANCH   1  17
TORSDOF 6
