REMARK  Name = ZINCpk00000KfLkZ.1
REMARK                            x       y       z     vdW  Elec       q    Type
REMARK                         _______ _______ _______ _____ _____    ______ ____
ROOT
ATOM      1  C   LIG    1        2.946   4.089  -1.443  0.00  0.00    +0.160 C 
ENDROOT
BRANCH   1   5
ATOM      2  C   LIG    1        7.086   4.982  -2.034  0.00  0.00    +0.220 C 
ATOM      3  C   LIG    1        6.046   5.552  -3.003  0.00  0.00    +0.030 C 
ATOM      4  C   LIG    1        4.763   4.723  -2.913  0.00  0.00    +0.180 C 
ATOM      5  N   LIG    1        4.250   4.760  -1.537  0.00  0.00    -0.530 NA
ATOM      6  C   LIG    1        5.212   4.174  -0.596  0.00  0.00    +0.180 C 
ATOM      7  C   LIG    1        6.508   4.987  -0.616  0.00  0.00    +0.020 C 
BRANCH   2  10
ATOM      8  O   LIG    1        9.556   4.112  -1.394  0.00  0.00    -0.540 OA
ATOM      9  C   LIG    1        9.486   5.274  -1.733  0.00  0.00    +0.540 C 
ATOM     10  N   LIG    1        8.296   5.807  -2.074  0.00  0.00    -0.720 N 
ATOM     11  H   LIG    1        8.240   6.737  -2.344  0.00  0.00    +0.400 HD
BRANCH   9  12
ATOM     12  C   LIG    1       10.730   6.123  -1.773  0.00  0.00    -0.080 C 
ATOM     13  C   LIG    1       11.775   5.796  -2.842  0.00  0.00    +0.060 C 
ATOM     14  C   LIG    1       12.051   5.461  -1.375  0.00  0.00    +0.060 C 
ENDBRANCH   9  12
ENDBRANCH   2  10
ENDBRANCH   1   5
BRANCH   1  15
ATOM     15  C   LIG    1        1.907   4.881  -2.240  0.00  0.00    +0.270 C 
BRANCH  15  16
ATOM     16  C   LIG    1        0.566   4.201  -2.131  0.00  0.00    -0.120 A 
ATOM     17  C   LIG    1       -0.254   4.464  -1.050  0.00  0.00    +0.030 A 
ATOM     18  C   LIG    1       -1.485   3.842  -0.946  0.00  0.00    +0.030 A 
ATOM     19  C   LIG    1       -1.896   2.949  -1.923  0.00  0.00    +0.050 A 
ATOM     20  O   LIG    1       -3.105   2.336  -1.802  0.00  0.00    -0.310 OA
ATOM     21  C   LIG    1       -3.645   1.738  -2.986  0.00  0.00    +0.220 C 
ATOM     22  C   LIG    1       -2.532   0.927  -3.664  0.00  0.00    +0.220 C 
ATOM     23  O   LIG    1       -1.465   1.828  -3.992  0.00  0.00    -0.310 OA
ATOM     24  C   LIG    1       -1.074   2.691  -3.014  0.00  0.00    +0.050 A 
ATOM     25  C   LIG    1        0.160   3.317  -3.111  0.00  0.00    +0.030 A 
ENDBRANCH  15  16
BRANCH  15  26
ATOM     26  O   LIG    1        1.813   6.207  -1.714  0.00  0.00    -0.540 OA
ATOM     27  H   LIG    1        1.550   6.243  -0.784  0.00  0.00    +0.370 HD
ENDBRANCH  15  26
ENDBRANCH   1  15
TORSDOF 6
