REMARK  Name = ZINCrD000000CFGV.0
REMARK                            x       y       z     vdW  Elec       q    Type
REMARK                         _______ _______ _______ _____ _____    ______ ____
ROOT
ATOM      1  O   LIG    1       -4.781  11.425  -4.747  0.00  0.00    -0.530 OA
ATOM      2  C   LIG    1       -3.622  11.207  -4.452  0.00  0.00    +0.570 C 
ATOM      3  N   LIG    1       -3.333  10.409  -3.405  0.00  0.00    -0.590 N 
ATOM      4  C   LIG    1       -4.403   9.805  -2.598  0.00  0.00    +0.290 C 
ATOM      5  C   LIG    1       -4.125  10.101  -1.121  0.00  0.00    +0.180 C 
ATOM      6  N   LIG    1       -2.766   9.657  -0.783  0.00  0.00    -0.530 NA
ATOM      7  C   LIG    1       -1.757  10.403  -1.546  0.00  0.00    +0.170 C 
ATOM      8  C   LIG    1       -1.938  10.119  -3.041  0.00  0.00    +0.290 C 
ENDROOT
BRANCH   2   9
ATOM      9  C   LIG    1       -2.528  11.817  -5.244  0.00  0.00    +0.080 A 
ATOM     10  C   LIG    1       -2.784  12.945  -6.019  0.00  0.00    +0.040 A 
ATOM     11  C   LIG    1       -1.750  13.505  -6.755  0.00  0.00    +0.060 A 
ATOM     12  C   LIG    1       -0.497  12.916  -6.688  0.00  0.00    -0.010 A 
ATOM     13  C   LIG    1       -0.315  11.794  -5.895  0.00  0.00    +0.260 A 
ATOM     14  N   LIG    1       -1.312  11.287  -5.204  0.00  0.00    -0.450 NA
ENDBRANCH   2   9
BRANCH   6  15
ATOM     15  C   LIG    1       -2.521   9.765   0.662  0.00  0.00    +0.280 C 
BRANCH  15  16
ATOM     16  C   LIG    1       -1.223   9.080   1.004  0.00  0.00    +0.080 A 
ATOM     17  C   LIG    1       -0.069   9.748   1.093  0.00  0.00    -0.070 A 
ATOM     18  S   LIG    1        1.202   8.600   1.508  0.00  0.00    +0.100 S 
ATOM     19  C   LIG    1        0.016   7.298   1.520  0.00  0.00    +0.120 A 
ATOM     20  N   LIG    1       -1.155   7.787   1.227  0.00  0.00    -0.440 NA
BRANCH  19  21
ATOM     21  C   LIG    1        0.304   5.877   1.810  0.00  0.00    -0.040 A 
ATOM     22  C   LIG    1        1.607   5.473   2.106  0.00  0.00    +0.070 A 
ATOM     23  C   LIG    1        1.870   4.147   2.376  0.00  0.00    -0.010 A 
ATOM     24  C   LIG    1        0.844   3.215   2.353  0.00  0.00    +0.120 A 
ATOM     25  C   LIG    1       -0.451   3.610   2.055  0.00  0.00    -0.010 A 
ATOM     26  F   LIG    1        1.107   1.917   2.618  0.00  0.00    -0.130 F 
ATOM     27  C   LIG    1       -0.726   4.935   1.789  0.00  0.00    +0.110 A 
ENDBRANCH  19  21
ENDBRANCH  15  16
ENDBRANCH   6  15
TORSDOF 4
