REMARK  Name = ZINCpk00000Kejcn.0
REMARK                            x       y       z     vdW  Elec       q    Type
REMARK                         _______ _______ _______ _____ _____    ______ ____
ROOT
ATOM      1  N   LIG    1       -0.845   1.631   1.246  0.00  0.00    -0.670 NA
ATOM      2  H   LIG    1       -0.930   2.636   1.219  0.00  0.00    +0.360 HD
ENDROOT
BRANCH   1   7
ATOM      3  C   LIG    1        2.531   1.729   6.056  0.00  0.00    +0.230 A 
ATOM      4  N   LIG    1        2.554   2.245   4.853  0.00  0.00    -0.310 NA
ATOM      5  N   LIG    1        1.366   1.853   4.229  0.00  0.00    -0.380 N 
ATOM      6  C   LIG    1        0.907   2.165   2.875  0.00  0.00    +0.290 C 
ATOM      7  C   LIG    1       -0.213   1.190   2.497  0.00  0.00    +0.180 C 
ATOM      8  C   LIG    1       -1.261   1.158   3.614  0.00  0.00    +0.060 C 
ATOM      9  C   LIG    1       -0.658   0.483   4.853  0.00  0.00    +0.170 C 
ATOM     10  C   LIG    1        0.689   1.108   5.122  0.00  0.00    +0.280 A 
ATOM     11  N   LIG    1        1.399   1.040   6.213  0.00  0.00    -0.530 NA
BRANCH   3  13
ATOM     12  C   LIG    1        3.028   2.564   8.338  0.00  0.00    +0.050 C 
ATOM     13  C   LIG    1        3.611   1.886   7.096  0.00  0.00    +0.090 C 
ATOM     14  C   LIG    1        4.158   0.509   7.477  0.00  0.00    +0.050 C 
ENDBRANCH   3  13
ENDBRANCH   1   7
BRANCH   1  15
ATOM     15  C   LIG    1       -0.105   1.134   0.079  0.00  0.00    +0.330 C 
BRANCH  15  16
ATOM     16  C   LIG    1       -0.781   1.606  -1.183  0.00  0.00    +0.250 A 
ATOM     17  N   LIG    1       -0.606   2.760  -1.771  0.00  0.00    -0.320 NA
ATOM     18  N   LIG    1       -1.333   2.845  -2.826  0.00  0.00    -0.030 NA
ATOM     19  N   LIG    1       -2.016   1.763  -2.985  0.00  0.00    -0.070 NA
ATOM     20  N   LIG    1       -1.675   0.912  -1.919  0.00  0.00    -0.320 N 
BRANCH  20  21
ATOM     21  C   LIG    1       -2.162  -0.381  -1.673  0.00  0.00    +0.110 A 
ATOM     22  C   LIG    1       -2.314  -1.278  -2.720  0.00  0.00    +0.050 A 
ATOM     23  C   LIG    1       -2.788  -2.552  -2.473  0.00  0.00    +0.040 A 
ATOM     24  C   LIG    1       -3.122  -2.929  -1.186  0.00  0.00    +0.040 A 
ATOM     25  C   LIG    1       -2.978  -2.035  -0.141  0.00  0.00    +0.040 A 
ATOM     26  C   LIG    1       -2.499  -0.762  -0.381  0.00  0.00    +0.040 A 
ENDBRANCH  20  21
ENDBRANCH  15  16
ENDBRANCH   1  15
TORSDOF 5
