REMARK  Name = ZINCnE000004t8XH.0
REMARK                            x       y       z     vdW  Elec       q    Type
REMARK                         _______ _______ _______ _____ _____    ______ ____
ROOT
ATOM      1  C   LIG    1       -0.876   0.084  -3.539  0.00  0.00    -0.020 A 
ATOM      2  C   LIG    1       -1.685  -0.070  -2.451  0.00  0.00    +0.210 A 
ATOM      3  N   LIG    1       -0.881  -0.471  -1.441  0.00  0.00    -0.250 N 
ATOM      4  N   LIG    1        0.324  -0.553  -1.886  0.00  0.00    -0.100 NA
ATOM      5  N   LIG    1        0.366  -0.230  -3.131  0.00  0.00    -0.270 NA
ENDROOT
BRANCH   1  10
ATOM      6  C   LIG    1       -0.743   0.927  -7.205  0.00  0.00    +0.130 A 
ATOM      7  C   LIG    1       -2.054   1.317  -7.439  0.00  0.00    -0.090 A 
ATOM      8  C   LIG    1       -2.977   1.305  -6.410  0.00  0.00    +0.050 A 
ATOM      9  C   LIG    1       -2.599   0.906  -5.144  0.00  0.00    -0.010 A 
ATOM     10  C   LIG    1       -1.285   0.513  -4.901  0.00  0.00    +0.060 A 
ATOM     11  C   LIG    1       -0.354   0.529  -5.936  0.00  0.00    +0.010 A 
BRANCH   6  12
ATOM     12  O   LIG    1        0.162   0.940  -8.220  0.00  0.00    -0.320 OA
BRANCH  12  13
ATOM     13  C   LIG    1       -0.307   1.366  -9.501  0.00  0.00    +0.180 C 
BRANCH  13  15
ATOM     14  C   LIG    1        0.343   1.771 -11.879  0.00  0.00    +0.030 C 
ATOM     15  C   LIG    1        0.844   1.315 -10.507  0.00  0.00    +0.020 C 
ENDBRANCH  13  15
ENDBRANCH  12  13
ENDBRANCH   6  12
ENDBRANCH   1  10
BRANCH   3  16
ATOM     16  C   LIG    1       -1.308  -0.765  -0.071  0.00  0.00    +0.170 C 
BRANCH  16  17
ATOM     17  C   LIG    1       -2.424   0.171   0.318  0.00  0.00    +0.500 C 
ATOM     18  O   LIG    1       -2.242   1.012   1.182  0.00  0.00    -0.670 OA
ATOM     19  O   LIG    1       -3.510   0.086  -0.232  0.00  0.00    -0.670 OA
ENDBRANCH  16  17
BRANCH  16  20
ATOM     20  C   LIG    1       -1.803  -2.210   0.011  0.00  0.00    +0.030 C 
BRANCH  20  21
ATOM     21  C   LIG    1       -2.121  -2.559   1.466  0.00  0.00    -0.010 C 
ATOM     22  C   LIG    1       -0.831  -2.542   2.288  0.00  0.00    +0.010 C 
ATOM     23  C   LIG    1       -2.749  -3.953   1.531  0.00  0.00    +0.010 C 
ENDBRANCH  20  21
ENDBRANCH  16  20
ENDBRANCH   3  16
TORSDOF 8
