REMARK  Name = ZINCpk00000KfKx9.0
REMARK                            x       y       z     vdW  Elec       q    Type
REMARK                         _______ _______ _______ _____ _____    ______ ____
ROOT
ATOM      1  C   LIG    1       -2.497   1.386   0.313  0.00  0.00    +0.230 C 
ATOM      2  C   LIG    1       -3.458   2.581   0.491  0.00  0.00    +0.040 C 
ATOM      3  C   LIG    1       -2.653   3.763  -0.112  0.00  0.00    +0.040 C 
ATOM      4  C   LIG    1       -1.207   3.401   0.308  0.00  0.00    +0.250 C 
ATOM      5  N   LIG    1       -1.137   1.932   0.195  0.00  0.00    -0.610 N 
ATOM      6  C   LIG    1       -0.014   1.211   0.009  0.00  0.00    +0.560 C 
ATOM      7  O   LIG    1       -0.087   0.014  -0.187  0.00  0.00    -0.480 OA
ENDROOT
BRANCH   6   8
ATOM      8  C   LIG    1        1.308   1.879   0.036  0.00  0.00    -0.060 A 
ATOM      9  C   LIG    1        2.445   1.242  -0.474  0.00  0.00    +0.040 A 
ATOM     10  C   LIG    1        3.659   1.900  -0.433  0.00  0.00    +0.320 A 
ATOM     11  N   LIG    1        3.759   3.107   0.086  0.00  0.00    -0.490 NA
ATOM     12  C   LIG    1        2.712   3.745   0.583  0.00  0.00    +0.360 A 
ATOM     13  C   LIG    1        1.454   3.158   0.578  0.00  0.00    +0.020 A 
BRANCH  12  14
ATOM     14  N   LIG    1        2.875   5.026   1.122  0.00  0.00    -0.340 N 
ATOM     15  C   LIG    1        4.022   5.729   1.202  0.00  0.00    +0.530 A 
ATOM     16  N   LIG    1        3.754   6.877   1.769  0.00  0.00    -0.540 NA
ATOM     17  C   LIG    1        2.456   6.944   2.063  0.00  0.00    +0.450 A 
ATOM     18  N   LIG    1        1.875   5.837   1.682  0.00  0.00    -0.310 NA
ENDBRANCH  12  14
ENDBRANCH   6   8
BRANCH   1  19
ATOM     19  C   LIG    1       -2.584   0.466   1.532  0.00  0.00    +0.310 C 
BRANCH  19  23
ATOM     20  C   LIG    1        0.892  -3.093   2.139  0.00  0.00    +0.100 C 
ATOM     21  C   LIG    1       -0.234  -2.269   1.571  0.00  0.00    -0.230 A 
ATOM     22  C   LIG    1       -0.759  -1.150   2.123  0.00  0.00    +0.210 A 
ATOM     23  N   LIG    1       -1.747  -0.716   1.313  0.00  0.00    -0.360 N 
ATOM     24  N   LIG    1       -1.826  -1.592   0.223  0.00  0.00    -0.270 NA
ATOM     25  C   LIG    1       -0.919  -2.522   0.378  0.00  0.00    +0.230 A 
ENDBRANCH  19  23
ENDBRANCH   1  19
TORSDOF 4
