REMARK  Name = ZINCpk00000eb0P6.0
REMARK                            x       y       z     vdW  Elec       q    Type
REMARK                         _______ _______ _______ _____ _____    ______ ____
ROOT
ATOM      1  N   LIG    1       -0.900   1.880  -1.312  0.00  0.00    -1.000 NA
ATOM      2  C   LIG    1       -1.882   0.966  -1.914  0.00  0.00    +0.300 C 
ATOM      3  C   LIG    1       -3.244   1.679  -1.961  0.00  0.00    +0.270 C 
ATOM      4  N   LIG    1       -3.055   3.009  -2.558  0.00  0.00    -0.600 N 
ATOM      5  C   LIG    1       -2.070   3.921  -1.960  0.00  0.00    +0.290 C 
ATOM      6  C   LIG    1       -3.774   3.385  -3.634  0.00  0.00    +0.540 C 
ATOM      7  O   LIG    1       -3.611   4.486  -4.117  0.00  0.00    -0.520 OA
ATOM      8  C   LIG    1       -0.712   3.209  -1.909  0.00  0.00    +0.310 C 
ENDROOT
BRANCH   1   9
ATOM      9  S   LIG    1       -0.017   1.417   0.010  0.00  0.00    +2.690 S 
ATOM     10  O   LIG    1        1.162   2.210   0.003  0.00  0.00    -0.950 OA
ATOM     11  O   LIG    1        0.002  -0.004   0.002  0.00  0.00    -0.950 OA
BRANCH   9  16
ATOM     12  C   LIG    1       -3.142   3.051   4.906  0.00  0.00    +0.090 C 
ATOM     13  C   LIG    1       -2.361   2.643   3.683  0.00  0.00    -0.030 A 
ATOM     14  C   LIG    1       -2.559   1.395   3.122  0.00  0.00    -0.010 A 
ATOM     15  C   LIG    1       -1.843   1.021   2.000  0.00  0.00    +0.120 A 
ATOM     16  C   LIG    1       -0.930   1.894   1.440  0.00  0.00    -0.690 A 
ATOM     17  C   LIG    1       -0.728   3.140   2.004  0.00  0.00    +0.120 A 
ATOM     18  C   LIG    1       -1.447   3.516   3.123  0.00  0.00    -0.010 A 
ENDBRANCH   9  16
ENDBRANCH   1   9
BRANCH   6  19
ATOM     19  C   LIG    1       -4.781   2.440  -4.236  0.00  0.00    +0.100 C 
BRANCH  19  20
ATOM     20  S   LIG    1       -5.577   3.230  -5.657  0.00  0.00    +0.120 S 
BRANCH  20  21
ATOM     21  C   LIG    1       -6.671   1.941  -6.151  0.00  0.00    -0.020 A 
ATOM     22  N   LIG    1       -6.795   0.776  -5.580  0.00  0.00    -0.280 NA
ATOM     23  N   LIG    1       -7.633  -0.028  -6.070  0.00  0.00    -0.250 NA
ATOM     24  C   LIG    1       -8.311   0.355  -7.103  0.00  0.00    +0.230 A 
ATOM     25  S   LIG    1       -7.803   1.997  -7.504  0.00  0.00    +0.120 S 
ENDBRANCH  20  21
ENDBRANCH  19  20
ENDBRANCH   6  19
TORSDOF 5
