REMARK  Name = ZINCkj00000GeOGx.1
REMARK                            x       y       z     vdW  Elec       q    Type
REMARK                         _______ _______ _______ _____ _____    ______ ____
ROOT
ATOM      1  N   LIG    1        1.421  -0.418  -0.044  0.00  0.00    -0.400 N 
ATOM      2  C   LIG    1        2.191   0.705   0.550  0.00  0.00    +0.300 C 
ATOM      3  C   LIG    1        1.468   1.960  -0.001  0.00  0.00    +0.020 C 
ATOM      4  C   LIG    1       -0.019   1.536   0.011  0.00  0.00    +0.030 C 
ATOM      5  C   LIG    1        0.002  -0.004   0.002  0.00  0.00    +0.310 C 
ATOM      6  H   LIG    1        1.708  -0.572  -0.999  0.00  0.00    +0.440 HD
ENDROOT
BRANCH   3   7
ATOM      7  C   LIG    1        1.692   3.144   0.903  0.00  0.00    +0.530 C 
ATOM      8  O   LIG    1        0.761   3.625   1.514  0.00  0.00    -0.510 OA
ATOM      9  N   LIG    1        2.926   3.669   1.033  0.00  0.00    -0.840 N 
ATOM     10  H   LIG    1        3.071   4.432   1.615  0.00  0.00    +0.420 HD
ATOM     11  H   LIG    1        3.671   3.284   0.544  0.00  0.00    +0.410 HD
ENDBRANCH   3   7
BRANCH   4  12
ATOM     12  C   LIG    1       -0.732   2.064  -1.236  0.00  0.00    +0.460 C 
ATOM     13  F   LIG    1       -0.078   1.595  -2.381  0.00  0.00    -0.180 F 
ATOM     14  F   LIG    1       -0.712   3.463  -1.227  0.00  0.00    -0.160 F 
ATOM     15  F   LIG    1       -2.057   1.617  -1.240  0.00  0.00    -0.160 F 
ENDBRANCH   4  12
BRANCH   1  16
ATOM     16  C   LIG    1        1.618  -1.641   0.747  0.00  0.00    +0.410 C 
BRANCH  16  20
ATOM     17  C   LIG    1        4.812  -3.134  -0.141  0.00  0.00    +0.260 A 
ATOM     18  N   LIG    1        5.168  -2.414   0.885  0.00  0.00    -0.480 NA
ATOM     19  C   LIG    1        4.085  -1.772   1.358  0.00  0.00    +0.240 A 
ATOM     20  C   LIG    1        3.039  -2.117   0.590  0.00  0.00    -0.160 A 
ATOM     21  O   LIG    1        3.497  -2.974  -0.343  0.00  0.00    -0.190 OA
BRANCH  17  23
ATOM     22  C   LIG    1        5.760  -5.415  -0.360  0.00  0.00    +0.070 C 
ATOM     23  C   LIG    1        5.727  -4.008  -0.960  0.00  0.00    +0.180 C 
ENDBRANCH  17  23
ENDBRANCH  16  20
ENDBRANCH   1  16
TORSDOF 5
