REMARK  Name = ZINCkj00000GeOGx.2
REMARK                            x       y       z     vdW  Elec       q    Type
REMARK                         _______ _______ _______ _____ _____    ______ ____
ROOT
ATOM      1  N   LIG    1       -0.018   1.481   0.010  0.00  0.00    -0.390 N 
ATOM      2  C   LIG    1        1.399   1.904  -0.001  0.00  0.00    +0.290 C 
ATOM      3  C   LIG    1        2.206   0.761  -0.645  0.00  0.00    +0.020 C 
ATOM      4  C   LIG    1        1.166  -0.338  -0.964  0.00  0.00    +0.020 C 
ATOM      5  C   LIG    1        0.002  -0.004   0.002  0.00  0.00    +0.310 C 
ATOM      6  H   LIG    1       -0.491   1.827  -0.811  0.00  0.00    +0.440 HD
ENDROOT
BRANCH   3   7
ATOM      7  C   LIG    1        2.869   1.238  -1.911  0.00  0.00    +0.520 C 
ATOM      8  O   LIG    1        2.554   0.757  -2.979  0.00  0.00    -0.510 OA
ATOM      9  N   LIG    1        3.813   2.199  -1.857  0.00  0.00    -0.840 N 
ATOM     10  H   LIG    1        4.240   2.506  -2.672  0.00  0.00    +0.420 HD
ATOM     11  H   LIG    1        4.065   2.583  -1.003  0.00  0.00    +0.410 HD
ENDBRANCH   3   7
BRANCH   4  12
ATOM     12  C   LIG    1        1.736  -1.726  -0.667  0.00  0.00    +0.470 C 
ATOM     13  F   LIG    1        2.185  -1.771   0.658  0.00  0.00    -0.170 F 
ATOM     14  F   LIG    1        2.805  -1.986  -1.531  0.00  0.00    -0.160 F 
ATOM     15  F   LIG    1        0.740  -2.689  -0.855  0.00  0.00    -0.170 F 
ENDBRANCH   4  12
BRANCH   1  16
ATOM     16  C   LIG    1       -0.683   1.972   1.224  0.00  0.00    +0.420 C 
BRANCH  16  20
ATOM     17  C   LIG    1       -0.389   5.593   1.364  0.00  0.00    +0.260 A 
ATOM     18  N   LIG    1       -1.547   5.476   0.778  0.00  0.00    -0.480 NA
ATOM     19  C   LIG    1       -1.829   4.168   0.638  0.00  0.00    +0.250 A 
ATOM     20  C   LIG    1       -0.805   3.473   1.159  0.00  0.00    -0.160 A 
ATOM     21  O   LIG    1        0.091   4.369   1.617  0.00  0.00    -0.190 OA
BRANCH  17  23
ATOM     22  C   LIG    1       -0.128   7.335   3.109  0.00  0.00    +0.070 C 
ATOM     23  C   LIG    1        0.293   6.893   1.706  0.00  0.00    +0.180 C 
ENDBRANCH  17  23
ENDBRANCH  16  20
ENDBRANCH   1  16
TORSDOF 5
