REMARK  Name = ZINCnE00000dPNnc.0
REMARK                            x       y       z     vdW  Elec       q    Type
REMARK                         _______ _______ _______ _____ _____    ______ ____
ROOT
ATOM      1  C   LIG    1        1.178   1.788   0.000  0.00  0.00    +0.220 A 
ATOM      2  C   LIG    1       -0.013   1.076   0.008  0.00  0.00    -0.020 A 
ATOM      3  C   LIG    1       -1.226   1.758   0.017  0.00  0.00    +0.020 A 
ATOM      4  C   LIG    1       -1.239   3.151   0.030  0.00  0.00    +0.010 A 
ATOM      5  C   LIG    1       -0.050   3.853   0.023  0.00  0.00    -0.140 A 
ATOM      6  C   LIG    1        1.156   3.177   0.008  0.00  0.00    -0.030 A 
ENDROOT
BRANCH   3   7
ATOM      7  C   LIG    1       -2.504   1.002   0.020  0.00  0.00    -0.030 A 
ATOM      8  C   LIG    1       -3.719   1.685   0.029  0.00  0.00    -0.040 A 
ATOM      9  C   LIG    1       -4.907   0.981   0.031  0.00  0.00    +0.040 A 
ATOM     10  C   LIG    1       -4.896  -0.401   0.023  0.00  0.00    -0.060 A 
ATOM     11  C   LIG    1       -3.689  -1.090   0.014  0.00  0.00    +0.230 A 
ATOM     12  C   LIG    1       -2.492  -0.390   0.007  0.00  0.00    +0.010 A 
BRANCH  11  13
ATOM     13  N   LIG    1       -3.682  -2.488   0.005  0.00  0.00    -0.350 N 
ATOM     14  C   LIG    1       -4.785  -3.295   0.010  0.00  0.00    +0.180 A 
ATOM     15  C   LIG    1       -4.373  -4.579  -0.005  0.00  0.00    -0.230 A 
ATOM     16  C   LIG    1       -2.958  -4.587  -0.011  0.00  0.00    +0.430 A 
ATOM     17  O   LIG    1       -2.244  -5.574  -0.019  0.00  0.00    -0.660 OA
ATOM     18  N   LIG    1       -2.543  -3.304  -0.004  0.00  0.00    -0.500 NA
ENDBRANCH  11  13
ENDBRANCH   3   7
BRANCH   5  19
ATOM     19  C   LIG    1       -0.066   5.360   0.031  0.00  0.00    +0.510 C 
ATOM     20  F   LIG    1       -0.720   5.812   1.183  0.00  0.00    -0.180 F 
ATOM     21  F   LIG    1       -0.742   5.825  -1.102  0.00  0.00    -0.180 F 
ATOM     22  F   LIG    1        1.247   5.841   0.022  0.00  0.00    -0.180 F 
ENDBRANCH   5  19
BRANCH   1  23
ATOM     23  N   LIG    1        2.398   1.108  -0.014  0.00  0.00    -0.870 N 
ATOM     24  H   LIG    1        3.231   1.606  -0.019  0.00  0.00    +0.400 HD
ATOM     25  H   LIG    1        2.413   0.138  -0.019  0.00  0.00    +0.400 HD
ENDBRANCH   1  23
TORSDOF 4
