REMARK  Name = ZINCzw000000054Y.0
REMARK                            x       y       z     vdW  Elec       q    Type
REMARK                         _______ _______ _______ _____ _____    ______ ____
ROOT
ATOM      1  N   LIG    1       -3.527   2.668  -1.616  0.00  0.00    -0.720 N 
ATOM      2  H   LIG    1       -3.716   3.261  -0.872  0.00  0.00    +0.400 HD
ATOM      3  C   LIG    1       -3.107   1.409  -1.383  0.00  0.00    +0.500 C 
ATOM      4  O   LIG    1       -2.870   0.667  -2.314  0.00  0.00    -0.500 OA
ENDROOT
BRANCH   1   9
ATOM      5  C   LIG    1       -3.412   6.307  -5.593  0.00  0.00    +0.540 C 
ATOM      6  N   LIG    1       -3.615   5.099  -5.031  0.00  0.00    -0.600 N 
ATOM      7  C   LIG    1       -4.923   4.749  -4.459  0.00  0.00    +0.280 C 
ATOM      8  C   LIG    1       -4.720   4.281  -3.015  0.00  0.00    +0.030 C 
ATOM      9  C   LIG    1       -3.699   3.141  -2.991  0.00  0.00    +0.250 C 
ATOM     10  C   LIG    1       -2.357   3.644  -3.529  0.00  0.00    +0.010 C 
ATOM     11  C   LIG    1       -2.533   4.106  -4.979  0.00  0.00    +0.290 C 
ATOM     12  O   LIG    1       -2.302   6.620  -5.977  0.00  0.00    -0.530 OA
BRANCH   5  14
ATOM     13  C   LIG    1       -4.357   8.397  -6.385  0.00  0.00    +0.000 C 
ATOM     14  C   LIG    1       -4.534   7.247  -5.742  0.00  0.00    +0.010 C 
BRANCH  13  15
ATOM     15  C   LIG    1       -5.506   9.360  -6.538  0.00  0.00    +0.320 C 
BRANCH  15  16
ATOM     16  N   LIG    1       -5.118  10.674  -6.009  0.00  0.00    -0.390 N 
ATOM     17  C   LIG    1       -4.033  11.231  -6.828  0.00  0.00    +0.330 C 
ATOM     18  H   LIG    1       -4.802  10.573  -5.056  0.00  0.00    +0.430 HD
BRANCH  16  19
ATOM     19  C   LIG    1       -6.274  11.579  -6.048  0.00  0.00    +0.430 C 
BRANCH  19  21
ATOM     20  C   LIG    1       -5.637  13.875  -4.898  0.00  0.00    +0.190 C 
ATOM     21  C   LIG    1       -5.920  12.856  -5.408  0.00  0.00    -0.300 C 
ENDBRANCH  19  21
ENDBRANCH  16  19
ENDBRANCH  15  16
ENDBRANCH  13  15
ENDBRANCH   5  14
ENDBRANCH   1   9
BRANCH   3  22
ATOM     22  C   LIG    1       -2.930   0.922   0.032  0.00  0.00    +0.340 C 
BRANCH  22  23
ATOM     23  N   LIG    1       -2.468  -0.468   0.016  0.00  0.00    -0.480 N 
ATOM     24  C   LIG    1       -3.266  -1.598   0.019  0.00  0.00    +0.070 A 
ATOM     25  C   LIG    1       -4.637  -1.805   0.035  0.00  0.00    +0.010 A 
ATOM     26  C   LIG    1       -5.138  -3.091   0.033  0.00  0.00    +0.040 A 
ATOM     27  C   LIG    1       -4.279  -4.180   0.014  0.00  0.00    +0.000 A 
ATOM     28  C   LIG    1       -2.915  -3.994  -0.002  0.00  0.00    +0.070 A 
ATOM     29  C   LIG    1       -2.390  -2.698   0.000  0.00  0.00    +0.050 A 
ATOM     30  N   LIG    1       -1.127  -2.206  -0.018  0.00  0.00    -0.460 NA
ATOM     31  C   LIG    1       -1.165  -0.893  -0.004  0.00  0.00    +0.370 A 
BRANCH  31  32
ATOM     32  C   LIG    1        0.013  -0.012  -0.013  0.00  0.00    -0.190 A 
ATOM     33  C   LIG    1        1.307  -0.410  -0.033  0.00  0.00    +0.140 A 
ATOM     34  N   LIG    1        2.172   0.577  -0.039  0.00  0.00    -0.460 NA
ATOM     35  C   LIG    1        1.701   1.780  -0.026  0.00  0.00    +0.250 A 
ATOM     36  C   LIG    1        1.718  -1.860  -0.046  0.00  0.00    +0.170 C 
ATOM     37  S   LIG    1       -0.008   1.750  -0.003  0.00  0.00    +0.120 S 
ENDBRANCH  31  32
ENDBRANCH  22  23
ENDBRANCH   3  22
TORSDOF 9
