REMARK  Name = ZINCzw000000054Y.1
REMARK                            x       y       z     vdW  Elec       q    Type
REMARK                         _______ _______ _______ _____ _____    ______ ____
ROOT
ATOM      1  N   LIG    1        5.386  -0.583   2.481  0.00  0.00    -0.720 N 
ATOM      2  H   LIG    1        5.388  -0.073   3.306  0.00  0.00    +0.400 HD
ATOM      3  C   LIG    1        6.085  -1.733   2.398  0.00  0.00    +0.500 C 
ATOM      4  O   LIG    1        6.084  -2.370   1.367  0.00  0.00    -0.500 OA
ENDROOT
BRANCH   1   9
ATOM      5  C   LIG    1        1.251   1.829  -0.000  0.00  0.00    +0.540 C 
ATOM      6  N   LIG    1        2.426   1.174   0.087  0.00  0.00    -0.600 N 
ATOM      7  C   LIG    1        2.466  -0.295   0.086  0.00  0.00    +0.270 C 
ATOM      8  C   LIG    1        3.247  -0.771   1.310  0.00  0.00    +0.010 C 
ATOM      9  C   LIG    1        4.625  -0.104   1.325  0.00  0.00    +0.250 C 
ATOM     10  C   LIG    1        4.457   1.414   1.418  0.00  0.00    +0.030 C 
ATOM     11  C   LIG    1        3.690   1.915   0.190  0.00  0.00    +0.290 C 
ATOM     12  O   LIG    1        1.236   3.041  -0.088  0.00  0.00    -0.530 OA
BRANCH   5  14
ATOM     13  C   LIG    1       -1.173   1.726   0.030  0.00  0.00    +0.000 C 
ATOM     14  C   LIG    1       -0.013   1.076   0.012  0.00  0.00    +0.010 C 
BRANCH  13  15
ATOM     15  C   LIG    1       -2.468   0.955   0.035  0.00  0.00    +0.320 C 
BRANCH  15  16
ATOM     16  N   LIG    1       -3.284   1.376   1.182  0.00  0.00    -0.390 N 
ATOM     17  C   LIG    1       -2.604   1.003   2.430  0.00  0.00    +0.310 C 
ATOM     18  H   LIG    1       -3.411   2.377   1.155  0.00  0.00    +0.430 HD
BRANCH  16  19
ATOM     19  C   LIG    1       -4.593   0.714   1.121  0.00  0.00    +0.430 C 
BRANCH  19  21
ATOM     20  C   LIG    1       -6.138   1.634   3.063  0.00  0.00    +0.190 C 
ATOM     21  C   LIG    1       -5.453   1.226   2.201  0.00  0.00    -0.300 C 
ENDBRANCH  19  21
ENDBRANCH  16  19
ENDBRANCH  15  16
ENDBRANCH  13  15
ENDBRANCH   5  14
ENDBRANCH   1   9
BRANCH   3  22
ATOM     22  C   LIG    1        6.869  -2.225   3.587  0.00  0.00    +0.340 C 
BRANCH  22  23
ATOM     23  N   LIG    1        7.535  -3.484   3.245  0.00  0.00    -0.480 N 
ATOM     24  C   LIG    1        8.799  -3.623   2.702  0.00  0.00    +0.070 A 
ATOM     25  C   LIG    1        9.786  -2.724   2.325  0.00  0.00    +0.010 A 
ATOM     26  C   LIG    1       10.974  -3.190   1.799  0.00  0.00    +0.040 A 
ATOM     27  C   LIG    1       11.189  -4.551   1.644  0.00  0.00    +0.010 A 
ATOM     28  C   LIG    1       10.222  -5.458   2.013  0.00  0.00    +0.070 A 
ATOM     29  C   LIG    1        9.012  -5.005   2.547  0.00  0.00    +0.050 A 
ATOM     30  N   LIG    1        7.897  -5.635   2.992  0.00  0.00    -0.460 NA
ATOM     31  C   LIG    1        7.025  -4.746   3.410  0.00  0.00    +0.370 A 
BRANCH  31  32
ATOM     32  C   LIG    1        5.699  -5.057   3.967  0.00  0.00    -0.180 A 
ATOM     33  C   LIG    1        5.174  -6.294   4.133  0.00  0.00    +0.140 A 
ATOM     34  N   LIG    1        3.971  -6.301   4.657  0.00  0.00    -0.460 NA
ATOM     35  C   LIG    1        3.438  -5.157   4.936  0.00  0.00    +0.250 A 
ATOM     36  C   LIG    1        5.909  -7.554   3.754  0.00  0.00    +0.170 C 
ATOM     37  S   LIG    1        4.508  -3.887   4.530  0.00  0.00    +0.120 S 
ENDBRANCH  31  32
ENDBRANCH  22  23
ENDBRANCH   3  22
TORSDOF 9
