REMARK  Name = ZINCnE000001Cmll.0
REMARK                            x       y       z     vdW  Elec       q    Type
REMARK                         _______ _______ _______ _____ _____    ______ ____
ROOT
ATOM      1  C   LIG    1       -0.187  -4.538  -0.019  0.00  0.00    +0.300 A 
ATOM      2  N   LIG    1       -0.138  -5.284   1.043  0.00  0.00    -0.450 NA
ATOM      3  C   LIG    1       -0.087  -6.589   0.660  0.00  0.00    +0.030 A 
ATOM      4  C   LIG    1       -0.026  -7.798   1.354  0.00  0.00    +0.190 A 
ATOM      5  C   LIG    1        0.022  -8.984   0.657  0.00  0.00    -0.050 A 
ATOM      6  C   LIG    1        0.010  -8.985  -0.730  0.00  0.00    +0.120 A 
ATOM      7  C   LIG    1       -0.050  -7.797  -1.429  0.00  0.00    +0.080 A 
ATOM      8  C   LIG    1       -0.100  -6.593  -0.743  0.00  0.00    +0.050 A 
ATOM      9  O   LIG    1       -0.162  -5.298  -1.124  0.00  0.00    -0.190 OA
ENDROOT
BRANCH   5  10
ATOM     10  N   LIG    1        0.087 -10.267   1.392  0.00  0.00    +0.030 N 
ATOM     11  O   LIG    1        0.129 -11.319   0.779  0.00  0.00    -0.150 OA
ATOM     12  O   LIG    1        0.097 -10.272   2.610  0.00  0.00    -0.150 OA
ENDBRANCH   5  10
BRANCH   1  13
ATOM     13  C   LIG    1       -0.256  -3.032  -0.011  0.00  0.00    +0.240 C 
BRANCH  13  14
ATOM     14  S   LIG    1        1.425  -2.350  -0.023  0.00  0.00    +0.010 S 
BRANCH  14  19
ATOM     15  N   LIG    1        1.442   3.282   0.005  0.00  0.00    -0.630 NA
ATOM     16  C   LIG    1        1.199   1.993   0.001  0.00  0.00    +0.330 A 
ATOM     17  N   LIG    1       -0.017   1.373   0.010  0.00  0.00    -0.500 NA
ATOM     18  N   LIG    1        0.002  -0.004   0.002  0.00  0.00    -0.240 NA
ATOM     19  C   LIG    1        1.147  -0.610  -0.012  0.00  0.00    -0.080 A 
ATOM     20  S   LIG    1        2.376   0.666  -0.017  0.00  0.00    -0.090 S 
BRANCH  15  21
ATOM     21  C   LIG    1        0.331   4.237   0.021  0.00  0.00    +0.220 C 
BRANCH  21  23
ATOM     22  C   LIG    1        0.382   6.323   1.289  0.00  0.00    -0.040 C 
ATOM     23  C   LIG    1        0.354   5.013   1.312  0.00  0.00    -0.010 C 
ENDBRANCH  21  23
ENDBRANCH  15  21
ENDBRANCH  14  19
ENDBRANCH  13  14
ENDBRANCH   1  13
TORSDOF 6
