REMARK  Name = ZINCpk00000ebEqn.0
REMARK                            x       y       z     vdW  Elec       q    Type
REMARK                         _______ _______ _______ _____ _____    ______ ____
ROOT
ATOM      1  O   LIG    1       -7.343   5.538  -2.433  0.00  0.00    -0.490 OA
ATOM      2  C   LIG    1       -6.476   5.892  -3.212  0.00  0.00    +0.590 C 
ATOM      3  N   LIG    1       -5.177   5.711  -2.901  0.00  0.00    -0.730 N 
ATOM      4  H   LIG    1       -4.487   5.992  -3.522  0.00  0.00    +0.390 HD
ENDROOT
BRANCH   2   5
ATOM      5  C   LIG    1       -6.845   6.514  -4.484  0.00  0.00    -0.040 A 
ATOM      6  C   LIG    1       -8.141   6.765  -4.953  0.00  0.00    -0.070 A 
ATOM      7  C   LIG    1       -9.444   6.575  -4.478  0.00  0.00    +0.050 A 
ATOM      8  C   LIG    1      -10.501   6.968  -5.244  0.00  0.00    +0.100 A 
ATOM      9  C   LIG    1      -10.315   7.564  -6.493  0.00  0.00    +0.020 A 
ATOM     10  C   LIG    1       -9.077   7.781  -7.006  0.00  0.00    +0.110 A 
ATOM     11  F   LIG    1      -11.757   6.777  -4.784  0.00  0.00    -0.130 F 
ATOM     12  C   LIG    1       -7.940   7.398  -6.265  0.00  0.00    +0.040 A 
ATOM     13  N   LIG    1       -6.633   7.455  -6.451  0.00  0.00    -0.250 NA
ATOM     14  N   LIG    1       -5.995   6.959  -5.453  0.00  0.00    -0.320 N 
ATOM     15  H   LIG    1       -5.029   6.908  -5.395  0.00  0.00    +0.450 HD
ENDBRANCH   2   5
BRANCH   3  16
ATOM     16  C   LIG    1       -4.808   5.088  -1.628  0.00  0.00    +0.260 C 
ATOM     17  C   LIG    1       -3.394   5.532  -1.214  0.00  0.00    +0.050 C 
ATOM     18  C   LIG    1       -2.537   4.253  -1.133  0.00  0.00    -0.020 C 
ATOM     19  C   LIG    1       -3.566   3.119  -0.898  0.00  0.00    +0.020 C 
ATOM     20  C   LIG    1       -4.760   3.554  -1.784  0.00  0.00    +0.150 C 
BRANCH  20  21
ATOM     21  O   LIG    1       -5.973   2.965  -1.311  0.00  0.00    -0.550 OA
ATOM     22  H   LIG    1       -5.998   2.001  -1.386  0.00  0.00    +0.380 HD
ENDBRANCH  20  21
BRANCH  18  23
ATOM     23  C   LIG    1       -1.558   4.338   0.040  0.00  0.00    +0.330 C 
BRANCH  23  24
ATOM     24  N   LIG    1       -0.675   3.169   0.025  0.00  0.00    -0.370 N 
ATOM     25  C   LIG    1        0.674   3.192   0.013  0.00  0.00    +0.220 A 
ATOM     26  C   LIG    1        1.109   1.911   0.002  0.00  0.00    -0.120 A 
ATOM     27  C   LIG    1       -0.013   1.076   0.008  0.00  0.00    +0.220 A 
ATOM     28  N   LIG    1       -1.083   1.829   0.017  0.00  0.00    -0.290 NA
ENDBRANCH  23  24
ENDBRANCH  18  23
ENDBRANCH   3  16
TORSDOF 5
