REMARK  Name = ZINCpk00000ebEqn.1
REMARK                            x       y       z     vdW  Elec       q    Type
REMARK                         _______ _______ _______ _____ _____    ______ ____
ROOT
ATOM      1  O   LIG    1        0.002  -0.004   0.002  0.00  0.00    -0.500 OA
ATOM      2  C   LIG    1       -0.014   1.212   0.009  0.00  0.00    +0.600 C 
ATOM      3  N   LIG    1       -1.191   1.870   0.018  0.00  0.00    -0.710 N 
ATOM      4  H   LIG    1       -1.204   2.840   0.023  0.00  0.00    +0.410 HD
ENDROOT
BRANCH   2   5
ATOM      5  C   LIG    1        1.252   1.966   0.001  0.00  0.00    +0.000 A 
ATOM      6  N   LIG    1        1.390   3.275   0.001  0.00  0.00    -0.200 NA
ATOM      7  N   LIG    1        2.624   3.627  -0.004  0.00  0.00    -0.410 N 
ATOM      8  H   LIG    1        2.931   4.547  -0.002  0.00  0.00    +0.450 HD
ATOM      9  C   LIG    1        3.453   2.534  -0.017  0.00  0.00    +0.050 A 
ATOM     10  C   LIG    1        4.832   2.355  -0.032  0.00  0.00    +0.050 A 
ATOM     11  C   LIG    1        5.358   1.083  -0.044  0.00  0.00    +0.040 A 
ATOM     12  C   LIG    1        4.524  -0.030  -0.043  0.00  0.00    +0.080 A 
ATOM     13  C   LIG    1        3.154   0.126  -0.028  0.00  0.00    +0.070 A 
ATOM     14  F   LIG    1        5.059  -1.271  -0.055  0.00  0.00    -0.130 F 
ATOM     15  C   LIG    1        2.610   1.406  -0.015  0.00  0.00    -0.080 A 
ENDBRANCH   2   5
BRANCH   3  16
ATOM     16  C   LIG    1       -2.449   1.120   0.020  0.00  0.00    +0.260 C 
ATOM     17  C   LIG    1       -3.583   1.992  -0.549  0.00  0.00    +0.050 C 
ATOM     18  C   LIG    1       -4.633   2.135   0.571  0.00  0.00    -0.020 C 
ATOM     19  C   LIG    1       -4.393   0.902   1.477  0.00  0.00    +0.020 C 
ATOM     20  C   LIG    1       -2.851   0.765   1.466  0.00  0.00    +0.150 C 
BRANCH  20  21
ATOM     21  O   LIG    1       -2.466  -0.576   1.777  0.00  0.00    -0.550 OA
ATOM     22  H   LIG    1       -2.694  -0.852   2.675  0.00  0.00    +0.380 HD
ENDBRANCH  20  21
BRANCH  18  23
ATOM     23  C   LIG    1       -6.047   2.104  -0.013  0.00  0.00    +0.330 C 
BRANCH  23  24
ATOM     24  N   LIG    1       -7.024   2.271   1.065  0.00  0.00    -0.370 N 
ATOM     25  C   LIG    1       -7.993   3.209   1.120  0.00  0.00    +0.220 A 
ATOM     26  C   LIG    1       -8.680   3.026   2.271  0.00  0.00    -0.120 A 
ATOM     27  C   LIG    1       -8.112   1.939   2.943  0.00  0.00    +0.220 A 
ATOM     28  N   LIG    1       -7.123   1.482   2.218  0.00  0.00    -0.290 NA
ENDBRANCH  23  24
ENDBRANCH  18  23
ENDBRANCH   3  16
TORSDOF 5
