REMARK  Name = ZINCpk00000kJT57.0
REMARK                            x       y       z     vdW  Elec       q    Type
REMARK                         _______ _______ _______ _____ _____    ______ ____
ROOT
ATOM      1  C   LIG    1        2.515   1.478  -0.014  0.00  0.00    +0.600 C 
ATOM      2  N   LIG    1        3.505   2.392  -0.019  0.00  0.00    -0.710 N 
ATOM      3  H   LIG    1        3.292   3.339  -0.011  0.00  0.00    +0.410 HD
ATOM      4  O   LIG    1        2.782   0.292  -0.023  0.00  0.00    -0.500 OA
ENDROOT
BRANCH   1  12
ATOM      5  C   LIG    1       -3.001   0.163   0.030  0.00  0.00    +0.130 C 
ATOM      6  C   LIG    1       -2.521   1.591   0.033  0.00  0.00    -0.070 A 
ATOM      7  C   LIG    1       -3.414   2.617   0.047  0.00  0.00    +0.050 A 
ATOM      8  C   LIG    1       -2.949   3.943   0.050  0.00  0.00    +0.020 A 
ATOM      9  C   LIG    1       -1.625   4.203   0.039  0.00  0.00    +0.260 A 
ATOM     10  N   LIG    1       -0.715   3.184   0.025  0.00  0.00    -0.260 N 
ATOM     11  N   LIG    1        0.686   3.175   0.012  0.00  0.00    -0.290 NA
ATOM     12  C   LIG    1        1.104   1.918   0.002  0.00  0.00    +0.060 A 
ATOM     13  C   LIG    1       -0.013   1.076   0.008  0.00  0.00    -0.050 A 
ATOM     14  C   LIG    1       -1.141   1.880   0.017  0.00  0.00    +0.100 A 
ENDBRANCH   1  12
BRANCH   2  15
ATOM     15  C   LIG    1        4.904   1.957  -0.034  0.00  0.00    +0.260 C 
ATOM     16  C   LIG    1        5.824   3.066   0.534  0.00  0.00    +0.050 C 
ATOM     17  C   LIG    1        7.197   2.728  -0.098  0.00  0.00    -0.010 C 
ATOM     18  C   LIG    1        6.852   2.256  -1.525  0.00  0.00    +0.000 C 
ATOM     19  C   LIG    1        5.393   1.762  -1.484  0.00  0.00    +0.150 C 
BRANCH  19  20
ATOM     20  O   LIG    1        5.331   0.379  -1.840  0.00  0.00    -0.550 OA
ATOM     21  H   LIG    1        5.625   0.191  -2.742  0.00  0.00    +0.380 HD
ENDBRANCH  19  20
BRANCH  17  22
ATOM     22  C   LIG    1        8.086   3.972  -0.143  0.00  0.00    +0.310 C 
BRANCH  22  23
ATOM     23  N   LIG    1        9.418   3.604  -0.632  0.00  0.00    -0.460 N 
ATOM     24  C   LIG    1       10.483   3.209   0.132  0.00  0.00    +0.110 A 
ATOM     25  C   LIG    1       11.500   2.964  -0.715  0.00  0.00    +0.140 A 
ATOM     26  N   LIG    1       11.071   3.212  -1.962  0.00  0.00    -0.490 NA
ATOM     27  C   LIG    1        9.824   3.595  -1.919  0.00  0.00    +0.380 A 
ENDBRANCH  22  23
ENDBRANCH  17  22
ENDBRANCH   2  15
TORSDOF 5
