REMARK  Name = ZINCrD0000073udH.0
REMARK                            x       y       z     vdW  Elec       q    Type
REMARK                         _______ _______ _______ _____ _____    ______ ____
ROOT
ATOM      1  N   LIG    1        1.149   1.906  -0.014  0.00  0.00    -0.660 N 
ATOM      2  H   LIG    1        1.141   2.874  -0.085  0.00  0.00    +0.430 HD
ATOM      3  C   LIG    1       -0.011   1.221  -0.009  0.00  0.00    +0.530 C 
ATOM      4  O   LIG    1        0.001   0.008  -0.001  0.00  0.00    -0.490 OA
ENDROOT
BRANCH   1   8
ATOM      5  C   LIG    1        4.776  -0.130   0.277  0.00  0.00    +0.120 A 
ATOM      6  C   LIG    1        3.718  -0.695  -0.419  0.00  0.00    +0.020 A 
ATOM      7  C   LIG    1        2.516  -0.021  -0.515  0.00  0.00    +0.090 A 
ATOM      8  C   LIG    1        2.368   1.222   0.084  0.00  0.00    +0.180 A 
ATOM      9  C   LIG    1        3.429   1.789   0.776  0.00  0.00    -0.030 A 
ATOM     10  C   LIG    1        4.629   1.112   0.876  0.00  0.00    +0.100 A 
BRANCH   9  11
ATOM     11  N   LIG    1        3.274   3.117   1.411  0.00  0.00    +0.040 N 
ATOM     12  O   LIG    1        2.188   3.668   1.412  0.00  0.00    -0.180 OA
ATOM     13  O   LIG    1        4.232   3.659   1.933  0.00  0.00    -0.140 OA
ENDBRANCH   9  11
BRANCH   5  15
ATOM     14  C   LIG    1        6.041  -2.069  -0.270  0.00  0.00    +0.250 C 
ATOM     15  O   LIG    1        5.959  -0.794   0.371  0.00  0.00    -0.310 OA
ENDBRANCH   5  15
ENDBRANCH   1   8
BRANCH   3  16
ATOM     16  C   LIG    1       -1.324   1.961  -0.020  0.00  0.00    +0.200 C 
ATOM     17  C   LIG    1       -1.463   2.734  -1.333  0.00  0.00    +0.080 C 
BRANCH  16  18
ATOM     18  O   LIG    1       -2.416   1.012   0.101  0.00  0.00    -0.330 OA
BRANCH  18  19
ATOM     19  C   LIG    1       -3.538   1.444   0.712  0.00  0.00    +0.550 C 
ATOM     20  O   LIG    1       -3.602   2.583   1.132  0.00  0.00    -0.490 OA
BRANCH  19  21
ATOM     21  C   LIG    1       -4.680   0.541   0.869  0.00  0.00    -0.270 A 
ATOM     22  C   LIG    1       -5.860   0.859   1.464  0.00  0.00    +0.130 A 
ATOM     23  C   LIG    1       -6.783  -0.181   1.483  0.00  0.00    -0.150 A 
ATOM     24  C   LIG    1       -6.342  -1.314   0.910  0.00  0.00    -0.220 A 
ATOM     25  C   LIG    1       -7.413  -2.395   0.977  0.00  0.00    +0.120 C 
ATOM     26  C   LIG    1       -8.398  -1.911   2.059  0.00  0.00    +0.040 C 
ATOM     27  C   LIG    1       -8.208  -0.383   1.998  0.00  0.00    +0.100 C 
ATOM     28  S   LIG    1       -4.746  -1.122   0.312  0.00  0.00    +0.280 S 
ENDBRANCH  19  21
ENDBRANCH  18  19
ENDBRANCH  16  18
ENDBRANCH   3  16
TORSDOF 7
