REMARK  Name = ZINCrH00000No4Ao.0
REMARK                            x       y       z     vdW  Elec       q    Type
REMARK                         _______ _______ _______ _____ _____    ______ ____
ROOT
ATOM      1  C   LIG    1        1.284   1.805  -0.001  0.00  0.00    +0.560 A 
ATOM      2  N   LIG    1        2.087   0.770  -0.014  0.00  0.00    -0.540 NA
ATOM      3  C   LIG    1        1.357  -0.376  -0.013  0.00  0.00    +0.090 A 
ATOM      4  C   LIG    1        1.698  -1.730  -0.022  0.00  0.00    +0.050 A 
ATOM      5  C   LIG    1        0.705  -2.686  -0.019  0.00  0.00    +0.010 A 
ATOM      6  C   LIG    1       -0.630  -2.313  -0.004  0.00  0.00    +0.010 A 
ATOM      7  C   LIG    1       -0.983  -0.979   0.006  0.00  0.00    +0.020 A 
ATOM      8  C   LIG    1        0.002  -0.004   0.002  0.00  0.00    +0.040 A 
ATOM      9  N   LIG    1       -0.017   1.383   0.010  0.00  0.00    -0.470 N 
ENDROOT
BRANCH   9  10
ATOM     10  C   LIG    1       -1.156   2.199   0.020  0.00  0.00    +0.120 A 
ATOM     11  C   LIG    1       -1.428   3.027  -1.061  0.00  0.00    +0.010 A 
ATOM     12  C   LIG    1       -2.554   3.826  -1.050  0.00  0.00    +0.030 A 
ATOM     13  C   LIG    1       -3.404   3.811   0.040  0.00  0.00    +0.020 A 
ATOM     14  C   LIG    1       -3.133   2.991   1.120  0.00  0.00    +0.030 A 
ATOM     15  C   LIG    1       -2.011   2.186   1.113  0.00  0.00    +0.020 A 
ENDBRANCH   9  10
BRANCH   1  16
ATOM     16  N   LIG    1        1.690   3.123   0.002  0.00  0.00    -0.700 N 
ATOM     17  H   LIG    1        1.030   3.833   0.012  0.00  0.00    +0.410 HD
BRANCH  16  24
ATOM     18  O   LIG    1        6.569   5.146   3.493  0.00  0.00    -0.910 OA
ATOM     19  S   LIG    1        6.540   6.180   2.520  0.00  0.00    +2.400 S 
ATOM     20  C   LIG    1        6.841   5.569   0.838  0.00  0.00    -0.310 C 
ATOM     21  C   LIG    1        5.388   5.098   0.753  0.00  0.00    -0.040 C 
ATOM     22  C   LIG    1        4.812   5.167  -0.663  0.00  0.00    +0.080 C 
ATOM     23  C   LIG    1        3.317   4.840  -0.615  0.00  0.00    +0.010 C 
ATOM     24  C   LIG    1        3.118   3.450  -0.010  0.00  0.00    +0.270 C 
ATOM     25  C   LIG    1        3.657   3.429   1.422  0.00  0.00    +0.010 C 
ATOM     26  C   LIG    1        5.157   3.733   1.407  0.00  0.00    +0.060 C 
ATOM     27  O   LIG    1        7.114   7.460   2.750  0.00  0.00    -0.930 OA
ATOM     28  C   LIG    1        4.958   6.269   1.637  0.00  0.00    -0.310 C 
ENDBRANCH  16  24
ENDBRANCH   1  16
TORSDOF 3
