REMARK  Name = ZINCrg00000SjSzP.0
REMARK                            x       y       z     vdW  Elec       q    Type
REMARK                         _______ _______ _______ _____ _____    ______ ____
ROOT
ATOM      1  N   LIG    1       -1.236   2.069   0.019  0.00  0.00    -0.650 N 
ATOM      2  H   LIG    1       -2.068   1.578  -0.060  0.00  0.00    +0.430 HD
ATOM      3  C   LIG    1       -1.254   3.412   0.128  0.00  0.00    +0.580 C 
ATOM      4  O   LIG    1       -0.210   4.037   0.127  0.00  0.00    -0.480 OA
ENDROOT
BRANCH   1  11
ATOM      5  C   LIG    1       -1.124  -0.477  -1.248  0.00  0.00    +0.110 C 
ATOM      6  C   LIG    1        0.083   0.140  -0.589  0.00  0.00    -0.110 A 
ATOM      7  C   LIG    1        1.290  -0.531  -0.591  0.00  0.00    +0.130 A 
ATOM      8  C   LIG    1        2.398   0.033   0.014  0.00  0.00    -0.060 A 
ATOM      9  C   LIG    1        2.301   1.271   0.622  0.00  0.00    +0.130 A 
ATOM     10  C   LIG    1        1.098   1.948   0.627  0.00  0.00    +0.040 A 
ATOM     11  C   LIG    1       -0.017   1.384   0.021  0.00  0.00    +0.200 A 
BRANCH   8  12
ATOM     12  N   LIG    1        3.689  -0.689   0.011  0.00  0.00    +0.030 N 
ATOM     13  O   LIG    1        4.666  -0.193   0.543  0.00  0.00    -0.160 OA
ATOM     14  O   LIG    1        3.776  -1.780  -0.525  0.00  0.00    -0.160 OA
ENDBRANCH   8  12
ENDBRANCH   1  11
BRANCH   3  15
ATOM     15  C   LIG    1       -2.533   4.121   0.249  0.00  0.00    +0.080 C 
ATOM     16  N   LIG    1       -3.641   3.446   0.249  0.00  0.00    -0.200 NA
ATOM     17  N   LIG    1       -4.878   4.088   0.360  0.00  0.00    -0.440 N 
ATOM     18  C   LIG    1       -4.992   5.403   0.086  0.00  0.00    +0.500 C 
ATOM     19  C   LIG    1       -3.776   6.187  -0.336  0.00  0.00    +0.100 C 
ATOM     20  O   LIG    1       -6.069   5.953   0.179  0.00  0.00    -0.500 OA
ATOM     21  C   LIG    1       -2.541   5.621   0.376  0.00  0.00    +0.120 C 
BRANCH  17  22
ATOM     22  C   LIG    1       -6.059   3.327   0.777  0.00  0.00    +0.300 C 
ATOM     23  C   LIG    1       -6.327   2.185  -0.219  0.00  0.00    +0.080 C 
ATOM     24  C   LIG    1       -7.342   1.209   0.410  0.00  0.00    -0.300 C 
ATOM     25  S   LIG    1       -7.093   1.362   2.216  0.00  0.00    +2.400 S 
ATOM     26  O   LIG    1       -6.526   0.159   2.716  0.00  0.00    -0.930 OA
ATOM     27  O   LIG    1       -8.270   1.893   2.809  0.00  0.00    -0.920 OA
ATOM     28  C   LIG    1       -5.803   2.663   2.155  0.00  0.00    -0.310 C 
ENDBRANCH  17  22
ENDBRANCH   3  15
TORSDOF 4
