REMARK  Name = ZINCpe00000MJKyZ.0
REMARK                            x       y       z     vdW  Elec       q    Type
REMARK                         _______ _______ _______ _____ _____    ______ ____
ROOT
ATOM      1  C   LIG    1       -2.932   6.407   2.871  0.00  0.00    +0.180 C 
ATOM      2  C   LIG    1       -1.679   6.980   3.535  0.00  0.00    +0.020 C 
ENDROOT
BRANCH   1   7
ATOM      3  C   LIG    1       -1.558   4.338   0.040  0.00  0.00    +0.280 C 
ATOM      4  C   LIG    1       -0.930   5.463  -0.788  0.00  0.00    +0.020 C 
ATOM      5  C   LIG    1       -1.829   6.700  -0.718  0.00  0.00    +0.050 C 
ATOM      6  C   LIG    1       -2.011   7.111   0.745  0.00  0.00    +0.180 C 
ATOM      7  N   LIG    1       -2.615   6.001   1.495  0.00  0.00    -0.510 NA
ATOM      8  C   LIG    1       -1.748   4.817   1.481  0.00  0.00    +0.170 C 
BRANCH   3  12
ATOM      9  C   LIG    1        2.548   1.464  -0.014  0.00  0.00    +0.110 C 
ATOM     10  C   LIG    1        1.109   1.911   0.002  0.00  0.00    -0.240 A 
ATOM     11  C   LIG    1        0.674   3.192   0.013  0.00  0.00    +0.220 A 
ATOM     12  N   LIG    1       -0.675   3.169   0.025  0.00  0.00    -0.370 N 
ATOM     13  N   LIG    1       -1.083   1.829   0.017  0.00  0.00    -0.290 NA
ATOM     14  C   LIG    1       -0.013   1.076   0.008  0.00  0.00    +0.230 A 
ENDBRANCH   3  12
ENDBRANCH   1   7
BRANCH   1  15
ATOM     15  C   LIG    1       -4.013   7.456   2.849  0.00  0.00    +0.530 C 
ATOM     16  N   LIG    1       -4.468   7.979   4.005  0.00  0.00    -0.610 N 
ATOM     17  C   LIG    1       -3.910   7.528   5.282  0.00  0.00    +0.290 C 
ATOM     18  O   LIG    1       -4.475   7.829   1.792  0.00  0.00    -0.510 OA
BRANCH  16  19
ATOM     19  C   LIG    1       -5.519   8.999   3.984  0.00  0.00    +0.280 C 
ATOM     20  C   LIG    1       -6.739   8.501   4.779  0.00  0.00    +0.070 C 
ATOM     21  C   LIG    1       -7.659   9.730   4.997  0.00  0.00    -0.310 C 
ATOM     22  S   LIG    1       -6.463  11.051   5.429  0.00  0.00    +2.390 S 
ATOM     23  O   LIG    1       -6.807  12.245   4.740  0.00  0.00    -0.930 OA
ATOM     24  O   LIG    1       -6.278  11.075   6.838  0.00  0.00    -0.930 OA
ATOM     25  C   LIG    1       -4.998  10.294   4.638  0.00  0.00    -0.320 C 
ENDBRANCH  16  19
ENDBRANCH   1  15
TORSDOF 4
