REMARK  Name = ZINCvU0000000FRa.0
REMARK                            x       y       z     vdW  Elec       q    Type
REMARK                         _______ _______ _______ _____ _____    ______ ____
ROOT
ATOM      1  O   LIG    1        7.087   0.063   1.511  0.00  0.00    -0.560 OA
ATOM      2  C   LIG    1        6.229   0.484   2.263  0.00  0.00    +0.710 C 
ATOM      3  N   LIG    1        5.103   1.029   1.763  0.00  0.00    -0.740 N 
ATOM      4  H   LIG    1        4.418   1.365   2.363  0.00  0.00    +0.400 HD
ATOM      5  N   LIG    1        6.405   0.406   3.597  0.00  0.00    -0.680 N 
ATOM      6  H   LIG    1        5.694   0.681   4.197  0.00  0.00    +0.410 HD
ENDROOT
BRANCH   3   7
ATOM      7  C   LIG    1        4.911   1.113   0.313  0.00  0.00    +0.290 C 
ATOM      8  C   LIG    1        4.288  -0.190  -0.240  0.00  0.00    +0.090 C 
ATOM      9  C   LIG    1        2.800   0.083  -0.243  0.00  0.00    +0.520 C 
ATOM     10  N   LIG    1        2.571   1.402  -0.126  0.00  0.00    -0.560 N 
ATOM     11  O   LIG    1        1.939  -0.766  -0.337  0.00  0.00    -0.500 OA
ATOM     12  C   LIG    1        3.828   2.156  -0.049  0.00  0.00    +0.300 C 
BRANCH  10  13
ATOM     13  C   LIG    1        1.298   1.982  -0.088  0.00  0.00    +0.200 A 
ATOM     14  C   LIG    1        1.161   3.343   0.154  0.00  0.00    -0.020 A 
ATOM     15  C   LIG    1       -0.096   3.914   0.192  0.00  0.00    +0.100 A 
ATOM     16  C   LIG    1       -1.219   3.133  -0.012  0.00  0.00    -0.100 A 
ATOM     17  C   LIG    1       -1.086   1.776  -0.260  0.00  0.00    +0.140 A 
ATOM     18  F   LIG    1       -2.184   1.016  -0.464  0.00  0.00    -0.120 F 
ATOM     19 CL   LIG    1       -2.797   3.855   0.037  0.00  0.00    -0.050 Cl
ATOM     20  C   LIG    1        0.170   1.199  -0.293  0.00  0.00    -0.010 A 
ENDBRANCH  10  13
ENDBRANCH   3   7
BRANCH   5  21
ATOM     21  C   LIG    1        7.613  -0.071   4.116  0.00  0.00    +0.160 A 
ATOM     22  C   LIG    1        8.293  -1.093   3.465  0.00  0.00    +0.030 A 
ATOM     23  C   LIG    1        9.486  -1.562   3.973  0.00  0.00    +0.040 A 
ATOM     24  C   LIG    1       10.005  -1.016   5.145  0.00  0.00    -0.060 A 
ATOM     25  C   LIG    1        9.319   0.006   5.800  0.00  0.00    +0.040 A 
ATOM     26  C   LIG    1        8.129   0.475   5.286  0.00  0.00    -0.010 A 
BRANCH  24  27
ATOM     27  C   LIG    1       11.287  -1.522   5.696  0.00  0.00    -0.050 A 
ATOM     28  C   LIG    1       11.810  -0.973   6.865  0.00  0.00    +0.060 A 
ATOM     29  C   LIG    1       12.999  -1.450   7.377  0.00  0.00    -0.010 A 
ATOM     30  C   LIG    1       13.678  -2.466   6.724  0.00  0.00    +0.100 A 
ATOM     31  C   LIG    1       13.165  -3.011   5.559  0.00  0.00    -0.010 A 
ATOM     32  F   LIG    1       14.845  -2.928   7.226  0.00  0.00    -0.140 F 
ATOM     33  C   LIG    1       11.973  -2.544   5.043  0.00  0.00    +0.060 A 
ENDBRANCH  24  27
ENDBRANCH   5  21
TORSDOF 4
