REMARK  Name = ZINCqH0000003wqp.0
REMARK                            x       y       z     vdW  Elec       q    Type
REMARK                         _______ _______ _______ _____ _____    ______ ____
ROOT
ATOM      1  C   LIG    1       -7.530   4.095  -5.698  0.00  0.00    +0.150 C 
ATOM      2  C   LIG    1       -6.218   3.353  -5.382  0.00  0.00    +0.050 C 
ATOM      3  C   LIG    1       -6.863   2.964  -4.058  0.00  0.00    -0.100 C 
ATOM      4  C   LIG    1       -6.536   1.558  -3.529  0.00  0.00    +0.060 C 
ATOM      5  C   LIG    1       -5.355   1.821  -2.567  0.00  0.00    +0.240 C 
ATOM      6  N   LIG    1       -5.401   3.244  -2.195  0.00  0.00    -0.630 N 
ATOM      7  C   LIG    1       -4.527   3.871  -1.383  0.00  0.00    +0.730 C 
ATOM      8  N   LIG    1       -3.503   3.185  -0.836  0.00  0.00    -0.740 N 
ATOM      9  H   LIG    1       -3.396   2.240  -1.028  0.00  0.00    +0.400 HD
ATOM     10  O   LIG    1       -4.662   5.056  -1.143  0.00  0.00    -0.580 OA
ATOM     11  C   LIG    1       -6.565   3.871  -2.853  0.00  0.00    +0.300 C 
ATOM     12  C   LIG    1       -8.227   3.137  -4.713  0.00  0.00    +0.040 C 
ENDROOT
BRANCH   1  13
ATOM     13  O   LIG    1       -7.963   3.939  -7.051  0.00  0.00    -0.370 OA
BRANCH  13  15
ATOM     14  C   LIG    1       -9.109   4.779  -9.006  0.00  0.00    +0.040 C 
ATOM     15  C   LIG    1       -8.699   5.054  -7.558  0.00  0.00    +0.160 C 
ENDBRANCH  13  15
ENDBRANCH   1  13
BRANCH   8  16
ATOM     16  C   LIG    1       -2.553   3.867   0.046  0.00  0.00    +0.340 C 
BRANCH  16  17
ATOM     17  C   LIG    1       -1.237   3.133   0.030  0.00  0.00    -0.130 A 
ATOM     18  C   LIG    1       -1.218   1.751   0.017  0.00  0.00    +0.060 A 
ATOM     19  C   LIG    1       -0.013   1.076   0.008  0.00  0.00    -0.020 A 
ATOM     20  C   LIG    1        1.179   1.786   0.000  0.00  0.00    +0.130 A 
ATOM     21  C   LIG    1        1.157   3.174   0.008  0.00  0.00    -0.070 A 
ATOM     22  C   LIG    1       -0.051   3.844   0.023  0.00  0.00    +0.070 A 
BRANCH  20  23
ATOM     23  O   LIG    1        2.366   1.125  -0.015  0.00  0.00    -0.320 OA
ATOM     24  C   LIG    1        3.553   1.921  -0.022  0.00  0.00    +0.250 C 
ENDBRANCH  20  23
ENDBRANCH  16  17
BRANCH  16  25
ATOM     25  C   LIG    1       -3.108   3.889   1.472  0.00  0.00    -0.060 C 
ATOM     26  C   LIG    1       -4.367   3.066   1.754  0.00  0.00    +0.010 C 
ATOM     27  C   LIG    1       -4.447   4.593   1.699  0.00  0.00    +0.030 C 
ENDBRANCH  16  25
ENDBRANCH   8  16
TORSDOF 6
