REMARK  Name = ZINCrH000004jJdG.0
REMARK                            x       y       z     vdW  Elec       q    Type
REMARK                         _______ _______ _______ _____ _____    ______ ____
ROOT
ATOM      1  C   LIG    1       -0.531  -0.470  -0.982  0.00  0.00    +0.290 A 
ATOM      2  C   LIG    1       -0.497  -1.851  -1.056  0.00  0.00    -0.130 A 
ATOM      3  C   LIG    1        0.112  -2.575  -0.026  0.00  0.00    +0.530 A 
ATOM      4  N   LIG    1        0.658  -1.937   1.025  0.00  0.00    -0.490 N 
ATOM      5  C   LIG    1        0.639  -0.582   1.114  0.00  0.00    +0.310 A 
ATOM      6  O   LIG    1        0.148  -3.794  -0.081  0.00  0.00    -0.550 OA
ATOM      7  C   LIG    1        0.056   0.171   0.142  0.00  0.00    -0.170 A 
ENDROOT
BRANCH   7   8
ATOM      8  C   LIG    1        0.037   1.650   0.253  0.00  0.00    -0.020 A 
ATOM      9  C   LIG    1       -1.176   2.329   0.350  0.00  0.00    +0.030 A 
ATOM     10  C   LIG    1       -1.187   3.705   0.458  0.00  0.00    +0.000 A 
ATOM     11  C   LIG    1        0.003   4.410   0.460  0.00  0.00    +0.000 A 
ATOM     12  C   LIG    1        1.210   3.742   0.358  0.00  0.00    +0.000 A 
ATOM     13  C   LIG    1        1.233   2.366   0.255  0.00  0.00    +0.010 A 
ENDBRANCH   7   8
BRANCH   1  15
ATOM     14  C   LIG    1       -2.565   0.160  -2.226  0.00  0.00    +0.280 C 
ATOM     15  N   LIG    1       -1.124   0.274  -1.985  0.00  0.00    -0.670 N 
ATOM     16  C   LIG    1       -0.313   1.176  -2.806  0.00  0.00    +0.270 C 
ENDBRANCH   1  15
BRANCH   4  17
ATOM     17  C   LIG    1        1.290  -2.719   2.091  0.00  0.00    +0.340 C 
BRANCH  17  18
ATOM     18  C   LIG    1        2.708  -3.045   1.701  0.00  0.00    -0.110 A 
ATOM     19  C   LIG    1        3.008  -4.284   1.170  0.00  0.00    +0.050 A 
ATOM     20  C   LIG    1        4.309  -4.581   0.806  0.00  0.00    +0.010 A 
ATOM     21  C   LIG    1        5.305  -3.642   0.987  0.00  0.00    +0.030 A 
ATOM     22  C   LIG    1        5.007  -2.401   1.527  0.00  0.00    -0.120 A 
ATOM     23  C   LIG    1        6.123  -1.406   1.715  0.00  0.00    +0.280 C 
ATOM     24  O   LIG    1        5.590  -0.099   1.925  0.00  0.00    -0.370 OA
ATOM     25  C   LIG    1        4.604  -0.052   2.963  0.00  0.00    +0.220 C 
ATOM     26  C   LIG    1        3.343  -0.761   2.466  0.00  0.00    +0.050 C 
ATOM     27  C   LIG    1        3.708  -2.102   1.883  0.00  0.00    -0.060 A 
ENDBRANCH  17  18
ENDBRANCH   4  17
TORSDOF 4
