REMARK  Name = ZINCqH0000006RGh.0
REMARK                            x       y       z     vdW  Elec       q    Type
REMARK                         _______ _______ _______ _____ _____    ______ ____
ROOT
ATOM      1  N   LIG    1       -0.017   1.396   0.010  0.00  0.00    -0.680 N 
ATOM      2  H   LIG    1       -0.881   1.836   0.021  0.00  0.00    +0.410 HD
ATOM      3  C   LIG    1        1.113   2.131   0.004  0.00  0.00    +0.710 C 
ATOM      4  N   LIG    1        1.045   3.473   0.114  0.00  0.00    -0.730 N 
ATOM      5  H   LIG    1        0.183   3.909   0.197  0.00  0.00    +0.400 HD
ATOM      6  O   LIG    1        2.194   1.584  -0.101  0.00  0.00    -0.570 OA
ENDROOT
BRANCH   1   9
ATOM      7  C   LIG    1       -0.804  -2.139   0.669  0.00  0.00    +0.120 A 
ATOM      8  C   LIG    1       -0.876  -0.755   0.692  0.00  0.00    -0.070 A 
ATOM      9  C   LIG    1        0.057  -0.002  -0.007  0.00  0.00    +0.190 A 
ATOM     10  C   LIG    1        1.067  -0.636  -0.718  0.00  0.00    +0.020 A 
ATOM     11  C   LIG    1        1.141  -2.016  -0.734  0.00  0.00    +0.050 A 
ATOM     12  C   LIG    1        0.210  -2.769  -0.043  0.00  0.00    +0.050 A 
ATOM     13  F   LIG    1        0.284  -4.118  -0.061  0.00  0.00    -0.130 F 
BRANCH   7  15
ATOM     14  C   LIG    1       -2.734  -2.165   2.058  0.00  0.00    +0.260 C 
ATOM     15  O   LIG    1       -1.720  -2.879   1.347  0.00  0.00    -0.310 OA
ENDBRANCH   7  15
ENDBRANCH   1   9
BRANCH   4  16
ATOM     16  CA  LIG    1        2.273   4.271   0.108  0.00  0.00    +0.330 C 
BRANCH  16  17
ATOM     17  C   LIG    1        1.962   5.667  -0.368  0.00  0.00    -0.060 A 
ATOM     18  C   LIG    1        0.797   6.292   0.037  0.00  0.00    +0.050 A 
ATOM     19  C   LIG    1        0.514   7.574  -0.395  0.00  0.00    +0.070 A 
ATOM     20  C   LIG    1        1.391   8.228  -1.240  0.00  0.00    -0.180 A 
ATOM     21  C   LIG    1        2.553   7.601  -1.649  0.00  0.00    +0.070 A 
ATOM     22  C   LIG    1        2.839   6.321  -1.213  0.00  0.00    +0.030 A 
BRANCH  20  23
ATOM     23  C   LIG    1        1.080   9.623  -1.716  0.00  0.00    +0.510 C 
ATOM     24  F   LIG    1        2.274  10.317  -1.941  0.00  0.00    -0.180 F 
ATOM     25  F   LIG    1        0.328  10.291  -0.743  0.00  0.00    -0.180 F 
ATOM     26  F   LIG    1        0.348   9.557  -2.907  0.00  0.00    -0.180 F 
ENDBRANCH  20  23
ENDBRANCH  16  17
BRANCH  16  27
ATOM     27  C   LIG    1        2.850   4.331   1.524  0.00  0.00    +0.190 C 
BRANCH  27  28
ATOM     28  O   LIG    1        1.945   5.035   2.377  0.00  0.00    -0.570 OA
ATOM     29  H   LIG    1        2.247   5.112   3.292  0.00  0.00    +0.380 HD
ENDBRANCH  27  28
ENDBRANCH  16  27
ENDBRANCH   4  16
TORSDOF 7
