REMARK  Name = ZINCrD00000rJXly.0
REMARK                            x       y       z     vdW  Elec       q    Type
REMARK                         _______ _______ _______ _____ _____    ______ ____
ROOT
ATOM      1  C   LIG    1        3.634  10.070   0.787  0.00  0.00    -0.010 C 
ATOM      2  C   LIG    1        4.902   9.217   0.879  0.00  0.00    +0.060 C 
ATOM      3  C   LIG    1        4.871   8.145  -0.215  0.00  0.00    +0.280 C 
ATOM      4  N   LIG    1        3.621   7.382  -0.096  0.00  0.00    -0.610 N 
ATOM      5  C   LIG    1        2.346   8.113  -0.087  0.00  0.00    +0.280 C 
ATOM      6  C   LIG    1        3.643   6.038  -0.001  0.00  0.00    +0.550 C 
ATOM      7  O   LIG    1        4.706   5.451   0.081  0.00  0.00    -0.540 OA
ATOM      8  C   LIG    1        2.405   9.185   1.011  0.00  0.00    +0.030 C 
ENDROOT
BRANCH   1  10
ATOM      9  O   LIG    1        4.626  11.224   2.591  0.00  0.00    -0.530 OA
ATOM     10  C   LIG    1        3.676  11.146   1.841  0.00  0.00    +0.520 C 
ATOM     11  N   LIG    1        2.658  12.023   1.950  0.00  0.00    -0.730 N 
ATOM     12  H   LIG    1        1.898  11.960   1.350  0.00  0.00    +0.400 HD
BRANCH  11  13
ATOM     13  C   LIG    1        2.699  13.070   2.974  0.00  0.00    +0.320 C 
BRANCH  13  14
ATOM     14  C   LIG    1        1.451  13.909   2.884  0.00  0.00    -0.110 A 
ATOM     15  C   LIG    1        1.429  15.031   2.076  0.00  0.00    +0.020 A 
ATOM     16  C   LIG    1        0.282  15.798   1.990  0.00  0.00    +0.010 A 
ATOM     17  C   LIG    1       -0.839  15.450   2.720  0.00  0.00    +0.010 A 
ATOM     18  C   LIG    1       -0.815  14.332   3.532  0.00  0.00    +0.010 A 
ATOM     19  C   LIG    1        0.330  13.561   3.614  0.00  0.00    +0.020 A 
ENDBRANCH  13  14
ENDBRANCH  11  13
ENDBRANCH   1  10
BRANCH   6  20
ATOM     20  C   LIG    1        2.389   5.284   0.002  0.00  0.00    -0.090 C 
ATOM     21  C   LIG    1        2.413   3.936  -0.005  0.00  0.00    +0.130 C 
BRANCH  21  22
ATOM     22  C   LIG    1        1.152   3.178  -0.002  0.00  0.00    -0.090 A 
ATOM     23  C   LIG    1        1.173   1.779  -0.009  0.00  0.00    +0.080 A 
ATOM     24  C   LIG    1       -0.011   1.075  -0.007  0.00  0.00    -0.010 A 
ATOM     25  C   LIG    1       -1.223   1.750  -0.003  0.00  0.00    +0.110 A 
ATOM     26  C   LIG    1       -1.251   3.136   0.011  0.00  0.00    -0.020 A 
ATOM     27  F   LIG    1       -2.380   1.054  -0.006  0.00  0.00    -0.140 F 
ATOM     28  C   LIG    1       -0.073   3.852   0.008  0.00  0.00    +0.070 A 
ENDBRANCH  21  22
ENDBRANCH   6  20
TORSDOF 5
