REMARK  Name = ZINCpk00000xK6hp.0
REMARK                            x       y       z     vdW  Elec       q    Type
REMARK                         _______ _______ _______ _____ _____    ______ ____
ROOT
ATOM      1  C   LIG    1       -0.144   1.047  -2.521  0.00  0.00    +0.500 C 
ATOM      2  N   LIG    1       -0.156   1.825  -3.622  0.00  0.00    -0.660 N 
ATOM      3  H   LIG    1       -0.685   2.638  -3.635  0.00  0.00    +0.410 HD
ATOM      4  O   LIG    1        0.440  -0.016  -2.536  0.00  0.00    -0.500 OA
ENDROOT
BRANCH   1  11
ATOM      5  C   LIG    1       -4.752   2.517   1.265  0.00  0.00    +0.100 C 
ATOM      6  C   LIG    1       -4.097   2.188  -0.051  0.00  0.00    +0.520 C 
ATOM      7  N   LIG    1       -2.985   1.427  -0.079  0.00  0.00    -0.610 N 
ATOM      8  C   LIG    1       -2.400   0.910   1.166  0.00  0.00    +0.270 C 
ATOM      9  C   LIG    1       -0.923   1.311   1.220  0.00  0.00    +0.040 C 
ATOM     10  C   LIG    1       -0.220   0.829  -0.052  0.00  0.00    +0.080 C 
ATOM     11  C   LIG    1       -0.857   1.497  -1.272  0.00  0.00    +0.110 C 
ATOM     12  C   LIG    1       -2.334   1.099  -1.355  0.00  0.00    +0.280 C 
ATOM     13  O   LIG    1       -4.570   2.609  -1.086  0.00  0.00    -0.550 OA
BRANCH  11  14
ATOM     14  O   LIG    1       -0.752   2.917  -1.148  0.00  0.00    -0.530 OA
ATOM     15  H   LIG    1       -1.136   3.406  -1.889  0.00  0.00    +0.380 HD
ENDBRANCH  11  14
ENDBRANCH   1  11
BRANCH   2  16
ATOM     16  C   LIG    1        0.596   1.461  -4.744  0.00  0.00    +0.030 A 
ATOM     17  C   LIG    1        0.152   1.765  -6.029  0.00  0.00    +0.320 A 
ATOM     18  N   LIG    1        0.891   1.410  -7.065  0.00  0.00    -0.490 NA
ATOM     19  C   LIG    1        2.037   0.765  -6.893  0.00  0.00    +0.350 A 
ATOM     20  N   LIG    1        2.488   0.454  -5.685  0.00  0.00    -0.490 NA
ATOM     21  C   LIG    1        1.804   0.782  -4.603  0.00  0.00    +0.340 A 
BRANCH  19  22
ATOM     22  C   LIG    1        2.834   0.379  -8.082  0.00  0.00    -0.050 A 
ATOM     23  C   LIG    1        4.043  -0.296  -7.925  0.00  0.00    +0.070 A 
ATOM     24  C   LIG    1        4.779  -0.655  -9.036  0.00  0.00    +0.000 A 
ATOM     25  C   LIG    1        4.323  -0.340 -10.303  0.00  0.00    +0.030 A 
ATOM     26  C   LIG    1        3.125   0.334 -10.465  0.00  0.00    +0.000 A 
ATOM     27  C   LIG    1        2.379   0.695  -9.362  0.00  0.00    +0.070 A 
ENDBRANCH  19  22
ENDBRANCH   2  16
TORSDOF 4
