REMARK  Name = ZINCrD000000B2QJ.0
REMARK                            x       y       z     vdW  Elec       q    Type
REMARK                         _______ _______ _______ _____ _____    ______ ____
ROOT
ATOM      1  O   LIG    1       -3.962  -4.491  -1.952  0.00  0.00    -0.590 OA
ATOM      2  C   LIG    1       -3.416  -4.315  -0.879  0.00  0.00    +0.710 C 
ATOM      3  N   LIG    1       -3.132  -3.064  -0.465  0.00  0.00    -0.630 N 
ATOM      4  C   LIG    1       -3.374  -1.912  -1.344  0.00  0.00    +0.300 C 
ATOM      5  C   LIG    1       -2.081  -1.099  -1.458  0.00  0.00    +0.030 C 
ATOM      6  C   LIG    1       -1.591  -0.729  -0.057  0.00  0.00    +0.060 C 
ATOM      7  C   LIG    1       -1.291  -2.004   0.734  0.00  0.00    +0.030 C 
ATOM      8  C   LIG    1       -2.575  -2.828   0.873  0.00  0.00    +0.270 C 
ATOM      9  N   LIG    1       -3.095  -5.371  -0.105  0.00  0.00    -0.750 N 
ATOM     10  H   LIG    1       -2.728  -5.228   0.781  0.00  0.00    +0.400 HD
ENDROOT
BRANCH   6  11
ATOM     11  C   LIG    1       -0.337   0.100  -0.166  0.00  0.00    +0.180 A 
ATOM     12  C   LIG    1        0.901  -0.511  -0.289  0.00  0.00    -0.080 A 
ATOM     13  C   LIG    1        2.026   0.293  -0.387  0.00  0.00    +0.320 A 
ATOM     14  N   LIG    1        1.882   1.608  -0.359  0.00  0.00    -0.520 NA
ATOM     15  C   LIG    1        0.689   2.154  -0.241  0.00  0.00    +0.500 A 
ATOM     16  N   LIG    1       -0.403   1.422  -0.146  0.00  0.00    -0.520 NA
ENDBRANCH   6  11
BRANCH   9  17
ATOM     17  C   LIG    1       -3.302  -6.733  -0.602  0.00  0.00    +0.270 C 
BRANCH  17  18
ATOM     18  C   LIG    1       -2.860  -7.737   0.465  0.00  0.00    +0.030 C 
BRANCH  18  19
ATOM     19  C   LIG    1       -2.966  -9.157  -0.097  0.00  0.00    +0.050 C 
ATOM     20  C   LIG    1       -1.968  -9.326  -1.245  0.00  0.00    +0.010 C 
ATOM     21  C   LIG    1       -1.880 -10.818  -1.592  0.00  0.00    +0.240 C 
ATOM     22  O   LIG    1       -1.330 -11.509  -0.469  0.00  0.00    -0.320 OA
ATOM     23  C   LIG    1       -1.870 -11.264   0.753  0.00  0.00    +0.130 A 
ATOM     24  C   LIG    1       -1.613 -12.162   1.784  0.00  0.00    -0.020 A 
ATOM     25  C   LIG    1       -2.137 -11.944   3.042  0.00  0.00    +0.040 A 
ATOM     26  C   LIG    1       -2.920 -10.830   3.280  0.00  0.00    -0.030 A 
ATOM     27  C   LIG    1       -3.180  -9.937   2.258  0.00  0.00    +0.050 A 
ATOM     28  C   LIG    1       -2.658 -10.152   0.994  0.00  0.00    -0.160 A 
ENDBRANCH  18  19
ENDBRANCH  17  18
ENDBRANCH   9  17
TORSDOF 4
