REMARK  Name = ZINCrD000000AAZR.0
REMARK                            x       y       z     vdW  Elec       q    Type
REMARK                         _______ _______ _______ _____ _____    ______ ____
ROOT
ATOM      1  C   LIG    1       -1.406   3.957  -3.837  0.00  0.00    +0.320 C 
ATOM      2  C   LIG    1       -0.109   4.764  -3.701  0.00  0.00    +0.020 C 
ATOM      3  C   LIG    1        0.146   5.077  -2.224  0.00  0.00    +0.040 C 
ATOM      4  C   LIG    1        0.529   3.789  -1.486  0.00  0.00    +0.110 C 
ATOM      5  C   LIG    1       -0.489   2.728  -1.821  0.00  0.00    +0.100 A 
ATOM      6  N   LIG    1       -0.721   1.571  -1.179  0.00  0.00    -0.360 N 
ATOM      7  N   LIG    1       -1.759   0.908  -1.851  0.00  0.00    -0.300 NA
ATOM      8  C   LIG    1       -2.138   1.653  -2.860  0.00  0.00    +0.250 A 
ATOM      9  C   LIG    1       -1.352   2.804  -2.866  0.00  0.00    -0.250 A 
ENDROOT
BRANCH   1  12
ATOM     10  O   LIG    1       -3.734   3.290  -5.021  0.00  0.00    -0.520 OA
ATOM     11  C   LIG    1       -2.743   3.141  -5.704  0.00  0.00    +0.520 C 
ATOM     12  N   LIG    1       -1.528   3.446  -5.205  0.00  0.00    -0.720 N 
ATOM     13  H   LIG    1       -0.736   3.327  -5.751  0.00  0.00    +0.400 HD
BRANCH  11  14
ATOM     14  C   LIG    1       -2.869   2.615  -7.110  0.00  0.00    +0.100 C 
BRANCH  14  15
ATOM     15  C   LIG    1       -4.321   2.355  -7.421  0.00  0.00    -0.090 A 
ATOM     16  C   LIG    1       -4.847   1.089  -7.252  0.00  0.00    +0.030 A 
ATOM     17  C   LIG    1       -6.179   0.850  -7.537  0.00  0.00    +0.000 A 
ATOM     18  C   LIG    1       -6.987   1.876  -7.991  0.00  0.00    +0.030 A 
ATOM     19  C   LIG    1       -6.465   3.143  -8.162  0.00  0.00    -0.020 A 
ATOM     20  C   LIG    1       -5.130   3.388  -7.871  0.00  0.00    +0.120 A 
BRANCH  20  21
ATOM     21  O   LIG    1       -4.616   4.635  -8.032  0.00  0.00    -0.490 OA
ATOM     22  H   LIG    1       -4.253   4.800  -8.913  0.00  0.00    +0.390 HD
ENDBRANCH  20  21
ENDBRANCH  14  15
ENDBRANCH  11  14
ENDBRANCH   1  12
BRANCH   6  23
ATOM     23  C   LIG    1       -0.013   1.086   0.008  0.00  0.00    +0.370 C 
BRANCH  23  24
ATOM     24  C   LIG    1       -0.718   1.572   1.248  0.00  0.00    -0.120 A 
ATOM     25  C   LIG    1       -0.360   2.779   1.819  0.00  0.00    +0.020 A 
ATOM     26  C   LIG    1       -1.010   3.227   2.953  0.00  0.00    +0.010 A 
ATOM     27  C   LIG    1       -2.012   2.463   3.523  0.00  0.00    +0.010 A 
ATOM     28  C   LIG    1       -2.366   1.254   2.955  0.00  0.00    +0.010 A 
ATOM     29  C   LIG    1       -1.719   0.808   1.818  0.00  0.00    +0.030 A 
ENDBRANCH  23  24
ENDBRANCH   6  23
TORSDOF 6
