REMARK  Name = ZINCkj000005kChi.0
REMARK                            x       y       z     vdW  Elec       q    Type
REMARK                         _______ _______ _______ _____ _____    ______ ____
ROOT
ATOM      1  C   LIG    1       -1.187   1.624   0.017  0.00  0.00    +0.520 C 
ATOM      2  N   LIG    1       -0.011   0.966   0.007  0.00  0.00    -0.740 N 
ATOM      3  H   LIG    1        0.002  -0.004   0.002  0.00  0.00    +0.410 HD
ATOM      4  O   LIG    1       -1.204   2.837   0.023  0.00  0.00    -0.510 OA
ENDROOT
BRANCH   1   5
ATOM      5  C   LIG    1       -2.482   0.853   0.018  0.00  0.00    +0.160 C 
BRANCH   5  13
ATOM      6  C   LIG    1       -3.927   2.057  -2.532  0.00  0.00    +0.150 C 
ATOM      7  C   LIG    1       -4.279   2.348  -1.096  0.00  0.00    +0.090 A 
ATOM      8  N   LIG    1       -5.235   3.142  -0.686  0.00  0.00    -0.290 NA
ATOM      9  N   LIG    1       -5.235   3.141   0.715  0.00  0.00    -0.470 N 
ATOM     10  H   LIG    1       -5.838   3.641   1.286  0.00  0.00    +0.440 HD
ATOM     11  C   LIG    1       -4.251   2.315   1.129  0.00  0.00    +0.110 A 
ATOM     12  C   LIG    1       -3.894   2.007   2.560  0.00  0.00    +0.140 C 
ATOM     13  C   LIG    1       -3.641   1.816   0.029  0.00  0.00    -0.240 A 
ENDBRANCH   5  13
ENDBRANCH   1   5
BRANCH   2  14
ATOM     14  C   LIG    1        1.248   1.716  -0.001  0.00  0.00    +0.300 C 
BRANCH  14  15
ATOM     15  C   LIG    1        2.424   0.737  -0.017  0.00  0.00    +0.040 C 
ATOM     16  C   LIG    1        2.405  -0.119  -1.299  0.00  0.00    +0.090 C 
ATOM     17  C   LIG    1        3.431   0.641  -2.215  0.00  0.00    +0.080 C 
ATOM     18  C   LIG    1        4.487   1.109  -1.183  0.00  0.00    +0.260 C 
ATOM     19  C   LIG    1        2.381  -0.190   1.214  0.00  0.00    +0.090 C 
ATOM     20  C   LIG    1        3.369   0.492   2.196  0.00  0.00    +0.080 C 
ATOM     21  C   LIG    1        4.453   1.028   1.229  0.00  0.00    +0.260 C 
ATOM     22  N   LIG    1        3.711   1.463   0.025  0.00  0.00    -0.390 N 
ATOM     23  H   LIG    1        3.551   2.458   0.066  0.00  0.00    +0.430 HD
ENDBRANCH  14  15
ENDBRANCH   2  14
TORSDOF 4
