REMARK  Name = ZINCpk00000y6uqX.0
REMARK                            x       y       z     vdW  Elec       q    Type
REMARK                         _______ _______ _______ _____ _____    ______ ____
ROOT
ATOM      1  C   LIG    1       -2.230   5.885   0.834  0.00  0.00    +0.520 C 
ATOM      2  N   LIG    1       -1.058   5.899   1.499  0.00  0.00    -0.720 N 
ATOM      3  H   LIG    1       -1.027   6.197   2.422  0.00  0.00    +0.400 HD
ATOM      4  O   LIG    1       -2.268   5.513  -0.320  0.00  0.00    -0.510 OA
ENDROOT
BRANCH   2   5
ATOM      5  C   LIG    1        0.171   5.466   0.828  0.00  0.00    +0.290 C 
ATOM      6  C   LIG    1        1.378   6.127   1.499  0.00  0.00    -0.000 C 
ATOM      7  C   LIG    1        2.650   5.441   0.983  0.00  0.00    +0.260 C 
ATOM      8  O   LIG    1        2.636   4.081   1.418  0.00  0.00    -0.310 OA
ATOM      9  C   LIG    1        1.505   3.359   1.208  0.00  0.00    +0.140 A 
ATOM     10  C   LIG    1        1.579   1.972   1.284  0.00  0.00    -0.020 A 
ATOM     11  C   LIG    1        0.450   1.204   1.081  0.00  0.00    +0.050 A 
ATOM     12  C   LIG    1       -0.758   1.813   0.797  0.00  0.00    -0.040 A 
ATOM     13  C   LIG    1       -0.836   3.191   0.726  0.00  0.00    +0.060 A 
ATOM     14  C   LIG    1        0.293   3.966   0.926  0.00  0.00    -0.180 A 
ENDBRANCH   2   5
BRANCH   1  15
ATOM     15  C   LIG    1       -3.493   6.331   1.524  0.00  0.00    +0.120 C 
ATOM     16  C   LIG    1       -3.342   7.785   1.975  0.00  0.00    +0.080 C 
BRANCH  15  23
ATOM     17  C   LIG    1       -6.721   2.982   4.120  0.00  0.00    +0.200 C 
ATOM     18  C   LIG    1       -6.752   4.357   3.505  0.00  0.00    +0.180 A 
ATOM     19  N   LIG    1       -7.461   5.378   3.914  0.00  0.00    -0.300 NA
ATOM     20  N   LIG    1       -7.240   6.396   3.154  0.00  0.00    -0.280 NA
ATOM     21  C   LIG    1       -6.386   6.071   2.234  0.00  0.00    +0.130 A 
ATOM     22  C   LIG    1       -5.813   6.914   1.123  0.00  0.00    +0.370 C 
ATOM     23  N   LIG    1       -4.624   6.222   0.593  0.00  0.00    -0.500 NA
ATOM     24  C   LIG    1       -4.919   4.816   0.285  0.00  0.00    +0.250 C 
ATOM     25  C   LIG    1       -5.113   4.029   1.588  0.00  0.00    +0.260 C 
ATOM     26  N   LIG    1       -6.055   4.767   2.431  0.00  0.00    -0.470 N 
ENDBRANCH  15  23
ENDBRANCH   1  15
TORSDOF 3
