REMARK  Name = ZINCqH0000003PZM.0
REMARK                            x       y       z     vdW  Elec       q    Type
REMARK                         _______ _______ _______ _____ _____    ______ ____
ROOT
ATOM      1  C   LIG    1        4.938  -2.837  -0.003  0.00  0.00    +0.190 C 
ATOM      2  C   LIG    1        5.705  -2.529   1.287  0.00  0.00    +0.010 C 
ATOM      3  C   LIG    1        6.120  -1.056   1.285  0.00  0.00    +0.210 C 
ATOM      4  O   LIG    1        6.911  -0.786   0.125  0.00  0.00    -0.380 OA
ATOM      5  C   LIG    1        6.229  -1.011  -1.111  0.00  0.00    +0.200 C 
ATOM      6  C   LIG    1        5.819  -2.483  -1.205  0.00  0.00    +0.010 C 
ENDROOT
BRANCH   1   8
ATOM      7  C   LIG    1        2.869  -2.152  -1.092  0.00  0.00    +0.570 C 
ATOM      8  N   LIG    1        3.709  -2.041  -0.044  0.00  0.00    -0.720 N 
ATOM      9  H   LIG    1        3.500  -1.434   0.683  0.00  0.00    +0.400 HD
ATOM     10  O   LIG    1        3.174  -2.844  -2.045  0.00  0.00    -0.510 OA
BRANCH   7  16
ATOM     11  C   LIG    1        0.703  -1.548  -2.171  0.00  0.00    +0.190 A 
ATOM     12  C   LIG    1       -0.506  -0.869  -2.153  0.00  0.00    -0.090 A 
ATOM     13  C   LIG    1       -0.843  -0.085  -1.067  0.00  0.00    +0.080 A 
ATOM     14  C   LIG    1        0.020   0.029   0.010  0.00  0.00    -0.040 A 
ATOM     15  C   LIG    1        1.226  -0.639   0.008  0.00  0.00    +0.080 A 
ATOM     16  C   LIG    1        1.580  -1.435  -1.084  0.00  0.00    -0.180 A 
BRANCH  11  17
ATOM     17  O   LIG    1        1.036  -2.317  -3.238  0.00  0.00    -0.280 OA
BRANCH  17  19
ATOM     18  C   LIG    1        0.638  -3.293  -5.413  0.00  0.00    +0.070 C 
ATOM     19  C   LIG    1        0.092  -2.385  -4.309  0.00  0.00    +0.170 C 
ENDBRANCH  17  19
ENDBRANCH  11  17
ENDBRANCH   7  16
ENDBRANCH   1   8
BRANCH   1  20
ATOM     20  C   LIG    1        4.585  -4.325  -0.047  0.00  0.00    +0.090 C 
BRANCH  20  21
ATOM     21  C   LIG    1        3.624  -4.648   1.067  0.00  0.00    -0.040 A 
ATOM     22  C   LIG    1        2.262  -4.555   0.853  0.00  0.00    +0.000 A 
ATOM     23  C   LIG    1        1.378  -4.851   1.875  0.00  0.00    +0.040 A 
ATOM     24  C   LIG    1        1.857  -5.239   3.112  0.00  0.00    -0.030 A 
ATOM     25  C   LIG    1        3.221  -5.332   3.328  0.00  0.00    +0.100 A 
ATOM     26  F   LIG    1        3.690  -5.712   4.536  0.00  0.00    -0.140 F 
ATOM     27  C   LIG    1        4.105  -5.041   2.302  0.00  0.00    -0.020 A 
ENDBRANCH  20  21
ENDBRANCH   1  20
TORSDOF 6
