REMARK  Name = ZINCrH000004nMD5.0
REMARK                            x       y       z     vdW  Elec       q    Type
REMARK                         _______ _______ _______ _____ _____    ______ ____
ROOT
ATOM      1  N   LIG    1        2.990   3.824   0.583  0.00  0.00    -0.680 N 
ATOM      2  H   LIG    1        3.907   3.513   0.637  0.00  0.00    +0.410 HD
ATOM      3  C   LIG    1        2.733   5.118   0.305  0.00  0.00    +0.710 C 
ATOM      4  N   LIG    1        3.743   5.954  -0.005  0.00  0.00    -0.720 N 
ATOM      5  H   LIG    1        4.644   5.610  -0.104  0.00  0.00    +0.400 HD
ATOM      6  O   LIG    1        1.589   5.530   0.335  0.00  0.00    -0.550 OA
ENDROOT
BRANCH   1  12
ATOM      7  C   LIG    1        2.134   1.782   1.549  0.00  0.00    -0.130 A 
ATOM      8  C   LIG    1        1.090   0.902   1.755  0.00  0.00    +0.050 A 
ATOM      9  C   LIG    1       -0.152   1.160   1.204  0.00  0.00    -0.010 A 
ATOM     10  C   LIG    1       -0.356   2.304   0.455  0.00  0.00    +0.050 A 
ATOM     11  C   LIG    1        0.684   3.188   0.246  0.00  0.00    +0.030 A 
ATOM     12  C   LIG    1        1.934   2.930   0.793  0.00  0.00    +0.190 A 
BRANCH   7  13
ATOM     13  C   LIG    1        3.489   1.498   2.145  0.00  0.00    -0.280 C 
BRANCH  13  15
ATOM     14  C   LIG    1        6.030   0.309   1.878  0.00  0.00    -0.270 C 
ATOM     15  S   LIG    1        4.475   0.529   0.970  0.00  0.00    +2.410 S 
ATOM     16  O   LIG    1        4.729   1.329  -0.176  0.00  0.00    -0.930 OA
ATOM     17  O   LIG    1        3.862  -0.743   0.806  0.00  0.00    -0.930 OA
ENDBRANCH  13  15
ENDBRANCH   7  13
ENDBRANCH   1  12
BRANCH   4  18
ATOM     18  C   LIG    1        3.479   7.383  -0.194  0.00  0.00    +0.210 C 
ATOM     19  C   LIG    1        3.066   7.748  -1.630  0.00  0.00    +0.040 C 
ATOM     20  C   LIG    1        4.563   7.931  -1.930  0.00  0.00    +0.020 C 
ATOM     21  C   LIG    1        4.749   8.218  -0.430  0.00  0.00    +0.050 C 
BRANCH  18  22
ATOM     22  C   LIG    1        2.569   7.954   0.862  0.00  0.00    -0.170 A 
ATOM     23  C   LIG    1        1.196   7.909   0.691  0.00  0.00    +0.200 A 
ATOM     24  C   LIG    1        0.360   8.430   1.665  0.00  0.00    -0.040 A 
ATOM     25  C   LIG    1        0.896   9.005   2.802  0.00  0.00    +0.090 A 
ATOM     26  C   LIG    1        2.267   9.055   2.970  0.00  0.00    -0.040 A 
ATOM     27  F   LIG    1        0.671   7.353  -0.422  0.00  0.00    -0.110 F 
ATOM     28  C   LIG    1        3.105   8.530   2.001  0.00  0.00    +0.140 A 
ATOM     29  F   LIG    1        4.445   8.580   2.166  0.00  0.00    -0.130 F 
ENDBRANCH  18  22
ENDBRANCH   4  18
TORSDOF 5
