REMARK  Name = ZINCtV000002MChW.0
REMARK                            x       y       z     vdW  Elec       q    Type
REMARK                         _______ _______ _______ _____ _____    ______ ____
ROOT
ATOM      1  O   LIG    1        1.038   6.845  -0.322  0.00  0.00    -0.550 OA
ATOM      2  C   LIG    1        1.082   5.655  -0.075  0.00  0.00    +0.710 C 
ATOM      3  N   LIG    1       -0.055   4.933  -0.029  0.00  0.00    -0.520 N 
ATOM      4  N   LIG    1        2.269   5.059   0.154  0.00  0.00    -0.620 N 
ATOM      5  C   LIG    1        2.370   3.595   0.259  0.00  0.00    +0.290 C 
ATOM      6  C   LIG    1        3.486   3.121  -0.686  0.00  0.00    +0.190 C 
ATOM      7  N   LIG    1        4.723   3.852  -0.382  0.00  0.00    -0.480 N 
ATOM      8  C   LIG    1        4.566   5.292  -0.629  0.00  0.00    +0.200 C 
ATOM      9  C   LIG    1        3.496   5.855   0.312  0.00  0.00    +0.320 C 
ENDROOT
BRANCH   7  10
ATOM     10  C   LIG    1        5.801   3.334  -1.104  0.00  0.00    +0.130 A 
ATOM     11  C   LIG    1        5.580   2.426  -2.130  0.00  0.00    -0.010 A 
ATOM     12  C   LIG    1        6.649   1.916  -2.843  0.00  0.00    -0.010 A 
ATOM     13  C   LIG    1        7.939   2.311  -2.535  0.00  0.00    +0.020 A 
ATOM     14  C   LIG    1        8.163   3.216  -1.513  0.00  0.00    +0.080 A 
ATOM     15 CL   LIG    1        6.373   0.780  -4.127  0.00  0.00    -0.060 Cl
ATOM     16  C   LIG    1        7.098   3.733  -0.800  0.00  0.00    -0.050 A 
ATOM     17 CL   LIG    1        7.380   4.874   0.477  0.00  0.00    -0.050 Cl
ENDBRANCH   7  10
BRANCH   3  18
ATOM     18  C   LIG    1       -1.226   5.435  -0.609  0.00  0.00    +0.170 A 
ATOM     19  C   LIG    1       -2.431   4.767  -0.433  0.00  0.00    -0.020 A 
ATOM     20  C   LIG    1       -3.586   5.267  -1.003  0.00  0.00    +0.040 A 
ATOM     21  C   LIG    1       -3.541   6.426  -1.756  0.00  0.00    -0.020 A 
ATOM     22  C   LIG    1       -2.342   7.090  -1.938  0.00  0.00    +0.030 A 
ATOM     23  C   LIG    1       -1.185   6.598  -1.367  0.00  0.00    +0.010 A 
ENDBRANCH   3  18
BRANCH   3  24
ATOM     24  C   LIG    1       -0.065   3.681   0.598  0.00  0.00    +0.140 A 
ATOM     25  C   LIG    1        0.246   3.576   1.947  0.00  0.00    +0.000 A 
ATOM     26  C   LIG    1        0.235   2.340   2.563  0.00  0.00    +0.040 A 
ATOM     27  C   LIG    1       -0.085   1.208   1.837  0.00  0.00    +0.010 A 
ATOM     28  C   LIG    1       -0.389   1.308   0.492  0.00  0.00    +0.030 A 
ATOM     29  C   LIG    1       -0.385   2.542  -0.129  0.00  0.00    -0.010 A 
ENDBRANCH   3  24
TORSDOF 3
