REMARK  Name = ZINC9u0000000C5T.0
REMARK                            x       y       z     vdW  Elec       q    Type
REMARK                         _______ _______ _______ _____ _____    ______ ____
ROOT
ATOM      1  C   LIG    1       -2.555   3.866   0.048  0.00  0.00    +0.100 C 
ATOM      2  C   LIG    1       -1.238   3.133   0.031  0.00  0.00    -0.090 A 
ATOM      3  C   LIG    1       -1.218   1.751   0.017  0.00  0.00    +0.040 A 
ATOM      4  C   LIG    1       -0.013   1.076   0.008  0.00  0.00    +0.010 A 
ATOM      5  C   LIG    1        1.179   1.786   0.000  0.00  0.00    +0.130 A 
ATOM      6  C   LIG    1        1.156   3.174   0.008  0.00  0.00    -0.120 A 
ATOM      7 BR   LIG    1        2.778   4.147  -0.003  0.00  0.00    -0.040 Br
ATOM      8  C   LIG    1       -0.052   3.844   0.023  0.00  0.00    +0.060 A 
ENDROOT
BRANCH   5   9
ATOM      9  O   LIG    1        2.366   1.124  -0.015  0.00  0.00    -0.490 OA
ATOM     10  H   LIG    1        2.700   0.938  -0.903  0.00  0.00    +0.390 HD
ENDBRANCH   5   9
TORSDOF 1
