REMARK  Name = ZINCtj00000vxIdc.1
REMARK                            x       y       z     vdW  Elec       q    Type
REMARK                         _______ _______ _______ _____ _____    ______ ____
ROOT
ATOM      1  C   LIG    1        0.708  -0.817   3.756  0.00  0.00    +0.160 A 
ATOM      2  C   LIG    1        1.243   0.066   4.685  0.00  0.00    +0.060 A 
ATOM      3  C   LIG    1        1.938  -0.419   5.775  0.00  0.00    +0.050 A 
ATOM      4  C   LIG    1        2.112  -1.781   5.936  0.00  0.00    +0.010 A 
ATOM      5  C   LIG    1        1.586  -2.663   5.009  0.00  0.00    -0.140 A 
ATOM      6  C   LIG    1        0.885  -2.184   3.920  0.00  0.00    +0.020 A 
ENDROOT
BRANCH   1   8
ATOM      7  C   LIG    1       -0.743   0.791   2.770  0.00  0.00    +0.530 C 
ATOM      8  N   LIG    1       -0.002  -0.329   2.653  0.00  0.00    -0.680 N 
ATOM      9  H   LIG    1        0.039  -0.797   1.804  0.00  0.00    +0.420 HD
ATOM     10  O   LIG    1       -0.872   1.322   3.853  0.00  0.00    -0.500 OA
BRANCH   7  19
ATOM     11  C   LIG    1       -4.486   4.795   1.626  0.00  0.00    +0.360 C 
ATOM     12  N   LIG    1       -3.621   4.272   0.565  0.00  0.00    -0.360 N 
ATOM     13  N   LIG    1       -3.659   4.638  -0.789  0.00  0.00    -0.270 NA
ATOM     14  C   LIG    1       -2.734   3.961  -1.429  0.00  0.00    +0.200 A 
ATOM     15  C   LIG    1       -2.081   3.147  -0.509  0.00  0.00    +0.040 A 
ATOM     16  N   LIG    1       -1.016   2.238  -0.704  0.00  0.00    -0.740 N 
ATOM     17  H   LIG    1       -0.741   1.953  -1.589  0.00  0.00    +0.410 HD
ATOM     18  C   LIG    1       -0.346   1.749   0.517  0.00  0.00    +0.290 C 
ATOM     19  C   LIG    1       -1.411   1.383   1.556  0.00  0.00    -0.010 C 
ATOM     20  C   LIG    1       -2.197   2.635   1.964  0.00  0.00    +0.160 C 
ATOM     21  C   LIG    1       -2.645   3.351   0.716  0.00  0.00    +0.010 A 
ENDBRANCH   7  19
ENDBRANCH   1   8
BRANCH   5  22
ATOM     22  C   LIG    1        1.779  -4.147   5.188  0.00  0.00    +0.330 C 
BRANCH  22  23
ATOM     23  N   LIG    1        3.018  -4.564   4.517  0.00  0.00    -0.380 N 
ATOM     24  C   LIG    1        4.167  -3.939   5.183  0.00  0.00    +0.240 C 
ATOM     25  C   LIG    1        5.453  -4.306   4.439  0.00  0.00    +0.050 C 
ATOM     26  C   LIG    1        5.623  -5.827   4.444  0.00  0.00    +0.070 C 
ATOM     27  C   LIG    1        4.385  -6.472   3.814  0.00  0.00    +0.010 C 
ATOM     28  C   LIG    1        3.139  -6.025   4.581  0.00  0.00    +0.290 C 
ATOM     29  H   LIG    1        2.991  -4.273   3.552  0.00  0.00    +0.430 HD
BRANCH  27  30
ATOM     30  C   LIG    1        4.272  -6.042   2.374  0.00  0.00    +0.520 C 
ATOM     31  O   LIG    1        3.289  -5.441   1.996  0.00  0.00    -0.560 OA
ATOM     32  N   LIG    1        5.263  -6.326   1.506  0.00  0.00    -0.830 N 
ATOM     33  H   LIG    1        5.190  -6.050   0.580  0.00  0.00    +0.420 HD
ATOM     34  H   LIG    1        6.050  -6.807   1.809  0.00  0.00    +0.410 HD
ENDBRANCH  27  30
ENDBRANCH  22  23
ENDBRANCH   5  22
TORSDOF 5
