REMARK  Name = ZINCtj00000vxIdc.0
REMARK                            x       y       z     vdW  Elec       q    Type
REMARK                         _______ _______ _______ _____ _____    ______ ____
ROOT
ATOM      1  C   LIG    1        1.181   1.789  -0.005  0.00  0.00    +0.160 A 
ATOM      2  C   LIG    1        1.153   3.167  -0.176  0.00  0.00    +0.060 A 
ATOM      3  C   LIG    1       -0.054   3.838  -0.166  0.00  0.00    +0.050 A 
ATOM      4  C   LIG    1       -1.234   3.140   0.014  0.00  0.00    +0.020 A 
ATOM      5  C   LIG    1       -1.209   1.767   0.180  0.00  0.00    -0.140 A 
ATOM      6  C   LIG    1       -0.005   1.091   0.176  0.00  0.00    +0.000 A 
ENDROOT
BRANCH   1   8
ATOM      7  C   LIG    1        3.511   1.700   0.471  0.00  0.00    +0.530 C 
ATOM      8  N   LIG    1        2.403   1.107  -0.015  0.00  0.00    -0.680 N 
ATOM      9  H   LIG    1        2.452   0.206  -0.372  0.00  0.00    +0.420 HD
ATOM     10  O   LIG    1        3.433   2.787   1.004  0.00  0.00    -0.500 OA
BRANCH   7  19
ATOM     11  C   LIG    1        8.905   2.940   1.313  0.00  0.00    +0.360 C 
ATOM     12  N   LIG    1        8.478   1.542   1.215  0.00  0.00    -0.360 N 
ATOM     13  N   LIG    1        9.316   0.416   1.254  0.00  0.00    -0.270 NA
ATOM     14  C   LIG    1        8.572  -0.659   1.139  0.00  0.00    +0.200 A 
ATOM     15  C   LIG    1        7.245  -0.257   1.023  0.00  0.00    +0.040 A 
ATOM     16  N   LIG    1        6.075  -1.036   0.880  0.00  0.00    -0.740 N 
ATOM     17  H   LIG    1        6.111  -1.980   0.660  0.00  0.00    +0.410 HD
ATOM     18  C   LIG    1        4.795  -0.331   1.085  0.00  0.00    +0.290 C 
ATOM     19  C   LIG    1        4.847   1.014   0.352  0.00  0.00    +0.000 C 
ATOM     20  C   LIG    1        5.933   1.904   0.969  0.00  0.00    +0.160 C 
ATOM     21  C   LIG    1        7.208   1.106   1.070  0.00  0.00    +0.010 A 
ENDBRANCH   7  19
ENDBRANCH   1   8
BRANCH   5  22
ATOM     22  C   LIG    1       -2.498   1.009   0.370  0.00  0.00    +0.330 C 
BRANCH  22  23
ATOM     23  N   LIG    1       -2.815   0.934   1.803  0.00  0.00    -0.380 N 
ATOM     24  C   LIG    1       -1.786   0.146   2.490  0.00  0.00    +0.240 C 
ATOM     25  C   LIG    1       -2.067   0.134   3.994  0.00  0.00    +0.070 C 
ATOM     26  C   LIG    1       -3.443  -0.491   4.245  0.00  0.00    +0.060 C 
ATOM     27  C   LIG    1       -4.500   0.295   3.464  0.00  0.00    -0.010 C 
ATOM     28  C   LIG    1       -4.128   0.302   1.979  0.00  0.00    +0.290 C 
ATOM     29  H   LIG    1       -2.837   1.866   2.190  0.00  0.00    +0.420 HD
BRANCH  27  30
ATOM     30  C   LIG    1       -5.847  -0.356   3.642  0.00  0.00    +0.530 C 
ATOM     31  O   LIG    1       -6.451  -0.774   2.677  0.00  0.00    -0.530 OA
ATOM     32  N   LIG    1       -6.381  -0.474   4.874  0.00  0.00    -0.840 N 
ATOM     33  H   LIG    1       -7.248  -0.893   4.989  0.00  0.00    +0.420 HD
ATOM     34  H   LIG    1       -5.898  -0.140   5.646  0.00  0.00    +0.410 HD
ENDBRANCH  27  30
ENDBRANCH  22  23
ENDBRANCH   5  22
TORSDOF 5
