REMARK  Name = ZINCrD00000l8U1G.0
REMARK                            x       y       z     vdW  Elec       q    Type
REMARK                         _______ _______ _______ _____ _____    ______ ____
ROOT
ATOM      1  N   LIG    1       -1.285  -4.646   0.890  0.00  0.00    -0.990 NA
ATOM      2  C   LIG    1       -2.554  -3.905   0.909  0.00  0.00    +0.310 C 
ATOM      3  C   LIG    1       -2.521  -2.849  -0.202  0.00  0.00    +0.290 C 
ATOM      4  N   LIG    1       -1.262  -2.098  -0.099  0.00  0.00    -0.610 N 
ATOM      5  C   LIG    1        0.008  -2.838  -0.123  0.00  0.00    +0.270 C 
ATOM      6  C   LIG    1       -1.271  -0.755   0.010  0.00  0.00    +0.560 C 
ATOM      7  O   LIG    1       -2.325  -0.162   0.131  0.00  0.00    -0.530 OA
ATOM      8  C   LIG    1       -0.026  -3.895   0.994  0.00  0.00    +0.310 C 
ENDROOT
BRANCH   6   9
ATOM      9  C   LIG    1        0.001  -0.003  -0.018  0.00  0.00    -0.120 A 
ATOM     10  C   LIG    1        0.980  -0.342  -0.937  0.00  0.00    +0.070 A 
ATOM     11  C   LIG    1        2.185   0.377  -0.958  0.00  0.00    -0.060 A 
ATOM     12  C   LIG    1        3.202   0.062  -1.876  0.00  0.00    +0.030 A 
ATOM     13  C   LIG    1        4.360   0.779  -1.870  0.00  0.00    +0.020 A 
ATOM     14  C   LIG    1        4.552   1.822  -0.967  0.00  0.00    +0.020 A 
ATOM     15  C   LIG    1        3.589   2.155  -0.063  0.00  0.00    +0.020 A 
ATOM     16  C   LIG    1        2.381   1.438  -0.038  0.00  0.00    -0.040 A 
ATOM     17  C   LIG    1        1.367   1.758   0.883  0.00  0.00    +0.040 A 
ATOM     18  C   LIG    1        0.208   1.053   0.889  0.00  0.00    +0.060 A 
ENDBRANCH   6   9
BRANCH   1  19
ATOM     19  S   LIG    1       -1.274  -6.296   0.756  0.00  0.00    +2.720 S 
ATOM     20  O   LIG    1       -2.538  -6.745   1.224  0.00  0.00    -0.950 OA
ATOM     21  O   LIG    1       -0.040  -6.735   1.308  0.00  0.00    -0.940 OA
BRANCH  19  26
ATOM     22  C   LIG    1       -2.061  -7.530  -4.778  0.00  0.00    +0.150 C 
ATOM     23  C   LIG    1       -1.579  -7.219  -3.385  0.00  0.00    -0.130 A 
ATOM     24  C   LIG    1       -0.301  -7.140  -3.013  0.00  0.00    -0.020 A 
ATOM     25  C   LIG    1       -0.100  -6.843  -1.676  0.00  0.00    +0.170 A 
ATOM     26  C   LIG    1       -1.215  -6.680  -0.962  0.00  0.00    -0.800 A 
ATOM     27  S   LIG    1       -2.617  -6.913  -1.998  0.00  0.00    +0.220 S 
ENDBRANCH  19  26
ENDBRANCH   1  19
TORSDOF 3
