REMARK  Name = ZINCpk00001AZizz.0
REMARK                            x       y       z     vdW  Elec       q    Type
REMARK                         _______ _______ _______ _____ _____    ______ ____
ROOT
ATOM      1  C   LIG    1        6.135   1.926  -0.065  0.00  0.00    +0.300 C 
ATOM      2  N   LIG    1        4.747   1.670   0.331  0.00  0.00    -0.620 N 
ATOM      3  C   LIG    1        4.380   1.147   1.514  0.00  0.00    +0.520 C 
ATOM      4  C   LIG    1        2.875   1.013   1.578  0.00  0.00    +0.060 C 
ATOM      5  C   LIG    1        2.419   1.142   0.106  0.00  0.00    +0.270 C 
ATOM      6  O   LIG    1        5.144   0.831   2.401  0.00  0.00    -0.510 OA
ATOM      7  C   LIG    1        3.580   1.951  -0.513  0.00  0.00    +0.280 C 
ENDROOT
BRANCH   7   8
ATOM      8  C   LIG    1        3.837   1.497  -1.927  0.00  0.00    -0.160 A 
ATOM      9  C   LIG    1        3.337   2.220  -2.999  0.00  0.00    +0.080 A 
ATOM     10  C   LIG    1        3.603   1.767  -4.282  0.00  0.00    -0.030 A 
ATOM     11  C   LIG    1        4.343   0.612  -4.449  0.00  0.00    +0.270 A 
ATOM     12  N   LIG    1        4.799  -0.054  -3.405  0.00  0.00    -0.480 NA
ATOM     13  C   LIG    1        4.570   0.350  -2.171  0.00  0.00    +0.270 A 
ENDBRANCH   7   8
BRANCH   5  14
ATOM     14  N   LIG    1        1.157   1.879   0.011  0.00  0.00    -0.710 N 
ATOM     15  H   LIG    1        1.164   2.847  -0.051  0.00  0.00    +0.410 HD
ATOM     16  C   LIG    1       -0.014   1.212   0.009  0.00  0.00    +0.570 C 
ATOM     17  O   LIG    1       -0.022  -0.004  -0.007  0.00  0.00    -0.510 OA
BRANCH  16  18
ATOM     18  C   LIG    1       -1.283   1.955   0.020  0.00  0.00    +0.030 A 
ATOM     19  C   LIG    1       -1.276   3.328  -0.074  0.00  0.00    +0.070 A 
ATOM     20  C   LIG    1       -2.483   4.036  -0.069  0.00  0.00    +0.020 A 
ATOM     21  C   LIG    1       -3.664   3.366   0.040  0.00  0.00    +0.130 A 
ATOM     22  C   LIG    1       -3.664   1.961   0.142  0.00  0.00    +0.200 A 
ATOM     23  N   LIG    1       -4.646   1.077   0.257  0.00  0.00    -0.480 NA
ATOM     24  C   LIG    1       -4.125  -0.148   0.319  0.00  0.00    +0.220 A 
ATOM     25  C   LIG    1       -2.777  -0.049   0.242  0.00  0.00    +0.130 A 
ATOM     26  N   LIG    1       -2.477   1.276   0.131  0.00  0.00    -0.340 N 
ENDBRANCH  16  18
ENDBRANCH   5  14
TORSDOF 3
