REMARK  Name = ZINCqH0000008B91.0
REMARK                            x       y       z     vdW  Elec       q    Type
REMARK                         _______ _______ _______ _____ _____    ______ ____
ROOT
ATOM      1  C   LIG    1        0.087   1.204  -0.008  0.00  0.00    +0.130 A 
ATOM      2  C   LIG    1        1.292   1.890   0.030  0.00  0.00    +0.010 A 
ATOM      3  C   LIG    1        2.485   1.192  -0.001  0.00  0.00    +0.050 A 
ATOM      4  C   LIG    1        2.481  -0.189  -0.068  0.00  0.00    +0.040 A 
ATOM      5  C   LIG    1        1.282  -0.879  -0.106  0.00  0.00    +0.000 A 
ATOM      6  C   LIG    1        0.083  -0.188  -0.076  0.00  0.00    +0.090 A 
ENDROOT
BRANCH   1  12
ATOM      7  C   LIG    1       -2.781   4.309  -2.409  0.00  0.00    +0.020 C 
ATOM      8  C   LIG    1       -2.648   3.403  -1.184  0.00  0.00    -0.010 C 
ATOM      9  C   LIG    1       -2.833   4.234   0.089  0.00  0.00    +0.010 C 
ATOM     10  C   LIG    1       -2.639   3.332   1.311  0.00  0.00    +0.020 C 
ATOM     11  C   LIG    1       -1.249   2.693   1.251  0.00  0.00    +0.180 C 
ATOM     12  N   LIG    1       -1.122   1.909   0.016  0.00  0.00    -0.510 N 
ATOM     13  C   LIG    1       -1.258   2.762  -1.171  0.00  0.00    +0.200 C 
ENDBRANCH   1  12
BRANCH   6  14
ATOM     14  O   LIG    1       -1.095  -0.865  -0.114  0.00  0.00    -0.650 OA
BRANCH  14  15
ATOM     15  S   LIG    1       -1.556  -1.228  -1.519  0.00  0.00    +2.590 S 
ATOM     16  O   LIG    1       -1.268  -0.071  -2.292  0.00  0.00    -0.930 OA
ATOM     17  O   LIG    1       -2.892  -1.678  -1.344  0.00  0.00    -0.920 OA
BRANCH  15  18
ATOM     18  C   LIG    1       -0.479  -2.604  -2.007  0.00  0.00    -0.320 C 
BRANCH  18  19
ATOM     19  C   LIG    1       -0.843  -3.057  -3.397  0.00  0.00    -0.090 A 
ATOM     20  C   LIG    1       -0.222  -2.486  -4.494  0.00  0.00    +0.070 A 
ATOM     21  C   LIG    1       -0.549  -2.896  -5.774  0.00  0.00    +0.030 A 
ATOM     22  C   LIG    1       -1.498  -3.878  -5.966  0.00  0.00    +0.080 A 
ATOM     23  C   LIG    1       -2.129  -4.459  -4.864  0.00  0.00    -0.020 A 
ATOM     24  C   LIG    1       -1.790  -4.045  -3.574  0.00  0.00    +0.080 A 
BRANCH  23  25
ATOM     25  C   LIG    1       -3.115  -5.480  -5.055  0.00  0.00    +0.250 C 
ATOM     26  N   LIG    1       -3.897  -6.290  -5.206  0.00  0.00    -0.400 NA
ENDBRANCH  23  25
ENDBRANCH  18  19
ENDBRANCH  15  18
ENDBRANCH  14  15
ENDBRANCH   6  14
TORSDOF 6
