REMARK  Name = ZINCrH000004sFDT.0
REMARK                            x       y       z     vdW  Elec       q    Type
REMARK                         _______ _______ _______ _____ _____    ______ ____
ROOT
ATOM      1  N   LIG    1       -0.141  -3.355   1.622  0.00  0.00    -0.650 N 
ATOM      2  H   LIG    1       -0.875  -3.123   1.033  0.00  0.00    +0.410 HD
ATOM      3  C   LIG    1        0.787  -2.430   1.939  0.00  0.00    +0.520 C 
ATOM      4  O   LIG    1        1.759  -2.745   2.593  0.00  0.00    -0.520 OA
ENDROOT
BRANCH   1  11
ATOM      5  C   LIG    1        2.467  -5.059   1.643  0.00  0.00    +0.170 C 
ATOM      6  C   LIG    1        1.112  -5.453   2.173  0.00  0.00    +0.110 A 
ATOM      7  N   LIG    1        0.813  -6.596   2.736  0.00  0.00    -0.280 NA
ATOM      8  N   LIG    1       -0.542  -6.573   3.090  0.00  0.00    -0.320 N 
ATOM      9  C   LIG    1       -1.049  -5.365   2.722  0.00  0.00    +0.080 A 
ATOM     10  C   LIG    1       -2.469  -4.899   2.914  0.00  0.00    +0.160 C 
ATOM     11  C   LIG    1       -0.043  -4.657   2.147  0.00  0.00    -0.000 A 
BRANCH   8  12
ATOM     12  C   LIG    1       -1.249  -7.608   3.717  0.00  0.00    +0.150 A 
ATOM     13  C   LIG    1       -0.652  -8.341   4.734  0.00  0.00    +0.020 A 
ATOM     14  C   LIG    1       -1.354  -9.357   5.354  0.00  0.00    +0.030 A 
ATOM     15  C   LIG    1       -2.644  -9.652   4.955  0.00  0.00    +0.010 A 
ATOM     16  C   LIG    1       -3.239  -8.927   3.938  0.00  0.00    +0.030 A 
ATOM     17  C   LIG    1       -2.545  -7.907   3.318  0.00  0.00    +0.000 A 
ENDBRANCH   8  12
ENDBRANCH   1  11
BRANCH   3  18
ATOM     18  C   LIG    1        0.617  -1.004   1.481  0.00  0.00    +0.010 C 
ATOM     19  C   LIG    1        0.560  -0.962  -0.049  0.00  0.00    +0.020 C 
ATOM     20  C   LIG    1        0.447   0.494  -0.507  0.00  0.00    +0.050 C 
ATOM     21  C   LIG    1        1.637   1.289   0.035  0.00  0.00    +0.170 C 
ATOM     22  N   LIG    1        1.647   1.218   1.502  0.00  0.00    -0.520 NA
ATOM     23  C   LIG    1        1.802  -0.167   1.966  0.00  0.00    +0.210 C 
BRANCH  22  24
ATOM     24  C   LIG    1        2.694   2.082   2.064  0.00  0.00    +0.270 C 
BRANCH  24  25
ATOM     25  C   LIG    1        4.008   1.843   1.317  0.00  0.00    +0.410 C 
ATOM     26  F   LIG    1        4.310   0.477   1.331  0.00  0.00    -0.180 F 
ATOM     27  F   LIG    1        5.036   2.554   1.944  0.00  0.00    -0.180 F 
ATOM     28  F   LIG    1        3.878   2.279  -0.006  0.00  0.00    -0.180 F 
ENDBRANCH  24  25
ENDBRANCH  22  24
ENDBRANCH   3  18
TORSDOF 5
