REMARK  Name = ZINCpk000000nkQI.0
REMARK                            x       y       z     vdW  Elec       q    Type
REMARK                         _______ _______ _______ _____ _____    ______ ____
ROOT
ATOM      1  C   LIG    1       -2.522   3.870   0.046  0.00  0.00    +0.570 C 
ATOM      2  N   LIG    1       -3.683   3.185   0.054  0.00  0.00    -0.720 N 
ATOM      3  H   LIG    1       -3.673   2.215   0.049  0.00  0.00    +0.410 HD
ATOM      4  O   LIG    1       -2.534   5.085   0.052  0.00  0.00    -0.540 OA
ENDROOT
BRANCH   1   8
ATOM      5  C   LIG    1        1.177   1.782   0.000  0.00  0.00    -0.040 A 
ATOM      6  C   LIG    1       -0.013   1.076   0.008  0.00  0.00    +0.010 A 
ATOM      7  C   LIG    1       -1.217   1.748   0.017  0.00  0.00    +0.050 A 
ATOM      8  C   LIG    1       -1.234   3.143   0.030  0.00  0.00    -0.140 A 
ATOM      9  C   LIG    1       -0.031   3.850   0.022  0.00  0.00    +0.090 A 
ATOM     10  C   LIG    1        1.167   3.166   0.007  0.00  0.00    +0.010 A 
BRANCH   5  12
ATOM     11  C   LIG    1        2.567   0.170  -1.271  0.00  0.00    +0.040 C 
ATOM     12  C   LIG    1        2.489   1.042  -0.016  0.00  0.00    -0.040 C 
ATOM     13  C   LIG    1        2.591   0.156   1.228  0.00  0.00    +0.040 C 
ATOM     14  C   LIG    1        3.643   2.047  -0.022  0.00  0.00    +0.030 C 
ENDBRANCH   5  12
ENDBRANCH   1   8
BRANCH   2  15
ATOM     15  C   LIG    1       -4.958   3.905   0.070  0.00  0.00    +0.300 C 
BRANCH  15  16
ATOM     16  C   LIG    1       -6.094   2.914   0.076  0.00  0.00    +0.510 C 
ATOM     17  N   LIG    1       -7.369   3.351   0.090  0.00  0.00    -0.600 N 
ATOM     18  C   LIG    1       -8.486   2.377   0.096  0.00  0.00    +0.290 C 
ATOM     19  C   LIG    1       -9.054   2.258   1.448  0.00  0.00    +0.000 C 
ATOM     20  C   LIG    1       -9.562   3.610   1.976  0.00  0.00    +0.290 C 
ATOM     21  N   LIG    1       -8.426   4.367   2.419  0.00  0.00    -0.620 N 
ATOM     22  C   LIG    1       -7.728   5.339   1.534  0.00  0.00    +0.270 C 
ATOM     23  C   LIG    1       -7.978   4.192   3.678  0.00  0.00    +0.620 C 
ATOM     24  O   LIG    1       -8.533   3.405   4.416  0.00  0.00    -0.550 OA
ATOM     25  C   LIG    1       -7.644   4.761   0.105  0.00  0.00    +0.280 C 
ATOM     26  O   LIG    1       -5.861   1.724   0.068  0.00  0.00    -0.530 OA
ENDBRANCH  15  16
ENDBRANCH   2  15
TORSDOF 4
