REMARK  Name = ZINCpk00001AZj50.1
REMARK                            x       y       z     vdW  Elec       q    Type
REMARK                         _______ _______ _______ _____ _____    ______ ____
ROOT
ATOM      1  N   LIG    1        0.864  -2.827  -1.241  0.00  0.00    -0.610 N 
ATOM      2  C   LIG    1       -0.319  -3.333  -1.642  0.00  0.00    +0.530 C 
ATOM      3  O   LIG    1       -0.633  -4.462  -1.328  0.00  0.00    -0.530 OA
ATOM      4  C   LIG    1        1.833  -3.684  -0.555  0.00  0.00    +0.290 C 
ENDROOT
BRANCH   2   5
ATOM      5  C   LIG    1       -1.251  -2.497  -2.480  0.00  0.00    -0.010 C 
ATOM      6  C   LIG    1       -1.939  -1.454  -1.594  0.00  0.00    +0.040 C 
ATOM      7  C   LIG    1       -2.942  -0.662  -2.439  0.00  0.00    +0.080 C 
ATOM      8  C   LIG    1       -3.940  -1.631  -3.077  0.00  0.00    +0.080 C 
ATOM      9  N   LIG    1       -3.224  -2.585  -3.932  0.00  0.00    -0.350 N 
ATOM     10  C   LIG    1       -2.451  -1.850  -4.943  0.00  0.00    +0.320 C 
ATOM     11  H   LIG    1       -3.889  -3.188  -4.392  0.00  0.00    +0.430 HD
ATOM     12  C   LIG    1       -2.312  -3.397  -3.118  0.00  0.00    +0.270 C 
BRANCH   8  13
ATOM     13  C   LIG    1       -4.928  -0.856  -3.910  0.00  0.00    +0.500 C 
ATOM     14  O   LIG    1       -5.639  -0.015  -3.387  0.00  0.00    -0.630 OA
ATOM     15  O   LIG    1       -5.017  -1.070  -5.107  0.00  0.00    -0.670 OA
ENDBRANCH   8  13
ENDBRANCH   2   5
BRANCH   1  16
ATOM     16  C   LIG    1        1.181  -1.418  -1.492  0.00  0.00    +0.280 C 
BRANCH  16  17
ATOM     17  C   LIG    1        0.890  -0.599  -0.233  0.00  0.00    +0.010 C 
BRANCH  17  18
ATOM     18  C   LIG    1        1.070   0.889  -0.540  0.00  0.00    +0.150 C 
BRANCH  18  23
ATOM     19  N   LIG    1        1.692   2.050   1.635  0.00  0.00    -0.450 N 
ATOM     20  C   LIG    1        1.029   2.773   2.590  0.00  0.00    +0.110 A 
ATOM     21  C   LIG    1       -0.260   2.837   2.205  0.00  0.00    +0.140 A 
ATOM     22  N   LIG    1       -0.380   2.175   1.045  0.00  0.00    -0.480 NA
ATOM     23  C   LIG    1        0.784   1.696   0.700  0.00  0.00    +0.200 A 
BRANCH  19  24
ATOM     24  C   LIG    1        3.120   1.721   1.629  0.00  0.00    +0.280 C 
BRANCH  24  26
ATOM     25  C   LIG    1        5.369   2.412   0.788  0.00  0.00    +0.030 C 
ATOM     26  C   LIG    1        3.878   2.755   0.794  0.00  0.00    +0.000 C 
ENDBRANCH  24  26
ENDBRANCH  19  24
ENDBRANCH  18  23
ENDBRANCH  17  18
ENDBRANCH  16  17
ENDBRANCH   1  16
TORSDOF 8
