REMARK  Name = ZINCpk00001AZj50.0
REMARK                            x       y       z     vdW  Elec       q    Type
REMARK                         _______ _______ _______ _____ _____    ______ ____
ROOT
ATOM      1  N   LIG    1        3.263   1.350  -4.037  0.00  0.00    -0.610 N 
ATOM      2  C   LIG    1        1.990   1.021  -3.741  0.00  0.00    +0.530 C 
ATOM      3  O   LIG    1        1.367   0.285  -4.476  0.00  0.00    -0.530 OA
ATOM      4  C   LIG    1        4.016   2.239  -3.149  0.00  0.00    +0.300 C 
ENDROOT
BRANCH   2   5
ATOM      5  C   LIG    1        1.341   1.569  -2.496  0.00  0.00    -0.010 C 
ATOM      6  C   LIG    1        2.134   1.119  -1.265  0.00  0.00    +0.040 C 
ATOM      7  C   LIG    1        1.423   1.615  -0.003  0.00  0.00    +0.080 C 
ATOM      8  C   LIG    1       -0.013   1.086   0.008  0.00  0.00    +0.080 C 
ATOM      9  N   LIG    1       -0.726   1.571  -1.179  0.00  0.00    -0.360 N 
ATOM     10  C   LIG    1       -2.125   1.126  -1.125  0.00  0.00    +0.320 C 
ATOM     11  H   LIG    1       -0.697   2.580  -1.199  0.00  0.00    +0.420 HD
ATOM     12  C   LIG    1       -0.092   1.042  -2.393  0.00  0.00    +0.270 C 
BRANCH   8  13
ATOM     13  C   LIG    1       -0.717   1.571   1.249  0.00  0.00    +0.490 C 
ATOM     14  O   LIG    1       -0.679   0.907   2.270  0.00  0.00    -0.640 OA
ATOM     15  O   LIG    1       -1.324   2.628   1.231  0.00  0.00    -0.670 OA
ENDBRANCH   8  13
ENDBRANCH   2   5
BRANCH   1  16
ATOM     16  C   LIG    1        3.894   0.818  -5.247  0.00  0.00    +0.280 C 
BRANCH  16  17
ATOM     17  C   LIG    1        3.646   1.774  -6.415  0.00  0.00    +0.010 C 
BRANCH  17  18
ATOM     18  C   LIG    1        4.305   1.218  -7.679  0.00  0.00    +0.150 C 
BRANCH  18  23
ATOM     19  N   LIG    1        4.856   3.192  -9.185  0.00  0.00    -0.460 N 
ATOM     20  C   LIG    1        4.280   3.791 -10.274  0.00  0.00    +0.110 A 
ATOM     21  C   LIG    1        3.153   3.105 -10.545  0.00  0.00    +0.140 A 
ATOM     22  N   LIG    1        3.046   2.112  -9.650  0.00  0.00    -0.490 NA
ATOM     23  C   LIG    1        4.060   2.161  -8.829  0.00  0.00    +0.210 A 
BRANCH  19  24
ATOM     24  C   LIG    1        6.102   3.595  -8.530  0.00  0.00    +0.280 C 
BRANCH  24  26
ATOM     25  C   LIG    1        8.565   3.190  -8.405  0.00  0.00    +0.030 C 
ATOM     26  C   LIG    1        7.263   2.769  -9.090  0.00  0.00    +0.000 C 
ENDBRANCH  24  26
ENDBRANCH  19  24
ENDBRANCH  18  23
ENDBRANCH  17  18
ENDBRANCH  16  17
ENDBRANCH   1  16
TORSDOF 8
