REMARK  Name = ZINC9l0000002lhN.0
REMARK                            x       y       z     vdW  Elec       q    Type
REMARK                         _______ _______ _______ _____ _____    ______ ____
ROOT
ATOM      1  C   LIG    1       -1.150   1.781  -0.743  0.00  0.00    -0.120 C 
ATOM      2  C   LIG    1       -1.136   1.773   0.788  0.00  0.00    -0.010 C 
ATOM      3  C   LIG    1       -2.179   0.893  -1.445  0.00  0.00    +0.050 C 
ATOM      4  C   LIG    1       -0.013   1.086   0.008  0.00  0.00    -0.110 C 
ENDROOT
BRANCH   4   5
ATOM      5  C   LIG    1        1.338   1.754  -0.001  0.00  0.00    +0.520 C 
ATOM      6  O   LIG    1        1.673   2.438  -0.953  0.00  0.00    -0.690 OA
ATOM      7  O   LIG    1        2.096   1.611   0.943  0.00  0.00    -0.700 OA
ENDBRANCH   4   5
BRANCH   1   9
ATOM      8  C   LIG    1       -2.089   3.633  -2.133  0.00  0.00    -0.020 C 
ATOM      9  C   LIG    1       -0.830   3.102  -1.445  0.00  0.00    +0.080 C 
ENDBRANCH   1   9
TORSDOF 2
