REMARK  Name = ZINCvU0000000Cj5.0
REMARK                            x       y       z     vdW  Elec       q    Type
REMARK                         _______ _______ _______ _____ _____    ______ ____
ROOT
ATOM      1  C   LIG    1        3.664   2.578  -0.497  0.00  0.00    -0.270 A 
ATOM      2  C   LIG    1        4.394   3.407  -1.257  0.00  0.00    +0.190 A 
ATOM      3  C   LIG    1        5.560   3.901  -0.657  0.00  0.00    -0.220 A 
ATOM      4  C   LIG    1        5.744   3.433   0.634  0.00  0.00    +0.020 A 
ATOM      5  N   LIG    1        6.907   3.983   1.107  0.00  0.00    -0.310 N 
ATOM      6  N   LIG    1        7.442   4.795   0.103  0.00  0.00    -0.240 NA
ATOM      7  C   LIG    1        6.667   4.761  -0.940  0.00  0.00    +0.140 A 
ATOM      8  C   LIG    1        6.897   5.503  -2.231  0.00  0.00    +0.180 C 
ATOM      9  S   LIG    1        4.418   2.365   1.075  0.00  0.00    +0.210 S 
ENDROOT
BRANCH   5  10
ATOM     10  C   LIG    1        7.462   3.768   2.375  0.00  0.00    +0.150 A 
ATOM     11  C   LIG    1        6.664   3.855   3.508  0.00  0.00    +0.030 A 
ATOM     12  C   LIG    1        7.214   3.642   4.757  0.00  0.00    +0.050 A 
ATOM     13  C   LIG    1        8.559   3.344   4.880  0.00  0.00    +0.040 A 
ATOM     14  C   LIG    1        9.357   3.256   3.755  0.00  0.00    +0.050 A 
ATOM     15  C   LIG    1        8.812   3.462   2.502  0.00  0.00    -0.030 A 
ATOM     16 CL   LIG    1        9.813   3.345   1.088  0.00  0.00    -0.040 Cl
ENDBRANCH   5  10
BRANCH   1  21
ATOM     17  C   LIG    1        0.569   0.258  -0.144  0.00  0.00    +0.250 C 
ATOM     18  C   LIG    1        0.394   0.462   1.368  0.00  0.00    +0.050 C 
ATOM     19  C   LIG    1        1.909   0.703   1.329  0.00  0.00    +0.260 C 
ATOM     20  N   LIG    1        1.755   1.124  -0.071  0.00  0.00    -0.650 N 
ATOM     21  C   LIG    1        2.411   1.944  -0.916  0.00  0.00    +0.630 C 
ATOM     22  O   LIG    1        1.963   2.158  -2.027  0.00  0.00    -0.520 OA
BRANCH  17  23
ATOM     23  C   LIG    1       -0.570   0.852  -0.976  0.00  0.00    +0.090 C 
BRANCH  23  27
ATOM     24  C   LIG    1       -3.789  -1.950  -1.191  0.00  0.00    +0.120 A 
ATOM     25  C   LIG    1       -3.799  -0.953  -0.226  0.00  0.00    -0.020 A 
ATOM     26  C   LIG    1       -2.757  -0.048  -0.159  0.00  0.00    +0.060 A 
ATOM     27  C   LIG    1       -1.705  -0.136  -1.052  0.00  0.00    -0.120 A 
ATOM     28  C   LIG    1       -1.696  -1.125  -2.018  0.00  0.00    +0.050 A 
ATOM     29  C   LIG    1       -2.733  -2.035  -2.086  0.00  0.00    -0.080 A 
BRANCH  24  31
ATOM     30  C   LIG    1       -4.736  -3.840  -2.278  0.00  0.00    +0.250 C 
ATOM     31  O   LIG    1       -4.813  -2.841  -1.260  0.00  0.00    -0.320 OA
ENDBRANCH  24  31
ENDBRANCH  23  27
ENDBRANCH  17  23
ENDBRANCH   1  21
TORSDOF 5
