REMARK  Name = ZINCvU00000006g4.0
REMARK                            x       y       z     vdW  Elec       q    Type
REMARK                         _______ _______ _______ _____ _____    ______ ____
ROOT
ATOM      1  C   LIG    1        1.106  -6.016  -1.839  0.00  0.00    +0.570 C 
ATOM      2  N   LIG    1        0.591  -6.846  -0.911  0.00  0.00    -0.710 N 
ATOM      3  H   LIG    1        0.146  -6.484  -0.129  0.00  0.00    +0.410 HD
ATOM      4  O   LIG    1        1.664  -6.471  -2.819  0.00  0.00    -0.540 OA
ENDROOT
BRANCH   1   8
ATOM      5  C   LIG    1        0.777  -1.809  -1.336  0.00  0.00    +0.140 A 
ATOM      6  C   LIG    1        0.252  -2.666  -0.379  0.00  0.00    -0.040 A 
ATOM      7  C   LIG    1        0.352  -4.031  -0.541  0.00  0.00    +0.060 A 
ATOM      8  C   LIG    1        0.993  -4.555  -1.666  0.00  0.00    -0.140 A 
ATOM      9  C   LIG    1        1.526  -3.692  -2.628  0.00  0.00    +0.040 A 
ATOM     10  C   LIG    1        1.418  -2.326  -2.462  0.00  0.00    +0.100 A 
BRANCH   5  11
ATOM     11  O   LIG    1        0.671  -0.465  -1.174  0.00  0.00    -0.300 OA
BRANCH  11  12
ATOM     12  C   LIG    1        0.002  -0.004   0.002  0.00  0.00    +0.170 C 
BRANCH  12  13
ATOM     13  C   LIG    1       -0.019   1.526   0.010  0.00  0.00    +0.040 C 
BRANCH  13  15
ATOM     14  C   LIG    1       -0.756   3.549   1.278  0.00  0.00    +0.030 C 
ATOM     15  C   LIG    1       -0.735   2.019   1.269  0.00  0.00    +0.020 C 
ENDBRANCH  13  15
ENDBRANCH  12  13
ENDBRANCH  11  12
ENDBRANCH   5  11
BRANCH  10  16
ATOM     16  O   LIG    1        1.935  -1.484  -3.396  0.00  0.00    -0.300 OA
BRANCH  16  17
ATOM     17  C   LIG    1        2.579  -2.082  -4.523  0.00  0.00    +0.170 C 
ATOM     18  C   LIG    1        3.094  -0.985  -5.457  0.00  0.00    +0.070 C 
ENDBRANCH  16  17
ENDBRANCH  10  16
ENDBRANCH   1   8
BRANCH   2  19
ATOM     19  C   LIG    1        0.703  -8.297  -1.082  0.00  0.00    +0.390 C 
BRANCH  19  20
ATOM     20  C   LIG    1        0.639  -8.969   0.265  0.00  0.00    -0.090 A 
ATOM     21  C   LIG    1       -0.240  -8.506   1.227  0.00  0.00    +0.060 A 
ATOM     22  C   LIG    1       -0.302  -9.125   2.461  0.00  0.00    +0.030 A 
ATOM     23  C   LIG    1        0.522 -10.201   2.738  0.00  0.00    -0.030 A 
ATOM     24  C   LIG    1        1.405 -10.660   1.777  0.00  0.00    +0.030 A 
ATOM     25 CL   LIG    1        0.449 -10.975   4.290  0.00  0.00    -0.060 Cl
ATOM     26  C   LIG    1        1.463 -10.044   0.541  0.00  0.00    +0.040 A 
ENDBRANCH  19  20
BRANCH  19  27
ATOM     27  C   LIG    1       -0.431  -8.790  -1.944  0.00  0.00    +0.190 A 
ATOM     28  N   LIG    1       -1.684  -8.447  -1.821  0.00  0.00    -0.470 NA
ATOM     29  C   LIG    1       -2.409  -9.078  -2.757  0.00  0.00    +0.140 A 
ATOM     30  C   LIG    1       -1.575  -9.846  -3.482  0.00  0.00    +0.130 A 
ATOM     31  N   LIG    1       -0.320  -9.664  -2.967  0.00  0.00    -0.450 N 
ATOM     32  C   LIG    1        0.914 -10.299  -3.438  0.00  0.00    +0.330 C 
ENDBRANCH  19  27
ENDBRANCH   2  19
TORSDOF 10
