REMARK  Name = ZINCpk000005TF5u.0
REMARK                            x       y       z     vdW  Elec       q    Type
REMARK                         _______ _______ _______ _____ _____    ______ ____
ROOT
ATOM      1  N   LIG    1       -1.110  -0.823   0.009  0.00  0.00    -0.410 N 
ATOM      2  C   LIG    1       -1.198  -1.613  -1.246  0.00  0.00    +0.200 C 
ATOM      3  C   LIG    1       -2.683  -2.026  -1.344  0.00  0.00    +0.280 C 
ATOM      4  C   LIG    1       -3.440  -0.979  -0.511  0.00  0.00    -0.070 C 
ATOM      5  C   LIG    1       -4.429  -0.218  -1.391  0.00  0.00    +0.020 C 
ATOM      6  C   LIG    1       -5.209   0.777  -0.526  0.00  0.00    +0.220 C 
ATOM      7  O   LIG    1       -5.856   0.076   0.538  0.00  0.00    -0.380 OA
ATOM      8  C   LIG    1       -4.960  -0.596   1.427  0.00  0.00    +0.210 C 
ATOM      9  C   LIG    1       -4.169  -1.652   0.648  0.00  0.00    +0.030 C 
ATOM     10  C   LIG    1       -2.362  -0.021   0.025  0.00  0.00    +0.240 C 
ENDROOT
BRANCH   1  14
ATOM     11  C   LIG    1        2.162   1.146  -0.012  0.00  0.00    +0.040 A 
ATOM     12  N   LIG    1        1.095   1.901   0.002  0.00  0.00    -0.170 NA
ATOM     13  N   LIG    1       -0.016   1.302   0.009  0.00  0.00    -0.290 NA
ATOM     14  C   LIG    1        0.002  -0.004   0.002  0.00  0.00    +0.170 A 
ATOM     15  S   LIG    1        1.630  -0.535  -0.016  0.00  0.00    +0.250 S 
BRANCH  11  17
ATOM     16  N   LIG    1        4.596   1.964  -0.030  0.00  0.00    -0.340 NA
ATOM     17  C   LIG    1        3.519   1.602  -0.022  0.00  0.00    +0.290 C 
ENDBRANCH  11  17
ENDBRANCH   1  14
BRANCH   3  18
ATOM     18  N   LIG    1       -3.133  -1.992  -2.738  0.00  0.00    -0.720 N 
ATOM     19  H   LIG    1       -3.518  -1.180  -3.103  0.00  0.00    +0.410 HD
ATOM     20  C   LIG    1       -3.012  -3.088  -3.513  0.00  0.00    +0.610 C 
ATOM     21  O   LIG    1       -2.528  -4.106  -3.055  0.00  0.00    -0.510 OA
BRANCH  20  22
ATOM     22  C   LIG    1       -3.462  -3.053  -4.908  0.00  0.00    -0.090 A 
ATOM     23  C   LIG    1       -3.398  -4.087  -5.798  0.00  0.00    +0.050 A 
ATOM     24  C   LIG    1       -3.936  -3.614  -7.005  0.00  0.00    -0.070 A 
ATOM     25  C   LIG    1       -4.301  -2.329  -6.802  0.00  0.00    +0.210 A 
ATOM     26  O   LIG    1       -4.019  -1.996  -5.535  0.00  0.00    -0.170 OA
ENDBRANCH  20  22
ENDBRANCH   3  18
TORSDOF 4
