REMARK  Name = ZINCtj00000vdqY6.0
REMARK                            x       y       z     vdW  Elec       q    Type
REMARK                         _______ _______ _______ _____ _____    ______ ____
ROOT
ATOM      1  C   LIG    1       -4.268   1.135   0.067  0.00  0.00    +0.520 C 
ATOM      2  N   LIG    1       -5.141   1.536  -0.879  0.00  0.00    -0.720 N 
ATOM      3  H   LIG    1       -4.860   2.159  -1.567  0.00  0.00    +0.400 HD
ATOM      4  O   LIG    1       -4.620   0.356   0.926  0.00  0.00    -0.520 OA
ENDROOT
BRANCH   2   5
ATOM      5  C   LIG    1       -6.516   1.028  -0.869  0.00  0.00    +0.240 C 
ATOM      6  C   LIG    1       -6.569  -0.316  -1.597  0.00  0.00    +0.060 C 
BRANCH   5   7
ATOM      7  C   LIG    1       -7.433   2.028  -1.576  0.00  0.00    +0.350 C 
BRANCH   7   8
ATOM      8  N   LIG    1       -7.476   3.277  -0.812  0.00  0.00    -0.290 N 
ATOM      9  C   LIG    1       -7.187   4.506  -1.293  0.00  0.00    +0.200 A 
ATOM     10  C   LIG    1       -7.356   5.370  -0.249  0.00  0.00    +0.020 A 
ATOM     11  N   LIG    1       -7.729   4.618   0.803  0.00  0.00    -0.240 NA
ATOM     12  N   LIG    1       -7.788   3.388   0.431  0.00  0.00    -0.070 NA
BRANCH  10  13
ATOM     13  C   LIG    1       -7.163   6.840  -0.269  0.00  0.00    +0.150 A 
ATOM     14  C   LIG    1       -7.377   7.590   0.888  0.00  0.00    +0.260 A 
ATOM     15  N   LIG    1       -7.199   8.897   0.867  0.00  0.00    -0.430 NA
ATOM     16  C   LIG    1       -6.829   9.498  -0.252  0.00  0.00    +0.240 A 
ATOM     17  C   LIG    1       -6.621   8.759  -1.403  0.00  0.00    +0.240 A 
ATOM     18  N   LIG    1       -6.791   7.449  -1.390  0.00  0.00    -0.430 NA
ENDBRANCH  10  13
ENDBRANCH   7   8
ENDBRANCH   5   7
ENDBRANCH   2   5
BRANCH   1  19
ATOM     19  C   LIG    1       -2.854   1.657   0.056  0.00  0.00    +0.070 C 
BRANCH  19  20
ATOM     20  C   LIG    1       -2.078   1.051   1.227  0.00  0.00    +0.290 C 
BRANCH  20  21
ATOM     21  N   LIG    1       -0.700   1.560   1.217  0.00  0.00    -0.390 N 
ATOM     22  C   LIG    1       -0.013   1.086   0.008  0.00  0.00    +0.320 C 
ATOM     23  H   LIG    1       -0.714   2.568   1.222  0.00  0.00    +0.420 HD
BRANCH  21  24
ATOM     24  C   LIG    1        0.010   1.073   2.407  0.00  0.00    +0.380 C 
BRANCH  24  31
ATOM     25  C   LIG    1        0.877   3.852   3.840  0.00  0.00    +0.180 C 
ATOM     26  C   LIG    1        1.769   2.902   3.083  0.00  0.00    +0.040 A 
ATOM     27  N   LIG    1        3.047   3.032   2.872  0.00  0.00    -0.340 NA
ATOM     28  O   LIG    1        3.489   2.107   2.231  0.00  0.00    +0.120 OA
ATOM     29  C   LIG    1        2.534   1.216   1.929  0.00  0.00    +0.030 A 
ATOM     30  C   LIG    1        2.707  -0.062   1.149  0.00  0.00    +0.210 C 
ATOM     31  C   LIG    1        1.383   1.692   2.460  0.00  0.00    -0.290 A 
ENDBRANCH  24  31
ENDBRANCH  21  24
ENDBRANCH  20  21
ENDBRANCH  19  20
ENDBRANCH   1  19
TORSDOF 9
