REMARK  Name = ZINCtj00000vdqY6.1
REMARK                            x       y       z     vdW  Elec       q    Type
REMARK                         _______ _______ _______ _____ _____    ______ ____
ROOT
ATOM      1  C   LIG    1        0.560   9.063  -3.522  0.00  0.00    +0.520 C 
ATOM      2  N   LIG    1        1.254   8.771  -2.404  0.00  0.00    -0.720 N 
ATOM      3  H   LIG    1        1.969   8.116  -2.434  0.00  0.00    +0.400 HD
ATOM      4  O   LIG    1       -0.334   9.881  -3.484  0.00  0.00    -0.520 OA
ENDROOT
BRANCH   2   5
ATOM      5  C   LIG    1        0.928   9.442  -1.143  0.00  0.00    +0.240 C 
ATOM      6  C   LIG    1        1.664  10.782  -1.074  0.00  0.00    +0.060 C 
BRANCH   5   7
ATOM      7  C   LIG    1        1.361   8.561   0.030  0.00  0.00    +0.350 C 
BRANCH   7   8
ATOM      8  N   LIG    1        0.571   7.328   0.032  0.00  0.00    -0.290 N 
ATOM      9  C   LIG    1        1.068   6.072   0.022  0.00  0.00    +0.200 A 
ATOM     10  C   LIG    1       -0.013   5.237   0.029  0.00  0.00    +0.020 A 
ATOM     11  N   LIG    1       -1.099   6.031   0.037  0.00  0.00    -0.240 NA
ATOM     12  N   LIG    1       -0.714   7.258   0.045  0.00  0.00    -0.070 NA
BRANCH  10  13
ATOM     13  C   LIG    1        0.007   3.754   0.022  0.00  0.00    +0.150 A 
ATOM     14  C   LIG    1       -1.191   3.038   0.030  0.00  0.00    +0.260 A 
ATOM     15  N   LIG    1       -1.168   1.719   0.017  0.00  0.00    -0.430 NA
ATOM     16  C   LIG    1       -0.013   1.076   0.008  0.00  0.00    +0.240 A 
ATOM     17  C   LIG    1        1.178   1.782   0.000  0.00  0.00    +0.240 A 
ATOM     18  N   LIG    1        1.165   3.102   0.007  0.00  0.00    -0.430 NA
ENDBRANCH  10  13
ENDBRANCH   7   8
ENDBRANCH   5   7
ENDBRANCH   2   5
BRANCH   1  19
ATOM     19  C   LIG    1        0.895   8.372  -4.819  0.00  0.00    +0.070 C 
BRANCH  19  20
ATOM     20  C   LIG    1       -0.034   8.881  -5.923  0.00  0.00    +0.290 C 
BRANCH  20  21
ATOM     21  N   LIG    1        0.292   8.208  -7.187  0.00  0.00    -0.390 N 
ATOM     22  C   LIG    1        0.003   6.773  -7.066  0.00  0.00    +0.320 C 
ATOM     23  H   LIG    1        1.271   8.338  -7.394  0.00  0.00    +0.420 HD
BRANCH  21  24
ATOM     24  C   LIG    1       -0.517   8.781  -8.270  0.00  0.00    +0.370 C 
BRANCH  24  31
ATOM     25  C   LIG    1       -1.694   6.115  -9.696  0.00  0.00    +0.170 C 
ATOM     26  C   LIG    1       -0.604   7.017 -10.213  0.00  0.00    +0.040 A 
ATOM     27  N   LIG    1        0.057   6.883 -11.326  0.00  0.00    -0.340 NA
ATOM     28  O   LIG    1        0.873   7.764 -11.470  0.00  0.00    +0.120 OA
ATOM     29  C   LIG    1        0.853   8.625 -10.442  0.00  0.00    +0.040 A 
ATOM     30  C   LIG    1        1.717   9.848 -10.273  0.00  0.00    +0.200 C 
ATOM     31  C   LIG    1       -0.096   8.178  -9.585  0.00  0.00    -0.290 A 
ENDBRANCH  24  31
ENDBRANCH  21  24
ENDBRANCH  20  21
ENDBRANCH  19  20
ENDBRANCH   1  19
TORSDOF 9
