REMARK  Name = ZINCrH000004pFPO.0
REMARK                            x       y       z     vdW  Elec       q    Type
REMARK                         _______ _______ _______ _____ _____    ______ ____
ROOT
ATOM      1  N   LIG    1       -5.099   0.643  -3.505  0.00  0.00    -0.640 N 
ATOM      2  H   LIG    1       -4.551  -0.079  -3.851  0.00  0.00    +0.420 HD
ATOM      3  C   LIG    1       -6.440   0.516  -3.476  0.00  0.00    +0.710 C 
ATOM      4  N   LIG    1       -7.027  -0.567  -4.022  0.00  0.00    -0.610 N 
ATOM      5  C   LIG    1       -6.214  -1.667  -4.560  0.00  0.00    +0.270 C 
ATOM      6  C   LIG    1       -6.640  -1.943  -6.000  0.00  0.00    +0.010 C 
ATOM      7  C   LIG    1       -8.149  -2.197  -6.045  0.00  0.00    +0.030 C 
ATOM      8  C   LIG    1       -8.891  -0.957  -5.547  0.00  0.00    -0.070 C 
ATOM      9  C   LIG    1       -8.530   0.245  -6.424  0.00  0.00    +0.000 C 
ATOM     10  C   LIG    1       -9.336   1.463  -5.965  0.00  0.00    +0.200 C 
ATOM     11  O   LIG    1      -10.731   1.161  -6.032  0.00  0.00    -0.380 OA
ATOM     12  C   LIG    1      -11.135   0.076  -5.193  0.00  0.00    +0.210 C 
ATOM     13  C   LIG    1      -10.401  -1.198  -5.621  0.00  0.00    +0.020 C 
ATOM     14  C   LIG    1       -8.491  -0.669  -4.097  0.00  0.00    +0.300 C 
ATOM     15  O   LIG    1       -7.122   1.379  -2.957  0.00  0.00    -0.550 OA
ENDROOT
BRANCH   1  19
ATOM     16  C   LIG    1       -2.828   3.196  -2.543  0.00  0.00    +0.060 A 
ATOM     17  C   LIG    1       -3.817   3.994  -2.136  0.00  0.00    -0.140 A 
ATOM     18  S   LIG    1       -5.342   3.154  -2.404  0.00  0.00    +0.250 S 
ATOM     19  C   LIG    1       -4.501   1.808  -3.039  0.00  0.00    +0.260 A 
ATOM     20  N   LIG    1       -3.224   2.033  -3.026  0.00  0.00    -0.510 NA
BRANCH  16  21
ATOM     21  C   LIG    1       -1.376   3.592  -2.463  0.00  0.00    +0.310 C 
BRANCH  21  27
ATOM     22  C   LIG    1       -1.571   3.627   2.452  0.00  0.00    +0.020 C 
ATOM     23  C   LIG    1       -0.801   3.124   1.229  0.00  0.00    -0.010 C 
ATOM     24  C   LIG    1       -0.730   1.595   1.263  0.00  0.00    +0.000 C 
ATOM     25  C   LIG    1       -0.012   1.097   0.005  0.00  0.00    +0.010 C 
ATOM     26  C   LIG    1       -0.754   1.601  -1.234  0.00  0.00    +0.170 C 
ATOM     27  N   LIG    1       -0.793   3.069  -1.220  0.00  0.00    -0.520 NA
ATOM     28  C   LIG    1       -1.520   3.569  -0.046  0.00  0.00    +0.170 C 
ENDBRANCH  21  27
ENDBRANCH  16  21
ENDBRANCH   1  19
TORSDOF 3
