REMARK  Name = ZINCvU0000000Ejx.0
REMARK                            x       y       z     vdW  Elec       q    Type
REMARK                         _______ _______ _______ _____ _____    ______ ____
ROOT
ATOM      1  C   LIG    1       -3.670   5.838  -2.057  0.00  0.00    +0.560 C 
ATOM      2  N   LIG    1       -2.493   5.626  -1.435  0.00  0.00    -0.660 N 
ATOM      3  H   LIG    1       -2.477   5.222  -0.553  0.00  0.00    +0.410 HD
ATOM      4  O   LIG    1       -3.687   6.251  -3.200  0.00  0.00    -0.500 OA
ENDROOT
BRANCH   1   7
ATOM      5  C   LIG    1       -7.343   5.536  -1.330  0.00  0.00    +0.150 A 
ATOM      6  C   LIG    1       -6.158   5.789  -1.994  0.00  0.00    -0.020 A 
ATOM      7  C   LIG    1       -4.937   5.569  -1.350  0.00  0.00    -0.060 A 
ATOM      8  C   LIG    1       -4.919   5.090  -0.038  0.00  0.00    -0.080 A 
ATOM      9  C   LIG    1       -6.107   4.844   0.624  0.00  0.00    +0.150 A 
ATOM     10  C   LIG    1       -7.322   5.063  -0.020  0.00  0.00    +0.060 A 
BRANCH   5  11
ATOM     11  O   LIG    1       -8.532   5.749  -1.956  0.00  0.00    -0.300 OA
BRANCH  11  13
ATOM     12  C   LIG    1       -9.902   6.412  -3.833  0.00  0.00    +0.070 C 
ATOM     13  C   LIG    1       -8.479   6.235  -3.299  0.00  0.00    +0.190 C 
ENDBRANCH  11  13
ENDBRANCH   5  11
BRANCH   9  14
ATOM     14  O   LIG    1       -6.090   4.382   1.903  0.00  0.00    -0.300 OA
BRANCH  14  15
ATOM     15  C   LIG    1       -4.809   4.180   2.502  0.00  0.00    +0.180 C 
ATOM     16  C   LIG    1       -4.990   3.662   3.930  0.00  0.00    +0.070 C 
ENDBRANCH  14  15
ENDBRANCH   9  14
BRANCH  10  17
ATOM     17  O   LIG    1       -8.489   4.814   0.630  0.00  0.00    -0.310 OA
BRANCH  17  18
ATOM     18  C   LIG    1       -9.033   3.498   0.508  0.00  0.00    +0.160 C 
ATOM     19  C   LIG    1      -10.338   3.410   1.302  0.00  0.00    +0.060 C 
ENDBRANCH  17  18
ENDBRANCH  10  17
ENDBRANCH   1   7
BRANCH   2  20
ATOM     20  C   LIG    1       -1.296   5.989  -2.060  0.00  0.00    +0.150 A 
ATOM     21  C   LIG    1       -1.290   6.989  -3.023  0.00  0.00    +0.020 A 
ATOM     22  C   LIG    1       -0.106   7.345  -3.640  0.00  0.00    +0.030 A 
ATOM     23  C   LIG    1        1.072   6.706  -3.298  0.00  0.00    -0.010 A 
ATOM     24  C   LIG    1        1.070   5.713  -2.335  0.00  0.00    +0.040 A 
ATOM     25  C   LIG    1       -0.111   5.349  -1.719  0.00  0.00    -0.110 A 
BRANCH  25  26
ATOM     26  C   LIG    1       -0.114   4.263  -0.674  0.00  0.00    +0.120 C 
BRANCH  26  27
ATOM     27  C   LIG    1       -0.470   2.948  -1.318  0.00  0.00    -0.080 A 
ATOM     28  C   LIG    1        0.526   2.136  -1.827  0.00  0.00    +0.010 A 
ATOM     29  C   LIG    1        0.200   0.929  -2.417  0.00  0.00    +0.000 A 
ATOM     30  C   LIG    1       -1.123   0.534  -2.496  0.00  0.00    +0.000 A 
ATOM     31  C   LIG    1       -2.119   1.348  -1.991  0.00  0.00    +0.000 A 
ATOM     32  C   LIG    1       -1.792   2.553  -1.398  0.00  0.00    -0.010 A 
ENDBRANCH  26  27
ENDBRANCH  25  26
ENDBRANCH   2  20
TORSDOF 10
