REMARK  Name = ZINCrH000004s3Ax.0
REMARK                            x       y       z     vdW  Elec       q    Type
REMARK                         _______ _______ _______ _____ _____    ______ ____
ROOT
ATOM      1  C   LIG    1        2.843  -3.112  -1.413  0.00  0.00    +0.500 C 
ATOM      2  N   LIG    1        3.083  -3.750  -2.575  0.00  0.00    -0.730 N 
ATOM      3  H   LIG    1        2.387  -4.287  -2.986  0.00  0.00    +0.400 HD
ATOM      4  O   LIG    1        3.713  -2.442  -0.898  0.00  0.00    -0.520 OA
ENDROOT
BRANCH   2   5
ATOM      5  C   LIG    1        4.395  -3.635  -3.217  0.00  0.00    +0.290 C 
ATOM      6  C   LIG    1        5.348  -4.672  -2.620  0.00  0.00    +0.040 C 
BRANCH   5   7
ATOM      7  C   LIG    1        4.252  -3.877  -4.698  0.00  0.00    -0.100 A 
ATOM      8  C   LIG    1        3.410  -4.873  -5.157  0.00  0.00    +0.010 A 
ATOM      9  C   LIG    1        3.277  -5.092  -6.516  0.00  0.00    +0.010 A 
ATOM     10  C   LIG    1        3.992  -4.322  -7.414  0.00  0.00    -0.070 A 
ATOM     11  C   LIG    1        4.837  -3.330  -6.954  0.00  0.00    +0.010 A 
ATOM     12  C   LIG    1        4.968  -3.108  -5.596  0.00  0.00    +0.020 A 
BRANCH  10  13
ATOM     13  C   LIG    1        3.849  -4.565  -8.894  0.00  0.00    +0.020 C 
ATOM     14  C   LIG    1        2.391  -4.356  -9.308  0.00  0.00    +0.040 C 
ATOM     15  C   LIG    1        4.271  -6.000  -9.219  0.00  0.00    +0.030 C 
ENDBRANCH  10  13
ENDBRANCH   5   7
ENDBRANCH   2   5
BRANCH   1  16
ATOM     16  C   LIG    1        1.494  -3.230  -0.752  0.00  0.00    +0.320 C 
BRANCH  16  17
ATOM     17  N   LIG    1        1.450  -2.363   0.428  0.00  0.00    -0.930 N 
BRANCH  17  24
ATOM     18  C   LIG    1       -1.271  -1.608   0.779  0.00  0.00    +0.090 C 
ATOM     19  C   LIG    1       -0.199  -0.601   0.453  0.00  0.00    -0.090 A 
ATOM     20  C   LIG    1       -0.524   0.735   0.316  0.00  0.00    +0.010 A 
ATOM     21  C   LIG    1        0.459   1.660   0.017  0.00  0.00    +0.030 A 
ATOM     22  C   LIG    1        1.770   1.253  -0.145  0.00  0.00    +0.010 A 
ATOM     23  C   LIG    1        2.102  -0.081  -0.009  0.00  0.00    +0.050 A 
ATOM     24  C   LIG    1        1.117  -1.013   0.290  0.00  0.00    +0.130 A 
ENDBRANCH  17  24
BRANCH  17  25
ATOM     25  S   LIG    1        1.794  -2.983   1.924  0.00  0.00    +2.600 S 
ATOM     26  O   LIG    1        2.095  -1.842   2.716  0.00  0.00    -0.930 OA
ATOM     27  O   LIG    1        2.775  -3.980   1.673  0.00  0.00    -0.940 OA
ATOM     28  C   LIG    1        0.239  -3.742   2.468  0.00  0.00    -0.290 C 
ENDBRANCH  17  25
ENDBRANCH  16  17
ENDBRANCH   1  16
TORSDOF 7
