REMARK  Name = ZINCpk000000p8iD.0
REMARK                            x       y       z     vdW  Elec       q    Type
REMARK                         _______ _______ _______ _____ _____    ______ ____
ROOT
ATOM      1  C   LIG    1       -1.359   3.622  -0.011  0.00  0.00    +0.340 C 
ATOM      2  C   LIG    1       -2.874   3.912  -0.021  0.00  0.00    +0.050 C 
ATOM      3  C   LIG    1       -3.483   2.600   0.541  0.00  0.00    +0.040 C 
ATOM      4  C   LIG    1       -2.528   1.535  -0.059  0.00  0.00    +0.250 C 
ATOM      5  N   LIG    1       -1.194   2.161  -0.015  0.00  0.00    -0.610 N 
ATOM      6  C   LIG    1       -0.018   1.503   0.010  0.00  0.00    +0.570 C 
ATOM      7  O   LIG    1        1.023   2.123   0.035  0.00  0.00    -0.530 OA
ENDROOT
BRANCH   6   8
ATOM      8  C   LIG    1        0.002  -0.004   0.002  0.00  0.00    -0.050 C 
ATOM      9  C   LIG    1        1.317  -0.695   0.371  0.00  0.00    +0.090 C 
ATOM     10  C   LIG    1        0.143  -0.715   1.346  0.00  0.00    -0.100 C 
ATOM     11  C   LIG    1       -0.608  -2.038   1.538  0.00  0.00    +0.040 C 
ATOM     12  C   LIG    1       -1.952  -1.740   2.213  0.00  0.00    +0.210 C 
ATOM     13  O   LIG    1       -1.725  -0.997   3.412  0.00  0.00    -0.380 OA
ATOM     14  C   LIG    1       -1.159   0.299   3.208  0.00  0.00    +0.210 C 
ATOM     15  C   LIG    1        0.243   0.151   2.607  0.00  0.00    +0.040 C 
ENDBRANCH   6   8
BRANCH   1  21
ATOM     16  C   LIG    1        0.115   5.355  -1.295  0.00  0.00    -0.020 A 
ATOM     17  N   LIG    1        0.445   5.487  -2.571  0.00  0.00    -0.210 NA
ATOM     18  N   LIG    1       -0.117   4.543  -3.239  0.00  0.00    -0.220 N 
ATOM     19  H   LIG    1       -0.033   4.424  -4.198  0.00  0.00    +0.480 HD
ATOM     20  N   LIG    1       -0.806   3.779  -2.470  0.00  0.00    -0.270 NA
ATOM     21  C   LIG    1       -0.712   4.214  -1.236  0.00  0.00    +0.070 A 
BRANCH  16  22
ATOM     22  C   LIG    1        0.528   6.218  -0.170  0.00  0.00    +0.570 C 
ATOM     23  O   LIG    1        0.147   5.971   0.956  0.00  0.00    -0.490 OA
BRANCH  22  24
ATOM     24  O   LIG    1        1.328   7.279  -0.394  0.00  0.00    -0.340 OA
BRANCH  24  26
ATOM     25  C   LIG    1        2.598   9.233   0.311  0.00  0.00    +0.070 C 
ATOM     26  C   LIG    1        1.694   8.082   0.759  0.00  0.00    +0.200 C 
ENDBRANCH  24  26
ENDBRANCH  22  24
ENDBRANCH  16  22
ENDBRANCH   1  21
TORSDOF 5
