REMARK  Name = ZINCnE000001GqRV.1
REMARK                            x       y       z     vdW  Elec       q    Type
REMARK                         _______ _______ _______ _____ _____    ______ ____
ROOT
ATOM      1  N   LIG    1        4.069   0.164  -1.703  0.00  0.00    -0.650 NA
ATOM      2  C   LIG    1        2.915   0.810  -1.442  0.00  0.00    +0.460 C 
ATOM      3  O   LIG    1        2.218   1.200  -2.355  0.00  0.00    -0.580 OA
ENDROOT
BRANCH   1   7
ATOM      4  C   LIG    1        4.804  -0.247  -5.444  0.00  0.00    -0.430 A 
ATOM      5  C   LIG    1        5.777  -0.791  -4.652  0.00  0.00    +0.210 A 
ATOM      6  N   LIG    1        5.551  -0.665  -3.369  0.00  0.00    -0.560 NA
ATOM      7  C   LIG    1        4.459  -0.054  -3.013  0.00  0.00    +0.350 A 
ATOM      8  C   LIG    1        7.000  -1.476  -5.206  0.00  0.00    +0.140 C 
ATOM      9  S   LIG    1        3.570   0.435  -4.388  0.00  0.00    +0.100 S 
BRANCH   4  10
ATOM     10  C   LIG    1        4.787  -0.239  -6.906  0.00  0.00    +0.560 C 
ATOM     11  O   LIG    1        5.700  -0.750  -7.527  0.00  0.00    -0.540 OA
BRANCH  10  12
ATOM     12  O   LIG    1        3.760   0.335  -7.566  0.00  0.00    -0.350 OA
BRANCH  12  14
ATOM     13  C   LIG    1        2.569   1.000  -9.561  0.00  0.00    +0.040 C 
ATOM     14  C   LIG    1        3.809   0.306  -8.994  0.00  0.00    +0.180 C 
ENDBRANCH  12  14
ENDBRANCH  10  12
ENDBRANCH   4  10
ENDBRANCH   1   7
BRANCH   2  15
ATOM     15  C   LIG    1        2.490   1.047  -0.016  0.00  0.00    +0.110 C 
BRANCH  15  16
ATOM     16  C   LIG    1        1.175   1.783   0.000  0.00  0.00    -0.050 A 
ATOM     17  C   LIG    1       -0.013   1.076   0.008  0.00  0.00    +0.010 A 
ATOM     18  C   LIG    1       -1.219   1.751   0.017  0.00  0.00    +0.000 A 
ATOM     19  C   LIG    1       -1.238   3.133   0.030  0.00  0.00    -0.100 A 
ATOM     20  C   LIG    1       -0.050   3.840   0.022  0.00  0.00    -0.090 A 
ATOM     21  C   LIG    1       -0.070   5.347   0.030  0.00  0.00    +0.090 C 
ATOM     22  C   LIG    1       -2.553   3.868   0.045  0.00  0.00    +0.090 C 
ATOM     23  C   LIG    1        1.156   3.166   0.008  0.00  0.00    +0.020 A 
ENDBRANCH  15  16
ENDBRANCH   2  15
TORSDOF 6
