REMARK  Name = ZINCrH000004vIVY.0
REMARK                            x       y       z     vdW  Elec       q    Type
REMARK                         _______ _______ _______ _____ _____    ______ ____
ROOT
ATOM      1  C   LIG    1        1.076  -4.853  -0.466  0.00  0.00    +0.530 C 
ATOM      2  N   LIG    1        0.000  -4.179  -0.013  0.00  0.00    -0.650 N 
ATOM      3  H   LIG    1       -0.778  -4.664   0.301  0.00  0.00    +0.420 HD
ATOM      4  O   LIG    1        2.080  -4.250  -0.783  0.00  0.00    -0.480 OA
ENDROOT
BRANCH   1   9
ATOM      5  O   LIG    1        4.136  -7.759   0.139  0.00  0.00    -0.490 OA
ATOM      6  C   LIG    1        2.986  -7.372   0.124  0.00  0.00    +0.550 C 
ATOM      7  C   LIG    1        2.087  -7.294   1.337  0.00  0.00    +0.110 C 
ATOM      8  C   LIG    1        0.676  -7.044   0.750  0.00  0.00    +0.120 C 
ATOM      9  C   LIG    1        1.033  -6.355  -0.578  0.00  0.00    +0.130 C 
ATOM     10  S   LIG    1       -0.064  -6.943  -1.921  0.00  0.00    -0.080 S 
ATOM     11  C   LIG    1        1.282  -7.092  -3.111  0.00  0.00    -0.100 A 
ATOM     12  C   LIG    1        1.287  -7.234  -4.484  0.00  0.00    +0.080 A 
ATOM     13  C   LIG    1        2.484  -7.176  -5.177  0.00  0.00    +0.030 A 
ATOM     14  C   LIG    1        3.662  -6.974  -4.482  0.00  0.00    +0.050 A 
ATOM     15  C   LIG    1        3.662  -6.868  -3.108  0.00  0.00    +0.030 A 
ATOM     16  C   LIG    1        2.469  -6.962  -2.384  0.00  0.00    +0.150 A 
ATOM     17  N   LIG    1        2.328  -6.950  -0.981  0.00  0.00    -0.550 N 
ENDBRANCH   1   9
BRANCH   2  18
ATOM     18  C   LIG    1        0.006  -2.778   0.002  0.00  0.00    +0.180 A 
ATOM     19  C   LIG    1        1.183  -2.092   0.266  0.00  0.00    +0.050 A 
ATOM     20  C   LIG    1        1.189  -0.705   0.281  0.00  0.00    +0.090 A 
ATOM     21  C   LIG    1        0.015  -0.004   0.030  0.00  0.00    +0.050 A 
ATOM     22  O   LIG    1        0.002   1.358   0.037  0.00  0.00    -0.300 OA
ATOM     23  C   LIG    1        1.110   2.009   0.668  0.00  0.00    +0.230 C 
ATOM     24  C   LIG    1        2.402   1.338   0.183  0.00  0.00    +0.230 C 
ATOM     25  C   LIG    1       -1.160  -0.693  -0.233  0.00  0.00    +0.090 A 
ATOM     26  O   LIG    1        2.351  -0.047   0.545  0.00  0.00    -0.300 OA
ATOM     27  C   LIG    1       -1.166  -2.075  -0.246  0.00  0.00    -0.110 A 
ATOM     28 BR   LIG    1       -2.771  -3.010  -0.605  0.00  0.00    -0.030 Br
ENDBRANCH   2  18
TORSDOF 2
