REMARK  Name = ZINCpe00000MJJdI.0
REMARK                            x       y       z     vdW  Elec       q    Type
REMARK                         _______ _______ _______ _____ _____    ______ ____
ROOT
ATOM      1  C   LIG    1        4.636  -0.188  -1.109  0.00  0.00    -0.010 C 
ATOM      2  C   LIG    1        4.455   1.319  -1.305  0.00  0.00    +0.030 C 
ATOM      3  C   LIG    1        3.650   1.889  -0.133  0.00  0.00    +0.280 C 
ATOM      4  N   LIG    1        2.391   1.139  -0.015  0.00  0.00    -0.600 N 
ATOM      5  C   LIG    1        2.448  -0.325   0.093  0.00  0.00    +0.290 C 
ATOM      6  C   LIG    1        3.266  -0.870  -1.087  0.00  0.00    +0.020 C 
ENDROOT
BRANCH   4   7
ATOM      7  C   LIG    1        1.177   1.800   0.001  0.00  0.00    +0.470 A 
ATOM      8  C   LIG    1        0.107   1.280   0.725  0.00  0.00    -0.260 A 
ATOM      9  C   LIG    1       -1.106   1.963   0.717  0.00  0.00    +0.520 A 
ATOM     10  N   LIG    1       -1.208   3.115   0.019  0.00  0.00    -0.440 N 
ATOM     11  C   LIG    1       -2.390   3.793   0.011  0.00  0.00    +0.290 A 
ATOM     12  C   LIG    1       -2.521   4.944  -0.684  0.00  0.00    -0.020 A 
ATOM     13  C   LIG    1       -1.436   5.458  -1.409  0.00  0.00    +0.120 A 
ATOM     14  C   LIG    1       -0.250   4.788  -1.408  0.00  0.00    +0.030 A 
ATOM     15  C   LIG    1       -0.132   3.590  -0.678  0.00  0.00    +0.420 A 
ATOM     16  O   LIG    1       -2.065   1.530   1.338  0.00  0.00    -0.550 OA
ATOM     17  N   LIG    1        1.027   2.936  -0.677  0.00  0.00    -0.570 NA
ENDBRANCH   4   7
BRANCH   1  22
ATOM     18  C   LIG    1        5.661  -2.275  -2.069  0.00  0.00    -0.040 C 
ATOM     19  C   LIG    1        7.134  -2.479  -2.524  0.00  0.00    +0.020 C 
ATOM     20  C   LIG    1        7.776  -1.150  -2.051  0.00  0.00    +0.200 C 
ATOM     21  O   LIG    1        6.767  -0.150  -2.265  0.00  0.00    -0.370 OA
ATOM     22  C   LIG    1        5.469  -0.755  -2.261  0.00  0.00    +0.200 C 
BRANCH  18  26
ATOM     23  N   LIG    1        4.726  -4.398  -2.927  0.00  0.00    -0.850 N 
ATOM     24  H   LIG    1        4.116  -4.897  -3.493  0.00  0.00    +0.400 HD
ATOM     25  H   LIG    1        5.344  -4.869  -2.346  0.00  0.00    +0.400 HD
ATOM     26  C   LIG    1        4.714  -3.050  -2.948  0.00  0.00    +0.530 C 
ATOM     27  O   LIG    1        3.942  -2.462  -3.675  0.00  0.00    -0.530 OA
ENDBRANCH  18  26
ENDBRANCH   1  22
TORSDOF 3
