REMARK  Name = ZINCnE000005t9rV.0
REMARK                            x       y       z     vdW  Elec       q    Type
REMARK                         _______ _______ _______ _____ _____    ______ ____
ROOT
ATOM      1  C   LIG    1       -4.193   2.461   2.353  0.00  0.00    +0.570 C 
ATOM      2  N   LIG    1       -4.896   2.234   1.226  0.00  0.00    -0.750 N 
ATOM      3  H   LIG    1       -4.444   1.921   0.427  0.00  0.00    +0.390 HD
ATOM      4  O   LIG    1       -4.760   2.854   3.355  0.00  0.00    -0.520 OA
ENDROOT
BRANCH   1  10
ATOM      5  C   LIG    1       -0.013   1.086   0.008  0.00  0.00    +0.070 C 
ATOM      6  C   LIG    1       -0.718   1.572   1.248  0.00  0.00    -0.240 A 
ATOM      7  C   LIG    1        0.005   1.805   2.406  0.00  0.00    +0.080 A 
ATOM      8  C   LIG    1       -0.630   2.251   3.549  0.00  0.00    -0.220 A 
ATOM      9  C   LIG    1       -2.001   2.469   3.542  0.00  0.00    +0.320 A 
ATOM     10  C   LIG    1       -2.735   2.233   2.372  0.00  0.00    -0.290 A 
ATOM     11  O   LIG    1       -2.626   2.906   4.664  0.00  0.00    -0.640 OA
ATOM     12 BR   LIG    1        0.369   2.565   5.123  0.00  0.00    -0.090 Br
ATOM     13  C   LIG    1       -2.079   1.788   1.223  0.00  0.00    +0.080 A 
ENDBRANCH   1  10
BRANCH   2  14
ATOM     14  C   LIG    1       -6.343   2.461   1.207  0.00  0.00    +0.260 C 
BRANCH  14  15
ATOM     15  C   LIG    1       -6.893   2.130  -0.182  0.00  0.00    -0.050 C 
ATOM     16  C   LIG    1       -6.728   0.630  -0.459  0.00  0.00    +0.250 C 
ATOM     17  O   LIG    1       -7.154   0.370  -1.798  0.00  0.00    -0.310 OA
ATOM     18  C   LIG    1       -8.355   0.869  -2.191  0.00  0.00    +0.130 A 
ATOM     19  C   LIG    1       -8.950   0.343  -3.332  0.00  0.00    -0.020 A 
ATOM     20  C   LIG    1      -10.168   0.826  -3.765  0.00  0.00    +0.040 A 
ATOM     21  C   LIG    1      -10.799   1.837  -3.064  0.00  0.00    -0.040 A 
ATOM     22  C   LIG    1      -10.211   2.360  -1.929  0.00  0.00    +0.040 A 
ATOM     23  C   LIG    1       -8.990   1.878  -1.488  0.00  0.00    -0.160 A 
ATOM     24  C   LIG    1       -8.384   2.469  -0.240  0.00  0.00    +0.100 C 
ENDBRANCH  14  15
ENDBRANCH   2  14
TORSDOF 3
