REMARK  Name = ZINCrg000000nDsP.0
REMARK                            x       y       z     vdW  Elec       q    Type
REMARK                         _______ _______ _______ _____ _____    ______ ____
ROOT
ATOM      1  N   LIG    1       -0.756  -4.731   1.271  0.00  0.00    -0.520 NA
ATOM      2  C   LIG    1       -2.061  -4.057   1.310  0.00  0.00    +0.170 C 
ATOM      3  C   LIG    1       -2.182  -3.114   0.109  0.00  0.00    +0.270 C 
ATOM      4  N   LIG    1       -1.018  -2.215   0.101  0.00  0.00    -0.610 N 
ATOM      5  C   LIG    1        0.323  -2.812   0.192  0.00  0.00    +0.300 C 
ATOM      6  C   LIG    1       -1.176  -0.880   0.008  0.00  0.00    +0.590 C 
ATOM      7  O   LIG    1       -0.202  -0.156  -0.070  0.00  0.00    -0.520 OA
ATOM      8  C   LIG    1        0.345  -3.767   1.396  0.00  0.00    +0.190 C 
ENDROOT
BRANCH   6   9
ATOM      9  C   LIG    1       -2.525  -0.299  -0.000  0.00  0.00    -0.050 A 
ATOM     10  C   LIG    1       -2.907   0.841   0.643  0.00  0.00    -0.030 A 
ATOM     11  C   LIG    1       -4.281   1.030   0.369  0.00  0.00    -0.210 A 
ATOM     12  C   LIG    1       -4.680  -0.018  -0.441  0.00  0.00    +0.110 A 
ATOM     13  C   LIG    1       -6.069  -0.232  -0.985  0.00  0.00    +0.160 C 
ATOM     14  C   LIG    1       -2.032   1.728   1.490  0.00  0.00    +0.130 C 
ATOM     15  N   LIG    1       -3.621  -0.813  -0.659  0.00  0.00    -0.520 N 
ATOM     16  H   LIG    1       -3.626  -1.621  -1.195  0.00  0.00    +0.420 HD
BRANCH  11  17
ATOM     17  C   LIG    1       -5.127   2.133   0.854  0.00  0.00    +0.550 C 
ATOM     18  O   LIG    1       -5.228   3.153   0.201  0.00  0.00    -0.490 OA
BRANCH  17  19
ATOM     19  O   LIG    1       -5.788   2.011   2.021  0.00  0.00    -0.350 OA
ATOM     20  C   LIG    1       -6.604   3.138   2.438  0.00  0.00    +0.250 C 
ENDBRANCH  17  19
ENDBRANCH  11  17
ENDBRANCH   6   9
BRANCH   1  21
ATOM     21  C   LIG    1       -0.667  -5.769   2.307  0.00  0.00    +0.220 C 
BRANCH  21  24
ATOM     22  N   LIG    1        0.861  -7.615   2.917  0.00  0.00    -0.730 N 
ATOM     23  H   LIG    1        0.272  -7.815   3.661  0.00  0.00    +0.400 HD
ATOM     24  C   LIG    1        0.571  -6.597   2.083  0.00  0.00    +0.510 C 
ATOM     25  O   LIG    1        1.308  -6.348   1.152  0.00  0.00    -0.520 OA
BRANCH  22  26
ATOM     26  C   LIG    1        2.065  -8.421   2.699  0.00  0.00    +0.260 C 
BRANCH  26  27
ATOM     27  C   LIG    1        2.157  -9.502   3.778  0.00  0.00    +0.010 C 
BRANCH  27  29
ATOM     28  C   LIG    1        3.507 -11.424   4.630  0.00  0.00    +0.010 C 
ATOM     29  C   LIG    1        3.415 -10.343   3.551  0.00  0.00    +0.020 C 
ENDBRANCH  27  29
ENDBRANCH  26  27
ENDBRANCH  22  26
ENDBRANCH  21  24
ENDBRANCH   1  21
TORSDOF 8
