REMARK  Name = ZINCvU00000007fC.0
REMARK                            x       y       z     vdW  Elec       q    Type
REMARK                         _______ _______ _______ _____ _____    ______ ____
ROOT
ATOM      1  C   LIG    1        0.408  -3.339  10.030  0.00  0.00    +0.070 C 
ATOM      2  C   LIG    1        0.367  -2.241   9.008  0.00  0.00    -0.120 C 
ATOM      3  C   LIG    1        0.595  -2.521   7.766  0.00  0.00    -0.040 C 
ATOM      4  C   LIG    1        0.639  -1.514   6.664  0.00  0.00    +0.040 C 
ATOM      5  C   LIG    1        0.128  -0.134   7.044  0.00  0.00    -0.030 C 
ATOM      6  C   LIG    1       -0.682  -0.116   8.336  0.00  0.00    +0.010 C 
ATOM      7  C   LIG    1       -2.059  -0.747   8.126  0.00  0.00    +0.030 C 
ATOM      8  C   LIG    1       -0.145  -2.043   5.457  0.00  0.00    +0.030 C 
ATOM      9  C   LIG    1        0.062  -0.840   9.457  0.00  0.00    +0.080 C 
ENDROOT
BRANCH   5  10
ATOM     10  C   LIG    1        1.322   0.826   7.179  0.00  0.00    +0.260 C 
BRANCH  10  11
ATOM     11  O   LIG    1        2.064   0.854   5.932  0.00  0.00    -0.370 OA
BRANCH  11  12
ATOM     12  C   LIG    1        3.148   1.651   5.883  0.00  0.00    +0.650 C 
ATOM     13  N   LIG    1        3.881   1.724   4.754  0.00  0.00    -0.710 N 
ATOM     14  H   LIG    1        3.627   1.201   3.977  0.00  0.00    +0.410 HD
ATOM     15  O   LIG    1        3.465   2.306   6.856  0.00  0.00    -0.570 OA
BRANCH  13  16
ATOM     16  C   LIG    1        5.060   2.591   4.700  0.00  0.00    +0.250 C 
ATOM     17  C   LIG    1        4.630   4.014   4.338  0.00  0.00    +0.010 C 
ATOM     18  C   LIG    1        5.862   4.920   4.282  0.00  0.00    +0.020 C 
ATOM     19  C   LIG    1        6.833   4.396   3.223  0.00  0.00    +0.010 C 
ATOM     20  C   LIG    1        7.263   2.973   3.586  0.00  0.00    +0.020 C 
ATOM     21  C   LIG    1        6.032   2.067   3.642  0.00  0.00    +0.010 C 
ENDBRANCH  13  16
ENDBRANCH  11  12
ENDBRANCH  10  11
ENDBRANCH   5  10
BRANCH   5  22
ATOM     22  C   LIG    1       -0.764   0.389   5.901  0.00  0.00    +0.250 C 
BRANCH  22  23
ATOM     23  O   LIG    1       -1.225   1.728   6.221  0.00  0.00    -0.370 OA
BRANCH  23  24
ATOM     24  C   LIG    1       -2.021   2.332   5.319  0.00  0.00    +0.650 C 
ATOM     25  N   LIG    1       -2.484   3.576   5.554  0.00  0.00    -0.710 N 
ATOM     26  H   LIG    1       -2.244   4.036   6.373  0.00  0.00    +0.410 HD
ATOM     27  O   LIG    1       -2.322   1.756   4.292  0.00  0.00    -0.570 OA
BRANCH  25  28
ATOM     28  C   LIG    1       -3.350   4.233   4.572  0.00  0.00    +0.250 C 
ATOM     29  C   LIG    1       -3.233   5.751   4.724  0.00  0.00    +0.010 C 
ATOM     30  C   LIG    1       -4.138   6.438   3.699  0.00  0.00    +0.020 C 
ATOM     31  C   LIG    1       -5.589   6.012   3.933  0.00  0.00    +0.010 C 
ATOM     32  C   LIG    1       -5.706   4.494   3.780  0.00  0.00    +0.020 C 
ATOM     33  C   LIG    1       -4.801   3.807   4.806  0.00  0.00    +0.010 C 
ENDBRANCH  25  28
ENDBRANCH  23  24
ENDBRANCH  22  23
ENDBRANCH   5  22
TORSDOF 8
