REMARK  Name = ZINCrg00000fSgAC.0
REMARK                            x       y       z     vdW  Elec       q    Type
REMARK                         _______ _______ _______ _____ _____    ______ ____
ROOT
ATOM      1  N   LIG    1       -3.677   1.669   0.028  0.00  0.00    -0.710 N 
ATOM      2  H   LIG    1       -3.686   2.639   0.034  0.00  0.00    +0.410 HD
ATOM      3  C   LIG    1       -2.503   1.007   0.019  0.00  0.00    +0.560 C 
ATOM      4  O   LIG    1       -2.491  -0.208   0.012  0.00  0.00    -0.520 OA
ENDROOT
BRANCH   3   5
ATOM      5  C   LIG    1       -1.230   1.759   0.017  0.00  0.00    -0.080 A 
ATOM      6  C   LIG    1       -0.013   1.076   0.008  0.00  0.00    +0.070 A 
ATOM      7  C   LIG    1        1.172   1.783   0.000  0.00  0.00    +0.120 A 
ATOM      8  C   LIG    1        1.155   3.167   0.009  0.00  0.00    -0.660 A 
ATOM      9  C   LIG    1       -0.048   3.850   0.023  0.00  0.00    +0.120 A 
ATOM     10  C   LIG    1       -1.240   3.154   0.030  0.00  0.00    +0.030 A 
BRANCH   8  11
ATOM     11  S   LIG    1        2.672   4.063  -0.001  0.00  0.00    +2.690 S 
ATOM     12  O   LIG    1        3.658   3.188   0.530  0.00  0.00    -0.950 OA
ATOM     13  O   LIG    1        2.387   5.340   0.554  0.00  0.00    -0.950 OA
BRANCH  11  14
ATOM     14  N   LIG    1        3.079   4.321  -1.585  0.00  0.00    -1.000 NA
ATOM     15  C   LIG    1        3.904   3.343  -2.298  0.00  0.00    +0.310 C 
ATOM     16  C   LIG    1        2.614   5.528  -2.273  0.00  0.00    +0.300 C 
ENDBRANCH  11  14
ENDBRANCH   8  11
ENDBRANCH   3   5
BRANCH   1  17
ATOM     17  C   LIG    1       -4.938   0.925   0.029  0.00  0.00    +0.290 C 
ATOM     18  C   LIG    1       -5.307   0.549   1.466  0.00  0.00    +0.080 C 
BRANCH  17  19
ATOM     19  C   LIG    1       -6.028   1.782  -0.561  0.00  0.00    +0.470 C 
ATOM     20  O   LIG    1       -5.777   2.900  -0.944  0.00  0.00    -0.500 OA
BRANCH  19  21
ATOM     21  O   LIG    1       -7.278   1.302  -0.662  0.00  0.00    -0.340 OA
BRANCH  21  22
ATOM     22  C   LIG    1       -8.277   2.183  -1.241  0.00  0.00    +0.360 C 
BRANCH  22  27
ATOM     23  C   LIG    1      -12.902   0.354  -0.162  0.00  0.00    +0.160 C 
ATOM     24  C   LIG    1      -11.592   0.686  -0.828  0.00  0.00    +0.010 A 
ATOM     25  N   LIG    1      -11.191   0.290  -2.002  0.00  0.00    -0.350 NA
ATOM     26  O   LIG    1      -10.095   0.725  -2.268  0.00  0.00    +0.110 OA
ATOM     27  C   LIG    1       -9.609   1.480  -1.272  0.00  0.00    -0.050 A 
ATOM     28  C   LIG    1      -10.555   1.490  -0.303  0.00  0.00    -0.010 A 
ENDBRANCH  22  27
ENDBRANCH  21  22
ENDBRANCH  19  21
ENDBRANCH  17  19
ENDBRANCH   1  17
TORSDOF 8
