REMARK  Name = ZINCrH000004qKd9.0
REMARK                            x       y       z     vdW  Elec       q    Type
REMARK                         _______ _______ _______ _____ _____    ______ ____
ROOT
ATOM      1  N   LIG    1        4.120   6.793  -1.902  0.00  0.00    -0.570 N 
ATOM      2  C   LIG    1        4.713   7.707  -0.934  0.00  0.00    +0.260 C 
ATOM      3  C   LIG    1        4.394   7.257   0.492  0.00  0.00    +0.050 C 
ATOM      4  C   LIG    1        4.756   5.774   0.632  0.00  0.00    +0.040 C 
ATOM      5  C   LIG    1        3.798   4.957  -0.238  0.00  0.00    +0.260 C 
ATOM      6  C   LIG    1        3.724   5.552  -1.615  0.00  0.00    +0.500 C 
ATOM      7  O   LIG    1        3.281   4.868  -2.513  0.00  0.00    -0.510 OA
ENDROOT
BRANCH   1  11
ATOM      8  C   LIG    1        1.332   8.996  -5.300  0.00  0.00    +0.100 C 
ATOM      9  C   LIG    1        2.613   8.317  -4.890  0.00  0.00    -0.050 A 
ATOM     10  C   LIG    1        2.772   7.867  -3.595  0.00  0.00    +0.030 A 
ATOM     11  C   LIG    1        3.955   7.246  -3.216  0.00  0.00    +0.160 A 
ATOM     12  C   LIG    1        4.971   7.070  -4.146  0.00  0.00    +0.020 A 
ATOM     13  C   LIG    1        4.806   7.517  -5.442  0.00  0.00    +0.060 A 
ATOM     14  C   LIG    1        3.628   8.140  -5.814  0.00  0.00    -0.090 A 
ATOM     15 BR   LIG    1        3.405   8.752  -7.590  0.00  0.00    -0.040 Br
ENDBRANCH   1  11
BRANCH   5  16
ATOM     16  N   LIG    1        4.281   3.577  -0.330  0.00  0.00    -0.700 N 
ATOM     17  H   LIG    1        5.223   3.383  -0.206  0.00  0.00    +0.410 HD
ATOM     18  C   LIG    1        3.415   2.576  -0.586  0.00  0.00    +0.600 C 
ATOM     19  O   LIG    1        2.233   2.818  -0.740  0.00  0.00    -0.510 OA
BRANCH  18  20
ATOM     20  C   LIG    1        3.900   1.189  -0.678  0.00  0.00    +0.060 A 
ATOM     21  C   LIG    1        3.077   0.149  -0.932  0.00  0.00    -0.020 A 
ATOM     22  S   LIG    1        4.043  -1.324  -0.961  0.00  0.00    +0.090 S 
ATOM     23  C   LIG    1        5.494  -0.386  -0.622  0.00  0.00    +0.350 A 
ATOM     24  N   LIG    1        5.187   0.867  -0.517  0.00  0.00    -0.530 NA
BRANCH  23  25
ATOM     25  N   LIG    1        6.769  -0.909  -0.487  0.00  0.00    -0.660 N 
ATOM     26  H   LIG    1        7.517  -0.321  -0.300  0.00  0.00    +0.420 HD
BRANCH  25  27
ATOM     27  C   LIG    1        6.988  -2.351  -0.628  0.00  0.00    +0.210 C 
ATOM     28  C   LIG    1        7.911  -3.027   0.387  0.00  0.00    +0.020 C 
ATOM     29  C   LIG    1        8.383  -2.815  -1.053  0.00  0.00    +0.030 C 
ENDBRANCH  25  27
ENDBRANCH  23  25
ENDBRANCH  18  20
ENDBRANCH   5  16
TORSDOF 5
