REMARK  Name = ZINCrH000004mxkJ.0
REMARK                            x       y       z     vdW  Elec       q    Type
REMARK                         _______ _______ _______ _____ _____    ______ ____
ROOT
ATOM      1  C   LIG    1        3.838  -5.559  -0.270  0.00  0.00    -0.040 C 
ATOM      2  C   LIG    1        4.194  -5.232  -1.731  0.00  0.00    +0.040 C 
ATOM      3  C   LIG    1        3.779  -6.458  -2.571  0.00  0.00    +0.020 C 
ATOM      4  C   LIG    1        2.689  -7.152  -1.717  0.00  0.00    +0.020 C 
ATOM      5  C   LIG    1        3.219  -6.972  -0.273  0.00  0.00    +0.050 C 
ENDROOT
BRANCH   1   9
ATOM      6  C   LIG    1        7.362  -5.504   2.151  0.00  0.00    +0.100 A 
ATOM      7  C   LIG    1        6.255  -4.757   2.517  0.00  0.00    -0.030 A 
ATOM      8  C   LIG    1        5.117  -4.777   1.733  0.00  0.00    +0.010 A 
ATOM      9  C   LIG    1        5.081  -5.541   0.582  0.00  0.00    -0.070 A 
ATOM     10  C   LIG    1        6.181  -6.293   0.213  0.00  0.00    -0.020 A 
ATOM     11  C   LIG    1        7.326  -6.274   0.992  0.00  0.00    +0.100 A 
BRANCH   6  13
ATOM     12  C   LIG    1        8.449  -4.672   4.096  0.00  0.00    +0.250 C 
ATOM     13  O   LIG    1        8.483  -5.485   2.921  0.00  0.00    -0.310 OA
ENDBRANCH   6  13
BRANCH  11  14
ATOM     14  O   LIG    1        8.410  -7.009   0.627  0.00  0.00    -0.300 OA
ATOM     15  C   LIG    1        8.301  -7.775  -0.574  0.00  0.00    +0.240 C 
ENDBRANCH  11  14
ENDBRANCH   1   9
BRANCH   1  16
ATOM     16  C   LIG    1        2.839  -4.559   0.254  0.00  0.00    +0.530 C 
ATOM     17  N   LIG    1        3.125  -3.242   0.225  0.00  0.00    -0.730 N 
ATOM     18  H   LIG    1        4.001  -2.943  -0.064  0.00  0.00    +0.400 HD
ATOM     19  O   LIG    1        1.778  -4.940   0.701  0.00  0.00    -0.530 OA
BRANCH  17  20
ATOM     20  C   LIG    1        2.112  -2.264   0.630  0.00  0.00    +0.240 C 
ATOM     21  C   LIG    1        2.149  -2.088   2.151  0.00  0.00    -0.020 C 
ATOM     22  C   LIG    1        1.117  -1.038   2.567  0.00  0.00    +0.220 C 
ATOM     23  O   LIG    1        1.415   0.204   1.922  0.00  0.00    -0.350 OA
ATOM     24  C   LIG    1        1.424   0.126   0.498  0.00  0.00    +0.100 C 
ATOM     25  C   LIG    1        0.024   0.015  -0.119  0.00  0.00    -0.010 C 
ATOM     26  C   LIG    1        0.008   1.553  -0.158  0.00  0.00    +0.010 C 
ATOM     27  C   LIG    1        1.545   1.491  -0.191  0.00  0.00    +0.050 C 
ATOM     28  C   LIG    1        2.408  -0.915  -0.035  0.00  0.00    +0.020 C 
ENDBRANCH  17  20
ENDBRANCH   1  16
TORSDOF 5
