REMARK  Name = ZINCkj000005lpos.0
REMARK                            x       y       z     vdW  Elec       q    Type
REMARK                         _______ _______ _______ _____ _____    ______ ____
ROOT
ATOM      1  C   LIG    1        4.029   6.055   4.535  0.00  0.00    +0.500 C 
ATOM      2  N   LIG    1        3.777   5.197   3.526  0.00  0.00    -0.580 N 
ATOM      3  C   LIG    1        4.520   5.290   2.262  0.00  0.00    +0.290 C 
ATOM      4  C   LIG    1        3.518   5.383   1.107  0.00  0.00    +0.030 C 
ATOM      5  C   LIG    1        2.549   4.201   1.182  0.00  0.00    +0.010 C 
ATOM      6  C   LIG    1        1.773   4.257   2.500  0.00  0.00    +0.030 C 
ATOM      7  C   LIG    1        2.756   4.151   3.670  0.00  0.00    +0.260 C 
ATOM      8  O   LIG    1        4.875   6.913   4.404  0.00  0.00    -0.530 OA
ENDROOT
BRANCH   1   9
ATOM      9  C   LIG    1        3.259   5.947   5.826  0.00  0.00    +0.170 C 
BRANCH   9  10
ATOM     10  N   LIG    1        4.001   6.625   6.897  0.00  0.00    -0.620 N 
ATOM     11  H   LIG    1        4.904   6.191   7.008  0.00  0.00    +0.440 HD
ATOM     12  H   LIG    1        3.485   6.553   7.761  0.00  0.00    +0.440 HD
ATOM     13  H   LIG    1        4.122   7.598   6.658  0.00  0.00    +0.440 HD
ENDBRANCH   9  10
BRANCH   9  14
ATOM     14  C   LIG    1        1.888   6.606   5.659  0.00  0.00    +0.110 C 
BRANCH  14  15
ATOM     15  C   LIG    1        1.059   6.387   6.926  0.00  0.00    -0.090 C 
ATOM     16  C   LIG    1       -0.221   5.559   6.799  0.00  0.00    +0.040 C 
ATOM     17  C   LIG    1       -0.306   7.073   7.003  0.00  0.00    +0.050 C 
ENDBRANCH  14  15
ENDBRANCH   9  14
ENDBRANCH   1   9
BRANCH   5  18
ATOM     18  C   LIG    1        1.568   4.272   0.010  0.00  0.00    +0.130 C 
BRANCH  18  19
ATOM     19  C   LIG    1        0.693   3.045   0.012  0.00  0.00    +0.080 A 
ATOM     20  N   LIG    1        1.110   1.805   0.001  0.00  0.00    -0.290 NA
ATOM     21  N   LIG    1       -0.011   0.966   0.007  0.00  0.00    -0.480 N 
ATOM     22  H   LIG    1        0.002  -0.004   0.002  0.00  0.00    +0.440 HD
ATOM     23  C   LIG    1       -1.113   1.745   0.016  0.00  0.00    +0.240 A 
ATOM     24  C   LIG    1       -0.706   3.035   0.025  0.00  0.00    -0.120 A 
ENDBRANCH  18  19
ENDBRANCH   5  18
TORSDOF 6
