REMARK  Name = ZINCpe00000c65y6.0
REMARK                            x       y       z     vdW  Elec       q    Type
REMARK                         _______ _______ _______ _____ _____    ______ ____
ROOT
ATOM      1  N   LIG    1       -6.587   2.936   2.721  0.00  0.00    -0.520 N 
ATOM      2  C   LIG    1       -6.242   2.952   4.137  0.00  0.00    +0.260 C 
ATOM      3  C   LIG    1       -5.097   3.932   4.397  0.00  0.00    +0.040 C 
ATOM      4  C   LIG    1       -3.961   3.628   3.413  0.00  0.00    +0.000 C 
ATOM      5  C   LIG    1       -4.435   3.982   2.002  0.00  0.00    +0.200 C 
ATOM      6  C   LIG    1       -5.784   3.372   1.750  0.00  0.00    +0.520 C 
ATOM      7  O   LIG    1       -6.163   3.271   0.602  0.00  0.00    -0.510 OA
ENDROOT
BRANCH   5   8
ATOM      8  N   LIG    1       -3.474   3.462   1.020  0.00  0.00    -0.510 NA
ATOM      9  C   LIG    1       -2.172   4.130   1.153  0.00  0.00    +0.170 C 
ATOM     10  C   LIG    1       -1.258   3.694   0.002  0.00  0.00    +0.300 C 
ATOM     11  N   LIG    1       -1.204   2.225  -0.021  0.00  0.00    -0.610 N 
ATOM     12  C   LIG    1       -2.473   1.481  -0.022  0.00  0.00    +0.290 C 
ATOM     13  C   LIG    1       -0.022   1.577  -0.045  0.00  0.00    +0.530 C 
ATOM     14  O   LIG    1        1.014   2.206  -0.054  0.00  0.00    -0.540 OA
ATOM     15  C   LIG    1       -3.339   2.004   1.135  0.00  0.00    +0.170 C 
BRANCH  13  16
ATOM     16  C   LIG    1        0.010   0.070  -0.068  0.00  0.00    -0.030 C 
ATOM     17  C   LIG    1       -0.136  -0.571   1.322  0.00  0.00    +0.030 C 
ATOM     18  C   LIG    1        0.929  -1.588   0.879  0.00  0.00    +0.010 C 
ATOM     19  C   LIG    1        1.432  -0.515  -0.102  0.00  0.00    +0.040 C 
ENDBRANCH  13  16
ENDBRANCH   5   8
BRANCH   1  23
ATOM     20  C   LIG    1      -11.159   1.113   2.966  0.00  0.00    +0.370 C 
ATOM     21  N   LIG    1       -9.881   1.617   2.456  0.00  0.00    -0.380 N 
ATOM     22  C   LIG    1       -8.832   2.041   3.207  0.00  0.00    +0.190 A 
ATOM     23  C   LIG    1       -7.848   2.428   2.355  0.00  0.00    -0.010 A 
ATOM     24  C   LIG    1       -8.309   2.225   1.046  0.00  0.00    +0.270 A 
ATOM     25  N   LIG    1       -9.523   1.741   1.107  0.00  0.00    -0.290 NA
ENDBRANCH   1  23
TORSDOF 3
