REMARK  Name = ZINCpk00001AZiI4.0
REMARK                            x       y       z     vdW  Elec       q    Type
REMARK                         _______ _______ _______ _____ _____    ______ ____
ROOT
ATOM      1  N   LIG    1        1.750   5.053  -1.181  0.00  0.00    -0.650 N 
ENDROOT
BRANCH   1   2
ATOM      2  C   LIG    1        2.774   4.593  -1.968  0.00  0.00    +0.460 A 
ATOM      3  C   LIG    1        4.029   5.124  -1.847  0.00  0.00    -0.140 A 
ATOM      4  C   LIG    1        5.058   4.633  -2.666  0.00  0.00    +0.550 A 
ATOM      5  N   LIG    1        4.794   3.652  -3.552  0.00  0.00    -0.560 N 
ATOM      6  C   LIG    1        3.554   3.141  -3.657  0.00  0.00    +0.700 A 
ATOM      7  O   LIG    1        3.337   2.257  -4.463  0.00  0.00    -0.540 OA
ATOM      8  C   LIG    1        5.866   3.138  -4.408  0.00  0.00    +0.340 C 
ATOM      9  O   LIG    1        6.184   5.091  -2.577  0.00  0.00    -0.520 OA
ATOM     10  N   LIG    1        2.551   3.591  -2.880  0.00  0.00    -0.540 N 
ATOM     11  C   LIG    1        1.211   3.012  -3.013  0.00  0.00    +0.330 C 
ENDBRANCH   1   2
BRANCH   1  12
ATOM     12  C   LIG    1        1.684   4.672   0.233  0.00  0.00    +0.410 C 
BRANCH  12  17
ATOM     13  C   LIG    1       -0.030  -0.026   0.655  0.00  0.00    +0.330 C 
ATOM     14  N   LIG    1        0.038   1.435   0.572  0.00  0.00    -0.460 N 
ATOM     15  C   LIG    1       -1.006   2.290   0.631  0.00  0.00    +0.390 A 
ATOM     16  N   LIG    1       -0.553   3.510   0.527  0.00  0.00    -0.480 NA
ATOM     17  C   LIG    1        0.780   3.477   0.389  0.00  0.00    -0.030 A 
ATOM     18  C   LIG    1        1.170   2.188   0.415  0.00  0.00    +0.130 A 
ENDBRANCH  12  17
ENDBRANCH   1  12
BRANCH   1  19
ATOM     19  C   LIG    1        0.722   5.926  -1.753  0.00  0.00    +0.290 C 
BRANCH  19  20
ATOM     20  C   LIG    1        1.151   7.386  -1.603  0.00  0.00    +0.020 C 
BRANCH  20  21
ATOM     21  C   LIG    1        0.077   8.297  -2.201  0.00  0.00    -0.080 C 
ATOM     22  C   LIG    1        0.183   8.456  -3.727  0.00  0.00    +0.010 C 
ATOM     23  C   LIG    1       -0.165   9.939  -3.518  0.00  0.00    +0.010 C 
ATOM     24  C   LIG    1       -1.332   7.953  -1.714  0.00  0.00    +0.050 C 
ATOM     25  C   LIG    1        0.414   9.795  -2.101  0.00  0.00    +0.020 C 
ENDBRANCH  20  21
ENDBRANCH  19  20
ENDBRANCH   1  19
TORSDOF 6
