REMARK  Name = ZINCqH0000007B6o.0
REMARK                            x       y       z     vdW  Elec       q    Type
REMARK                         _______ _______ _______ _____ _____    ______ ____
ROOT
ATOM      1  C   LIG    1        1.879  -1.976   0.095  0.00  0.00    +0.600 C 
ATOM      2  N   LIG    1        1.861  -2.644   1.265  0.00  0.00    -0.600 N 
ATOM      3  O   LIG    1        2.019  -2.583  -0.950  0.00  0.00    -0.510 OA
ENDROOT
BRANCH   1  10
ATOM      4  C   LIG    1        4.893   1.596   0.609  0.00  0.00    +0.120 A 
ATOM      5  C   LIG    1        4.256   2.829   0.515  0.00  0.00    -0.040 A 
ATOM      6  C   LIG    1        2.898   2.902   0.294  0.00  0.00    +0.080 A 
ATOM      7  C   LIG    1        2.150   1.738   0.165  0.00  0.00    +0.020 A 
ATOM      8  O   LIG    1        0.838   1.504  -0.049  0.00  0.00    -0.180 OA
ATOM      9  C   LIG    1        0.579   0.193  -0.101  0.00  0.00    +0.100 A 
ATOM     10  C   LIG    1        1.728  -0.513   0.081  0.00  0.00    -0.240 A 
ATOM     11  C   LIG    1       -0.783  -0.413  -0.325  0.00  0.00    +0.190 C 
ATOM     12  C   LIG    1        2.793   0.494   0.260  0.00  0.00    -0.060 A 
ATOM     13  C   LIG    1        4.164   0.427   0.481  0.00  0.00    +0.020 A 
BRANCH   4  15
ATOM     14  C   LIG    1        6.925   2.785   0.947  0.00  0.00    +0.240 C 
ATOM     15  O   LIG    1        6.234   1.540   0.825  0.00  0.00    -0.310 OA
ENDBRANCH   4  15
ENDBRANCH   1  10
BRANCH   2  16
ATOM     16  C   LIG    1        2.128  -4.084   1.291  0.00  0.00    +0.360 C 
BRANCH  16  17
ATOM     17  C   LIG    1        3.606  -4.319   1.468  0.00  0.00    -0.170 A 
ATOM     18  C   LIG    1        4.437  -4.428   0.364  0.00  0.00    +0.090 A 
ATOM     19  C   LIG    1        5.791  -4.638   0.576  0.00  0.00    -0.030 A 
ATOM     20  C   LIG    1        6.262  -4.742   1.870  0.00  0.00    +0.260 A 
ATOM     21  N   LIG    1        5.441  -4.638   2.897  0.00  0.00    -0.490 NA
ATOM     22  C   LIG    1        4.149  -4.433   2.734  0.00  0.00    +0.260 A 
ENDBRANCH  16  17
ENDBRANCH   2  16
BRANCH   2  23
ATOM     23  C   LIG    1        1.576  -1.929   2.512  0.00  0.00    +0.290 C 
BRANCH  23  24
ATOM     24  C   LIG    1        0.090  -2.066   2.850  0.00  0.00    +0.180 C 
BRANCH  24  25
ATOM     25  C   LIG    1       -0.213  -1.282   4.059  0.00  0.00    +0.200 C 
ATOM     26  N   LIG    1       -0.446  -0.677   4.991  0.00  0.00    -0.420 NA
ENDBRANCH  24  25
ENDBRANCH  23  24
ENDBRANCH   2  23
TORSDOF 7
