REMARK  Name = ZINCrH000004vC4B.0
REMARK                            x       y       z     vdW  Elec       q    Type
REMARK                         _______ _______ _______ _____ _____    ______ ____
ROOT
ATOM      1  O   LIG    1        1.133   3.992   0.797  0.00  0.00    -0.530 OA
ATOM      2  C   LIG    1        1.894   3.102   0.471  0.00  0.00    +0.580 C 
ATOM      3  N   LIG    1        1.406   1.904   0.093  0.00  0.00    -0.610 N 
ATOM      4  C   LIG    1        2.201   0.780  -0.424  0.00  0.00    +0.250 C 
ATOM      5  C   LIG    1        1.225  -0.384  -0.698  0.00  0.00    +0.050 C 
ATOM      6  C   LIG    1        0.014  -0.043   0.211  0.00  0.00    +0.050 C 
ATOM      7  C   LIG    1       -0.012   1.504   0.128  0.00  0.00    +0.280 C 
ENDROOT
BRANCH   6   8
ATOM      8  C   LIG    1       -1.258  -0.635  -0.338  0.00  0.00    -0.150 A 
ATOM      9  C   LIG    1       -1.637  -0.372  -1.643  0.00  0.00    +0.130 A 
ATOM     10  C   LIG    1       -2.804  -0.920  -2.148  0.00  0.00    -0.010 A 
ATOM     11  C   LIG    1       -3.594  -1.723  -1.348  0.00  0.00    +0.090 A 
ATOM     12  C   LIG    1       -3.219  -1.983  -0.043  0.00  0.00    -0.010 A 
ATOM     13  F   LIG    1       -0.868   0.417  -2.425  0.00  0.00    -0.120 F 
ATOM     14  C   LIG    1       -2.050  -1.439   0.463  0.00  0.00    +0.140 A 
ATOM     15  F   LIG    1       -1.683  -1.693   1.738  0.00  0.00    -0.130 F 
ENDBRANCH   6   8
BRANCH   2  16
ATOM     16  C   LIG    1        3.354   3.333   0.490  0.00  0.00    -0.110 A 
ATOM     17  C   LIG    1        3.870   4.508   1.039  0.00  0.00    +0.060 A 
ATOM     18  C   LIG    1        5.234   4.722   1.055  0.00  0.00    +0.040 A 
ATOM     19  C   LIG    1        6.092   3.775   0.529  0.00  0.00    +0.030 A 
ATOM     20  C   LIG    1        5.589   2.602  -0.019  0.00  0.00    +0.160 A 
ATOM     21  C   LIG    1        4.221   2.375  -0.035  0.00  0.00    +0.000 A 
BRANCH  20  22
ATOM     22  N   LIG    1        6.463   1.646  -0.550  0.00  0.00    -0.560 N 
ATOM     23  C   LIG    1        6.033   0.430  -1.250  0.00  0.00    +0.260 C 
ATOM     24  C   LIG    1        7.282  -0.064  -2.018  0.00  0.00    +0.060 C 
ATOM     25  C   LIG    1        8.428   0.527  -1.165  0.00  0.00    +0.070 C 
ATOM     26  C   LIG    1        7.803   1.722  -0.480  0.00  0.00    +0.520 C 
ATOM     27  O   LIG    1        8.421   2.618   0.055  0.00  0.00    -0.510 OA
ENDBRANCH  20  22
ENDBRANCH   2  16
TORSDOF 3
