REMARK  Name = ZINCpk00000KfKHq.0
REMARK                            x       y       z     vdW  Elec       q    Type
REMARK                         _______ _______ _______ _____ _____    ______ ____
ROOT
ATOM      1  C   LIG    1        2.510   1.446  -0.013  0.00  0.00    +0.300 C 
ATOM      2  C   LIG    1        3.109   1.562   1.405  0.00  0.00    +0.050 C 
ATOM      3  C   LIG    1        4.551   2.067   1.133  0.00  0.00    +0.040 C 
ATOM      4  C   LIG    1        4.329   2.999  -0.084  0.00  0.00    +0.250 C 
ATOM      5  N   LIG    1        3.294   2.327  -0.891  0.00  0.00    -0.610 N 
ATOM      6  C   LIG    1        3.099   2.493  -2.214  0.00  0.00    +0.510 C 
ATOM      7  O   LIG    1        2.213   1.885  -2.777  0.00  0.00    -0.510 OA
ENDROOT
BRANCH   1  11
ATOM      8  C   LIG    1       -2.502   1.389   0.021  0.00  0.00    +0.360 C 
ATOM      9  N   LIG    1       -1.113   1.857   0.017  0.00  0.00    -0.370 N 
ATOM     10  C   LIG    1       -0.013   1.076   0.008  0.00  0.00    +0.240 A 
ATOM     11  C   LIG    1        1.069   1.888   0.002  0.00  0.00    -0.240 A 
ATOM     12  C   LIG    1        0.614   3.211   0.013  0.00  0.00    +0.230 A 
ATOM     13  N   LIG    1       -0.694   3.193   0.025  0.00  0.00    -0.290 NA
ENDBRANCH   1  11
BRANCH   6  14
ATOM     14  C   LIG    1        3.982   3.432  -2.994  0.00  0.00    +0.360 C 
BRANCH  14  15
ATOM     15  N   LIG    1        3.571   3.436  -4.400  0.00  0.00    -0.330 N 
ATOM     16  N   LIG    1        4.112   2.597  -5.204  0.00  0.00    -0.180 NA
ATOM     17  C   LIG    1        3.828   2.499  -6.470  0.00  0.00    +0.160 A 
ATOM     18  C   LIG    1        2.865   3.364  -7.058  0.00  0.00    +0.390 A 
ATOM     19  C   LIG    1        2.226   4.344  -6.162  0.00  0.00    -0.200 A 
ATOM     20  C   LIG    1        1.267   5.249  -6.610  0.00  0.00    +0.120 A 
ATOM     21  C   LIG    1        0.713   6.134  -5.727  0.00  0.00    -0.020 A 
ATOM     22  C   LIG    1        1.098   6.136  -4.393  0.00  0.00    +0.090 A 
ATOM     23  C   LIG    1        2.045   5.249  -3.930  0.00  0.00    -0.030 A 
ATOM     24  O   LIG    1        2.582   3.298  -8.242  0.00  0.00    -0.470 OA
ATOM     25  C   LIG    1        2.623   4.339  -4.810  0.00  0.00    +0.160 A 
ENDBRANCH  14  15
ENDBRANCH   6  14
TORSDOF 3
