REMARK  Name = ZINCrH000004jI2v.0
REMARK                            x       y       z     vdW  Elec       q    Type
REMARK                         _______ _______ _______ _____ _____    ______ ____
ROOT
ATOM      1  C   LIG    1       -1.580  -0.774  -1.331  0.00  0.00    +0.520 C 
ATOM      2  N   LIG    1       -2.099   0.274  -2.001  0.00  0.00    -0.730 N 
ATOM      3  H   LIG    1       -2.322   1.090  -1.527  0.00  0.00    +0.400 HD
ATOM      4  O   LIG    1       -1.301  -1.795  -1.923  0.00  0.00    -0.500 OA
ENDROOT
BRANCH   1   5
ATOM      5  C   LIG    1       -1.345  -0.676   0.155  0.00  0.00    +0.180 C 
BRANCH   5   6
ATOM      6  C   LIG    1        0.011  -0.070   0.410  0.00  0.00    -0.080 A 
ATOM      7  C   LIG    1        0.111   1.231   0.867  0.00  0.00    +0.020 A 
ATOM      8  C   LIG    1        1.355   1.788   1.101  0.00  0.00    +0.030 A 
ATOM      9  C   LIG    1        2.498   1.045   0.879  0.00  0.00    +0.040 A 
ATOM     10  C   LIG    1        2.398  -0.257   0.422  0.00  0.00    -0.040 A 
ATOM     11 CL   LIG    1        3.834  -1.192   0.143  0.00  0.00    -0.060 Cl
ATOM     12  C   LIG    1        1.154  -0.814   0.188  0.00  0.00    +0.080 A 
ENDBRANCH   5   6
BRANCH   5  14
ATOM     13  C   LIG    1       -1.107  -1.970   2.187  0.00  0.00    +0.200 C 
ATOM     14  N   LIG    1       -1.401  -2.018   0.749  0.00  0.00    -0.520 NA
ATOM     15  C   LIG    1       -2.703  -2.651   0.498  0.00  0.00    +0.210 C 
ENDBRANCH   5  14
ENDBRANCH   1   5
BRANCH   2  16
ATOM     16  C   LIG    1       -2.327   0.179  -3.445  0.00  0.00    +0.270 C 
BRANCH  16  17
ATOM     17  C   LIG    1       -2.919   1.494  -3.955  0.00  0.00    +0.260 C 
BRANCH  17  18
ATOM     18  N   LIG    1       -3.147   1.399  -5.399  0.00  0.00    -0.720 N 
ATOM     19  H   LIG    1       -2.925   0.582  -5.873  0.00  0.00    +0.410 HD
BRANCH  18  20
ATOM     20  C   LIG    1       -3.682   2.477  -6.089  0.00  0.00    +0.430 A 
ATOM     21  N   LIG    1       -3.876   2.377  -7.388  0.00  0.00    -0.550 NA
ATOM     22  C   LIG    1       -4.395   3.389  -8.092  0.00  0.00    +0.180 A 
ATOM     23  C   LIG    1       -4.604   3.274  -9.477  0.00  0.00    +0.020 A 
ATOM     24  C   LIG    1       -5.128   4.323 -10.171  0.00  0.00    +0.040 A 
ATOM     25  C   LIG    1       -5.462   5.513  -9.529  0.00  0.00    -0.010 A 
ATOM     26  C   LIG    1       -5.272   5.660  -8.188  0.00  0.00    +0.050 A 
ATOM     27  C   LIG    1       -4.735   4.601  -7.442  0.00  0.00    -0.150 A 
ATOM     28  C   LIG    1       -4.524   4.716  -6.053  0.00  0.00    +0.120 A 
ATOM     29  C   LIG    1       -3.998   3.650  -5.388  0.00  0.00    -0.090 A 
ENDBRANCH  18  20
ENDBRANCH  17  18
ENDBRANCH  16  17
ENDBRANCH   2  16
TORSDOF 7
