REMARK  Name = ZINCrD00000lc5Zs.0
REMARK                            x       y       z     vdW  Elec       q    Type
REMARK                         _______ _______ _______ _____ _____    ______ ____
ROOT
ATOM      1  C   LIG    1       -1.236   1.811  -0.289  0.00  0.00    -0.130 A 
ATOM      2  C   LIG    1       -0.036   1.093  -0.273  0.00  0.00    +0.090 A 
ATOM      3  C   LIG    1        1.146   1.737   0.021  0.00  0.00    +0.010 A 
ATOM      4  C   LIG    1        1.152   3.093   0.307  0.00  0.00    +0.060 A 
ATOM      5  C   LIG    1       -0.024   3.815   0.301  0.00  0.00    +0.000 A 
ATOM      6  C   LIG    1       -1.226   3.184   0.007  0.00  0.00    +0.210 A 
ENDROOT
BRANCH   1   7
ATOM      7  C   LIG    1       -2.502   1.130  -0.608  0.00  0.00    +0.510 C 
ATOM      8  O   LIG    1       -3.533   1.769  -0.684  0.00  0.00    -0.480 OA
BRANCH   7   9
ATOM      9  O   LIG    1       -2.518  -0.202  -0.817  0.00  0.00    -0.330 OA
BRANCH   9  10
ATOM     10  C   LIG    1       -3.801  -0.805  -1.127  0.00  0.00    +0.250 C 
BRANCH  10  13
ATOM     11  N   LIG    1       -4.687  -3.060  -1.625  0.00  0.00    -0.720 N 
ATOM     12  H   LIG    1       -5.567  -2.661  -1.712  0.00  0.00    +0.410 HD
ATOM     13  C   LIG    1       -3.624  -2.288  -1.326  0.00  0.00    +0.520 C 
ATOM     14  O   LIG    1       -2.524  -2.788  -1.217  0.00  0.00    -0.520 OA
BRANCH  11  15
ATOM     15  C   LIG    1       -4.515  -4.502  -1.819  0.00  0.00    +0.250 C 
ATOM     16  C   LIG    1       -4.569  -5.209  -0.463  0.00  0.00    +0.040 C 
BRANCH  15  17
ATOM     17  C   LIG    1       -5.635  -5.034  -2.716  0.00  0.00    +0.180 C 
BRANCH  17  19
ATOM     18  C   LIG    1       -8.008  -5.359  -2.803  0.00  0.00    +0.200 C 
ATOM     19  O   LIG    1       -6.889  -4.890  -2.047  0.00  0.00    -0.390 OA
ENDBRANCH  17  19
ENDBRANCH  15  17
ENDBRANCH  11  15
ENDBRANCH  10  13
ENDBRANCH   9  10
ENDBRANCH   7   9
ENDBRANCH   1   7
BRANCH   6  20
ATOM     20  N   LIG    1       -2.411   3.908  -0.000  0.00  0.00    -0.690 N 
ATOM     21  H   LIG    1       -2.637   4.462  -0.764  0.00  0.00    +0.410 HD
BRANCH  20  22
ATOM     22  C   LIG    1       -3.279   3.838   1.093  0.00  0.00    +0.240 A 
ATOM     23  C   LIG    1       -2.909   3.135   2.232  0.00  0.00    -0.080 A 
ATOM     24  C   LIG    1       -3.769   3.068   3.311  0.00  0.00    +0.040 A 
ATOM     25  C   LIG    1       -4.997   3.700   3.257  0.00  0.00    -0.050 A 
ATOM     26  C   LIG    1       -5.369   4.402   2.125  0.00  0.00    -0.040 A 
ATOM     27  C   LIG    1       -6.709   5.089   2.071  0.00  0.00    +0.090 C 
ATOM     28  C   LIG    1       -4.512   4.477   1.045  0.00  0.00    -0.150 A 
ATOM     29  C   LIG    1       -4.915   5.247  -0.186  0.00  0.00    +0.090 C 
ENDBRANCH  20  22
ENDBRANCH   6  20
TORSDOF 9
