REMARK  Name = ZINCc70000003XBM.0
REMARK                            x       y       z     vdW  Elec       q    Type
REMARK                         _______ _______ _______ _____ _____    ______ ____
ROOT
ATOM      1  C   LIG    1       -0.055   1.282  -0.237  0.00  0.00    -0.310 A 
ATOM      2  C   LIG    1        1.113   2.057  -0.237  0.00  0.00    +0.440 A 
ATOM      3  N   LIG    1        2.272   1.468  -0.012  0.00  0.00    -0.580 NA
ATOM      4  C   LIG    1        2.340   0.162   0.214  0.00  0.00    +0.590 A 
ATOM      5  N   LIG    1        1.257  -0.606   0.223  0.00  0.00    -0.580 NA
ATOM      6  C   LIG    1        0.061  -0.093   0.005  0.00  0.00    +0.290 A 
ATOM      7  C   LIG    1       -1.162  -0.974   0.018  0.00  0.00    +0.160 C 
ENDROOT
BRANCH   4   8
ATOM      8  N   LIG    1        3.571  -0.413   0.446  0.00  0.00    -0.800 N 
ATOM      9  H   LIG    1        4.371   0.135   0.443  0.00  0.00    +0.420 HD
ATOM     10  H   LIG    1        3.637  -1.367   0.613  0.00  0.00    +0.420 HD
ENDBRANCH   4   8
BRANCH   1  11
ATOM     11  C   LIG    1       -1.371   1.897  -0.491  0.00  0.00    +0.530 C 
ATOM     12  O   LIG    1       -2.358   1.197  -0.598  0.00  0.00    -0.500 OA
BRANCH  11  14
ATOM     13  C   LIG    1       -2.805   3.771  -0.856  0.00  0.00    +0.280 C 
ATOM     14  O   LIG    1       -1.478   3.235  -0.606  0.00  0.00    -0.360 OA
ENDBRANCH  11  14
ENDBRANCH   1  11
TORSDOF 3
