REMARK  Name = ZINCqH000000645I.0
REMARK                            x       y       z     vdW  Elec       q    Type
REMARK                         _______ _______ _______ _____ _____    ______ ____
ROOT
ATOM      1  C   LIG    1       -0.656  -4.517  -0.015  0.00  0.00    -0.330 A 
ATOM      2  C   LIG    1       -1.976  -4.237  -0.001  0.00  0.00    +0.050 A 
ATOM      3  C   LIG    1       -2.259  -2.877   0.014  0.00  0.00    -0.210 A 
ATOM      4  C   LIG    1       -1.137  -2.075   0.002  0.00  0.00    +0.060 A 
ATOM      5  C   LIG    1       -3.044  -5.300   0.003  0.00  0.00    +0.140 C 
ATOM      6  S   LIG    1        0.277  -3.029  -0.016  0.00  0.00    +0.410 S 
ENDROOT
BRANCH   4   7
ATOM      7  N   LIG    1       -1.156  -0.694   0.009  0.00  0.00    -0.630 N 
ATOM      8  H   LIG    1       -2.002  -0.220   0.020  0.00  0.00    +0.420 HD
ATOM      9  C   LIG    1        0.002  -0.004   0.002  0.00  0.00    +0.520 C 
ATOM     10  O   LIG    1        1.060  -0.596  -0.011  0.00  0.00    -0.490 OA
BRANCH   9  11
ATOM     11  C   LIG    1       -0.018   1.503   0.010  0.00  0.00    +0.120 C 
BRANCH  11  12
ATOM     12  C   LIG    1        1.417   2.032  -0.001  0.00  0.00    +0.100 C 
BRANCH  12  13
ATOM     13  S   LIG    1        1.392   3.846   0.009  0.00  0.00    -0.110 S 
BRANCH  13  14
ATOM     14  C   LIG    1        3.104   4.266  -0.005  0.00  0.00    -0.090 A 
ATOM     15  C   LIG    1        4.067   3.264  -0.013  0.00  0.00    +0.000 A 
ATOM     16  C   LIG    1        5.407   3.596  -0.030  0.00  0.00    +0.030 A 
ATOM     17  C   LIG    1        5.791   4.925  -0.027  0.00  0.00    +0.010 A 
ATOM     18  C   LIG    1        4.836   5.925  -0.012  0.00  0.00    +0.030 A 
ATOM     19  C   LIG    1        3.494   5.600  -0.001  0.00  0.00    +0.030 A 
ENDBRANCH  13  14
ENDBRANCH  12  13
ENDBRANCH  11  12
ENDBRANCH   9  11
ENDBRANCH   4   7
BRANCH   1  20
ATOM     20  C   LIG    1       -0.086  -5.864  -0.027  0.00  0.00    +0.540 C 
ATOM     21  O   LIG    1       -0.819  -6.835  -0.024  0.00  0.00    -0.490 OA
BRANCH  20  23
ATOM     22  C   LIG    1        1.740  -7.372  -0.051  0.00  0.00    +0.270 C 
ATOM     23  O   LIG    1        1.253  -6.029  -0.040  0.00  0.00    -0.350 OA
ENDBRANCH  20  23
ENDBRANCH   1  20
BRANCH   3  24
ATOM     24  C   LIG    1       -3.626  -2.344   0.036  0.00  0.00    +0.530 C 
ATOM     25  O   LIG    1       -4.207  -2.118  -1.008  0.00  0.00    -0.490 OA
BRANCH  24  26
ATOM     26  O   LIG    1       -4.237  -2.104   1.214  0.00  0.00    -0.350 OA
ATOM     27  C   LIG    1       -5.589  -1.576   1.159  0.00  0.00    +0.280 C 
ENDBRANCH  24  26
ENDBRANCH   3  24
TORSDOF 9
