REMARK  Name = ZINCrD00000F5LEA.0
REMARK                            x       y       z     vdW  Elec       q    Type
REMARK                         _______ _______ _______ _____ _____    ______ ____
ROOT
ATOM      1  N   LIG    1        3.608   5.701   0.514  0.00  0.00    -0.360 N 
ATOM      2  N   LIG    1        2.661   5.062  -0.062  0.00  0.00    -0.190 NA
ATOM      3  C   LIG    1        2.022   5.489  -1.124  0.00  0.00    +0.060 A 
ATOM      4  C   LIG    1        2.399   6.782  -1.718  0.00  0.00    -0.030 A 
ATOM      5  C   LIG    1        1.776   7.303  -2.846  0.00  0.00    +0.070 A 
ATOM      6  C   LIG    1        2.186   8.522  -3.344  0.00  0.00    +0.060 A 
ATOM      7  C   LIG    1        3.211   9.231  -2.733  0.00  0.00    +0.030 A 
ATOM      8  C   LIG    1        3.835   8.737  -1.606  0.00  0.00    +0.090 A 
ATOM      9  C   LIG    1        3.440   7.507  -1.092  0.00  0.00    -0.140 A 
ATOM     10  C   LIG    1        4.062   6.899   0.093  0.00  0.00    +0.520 A 
ATOM     11  O   LIG    1        4.966   7.465   0.680  0.00  0.00    -0.490 OA
ENDROOT
BRANCH   3  12
ATOM     12  C   LIG    1        0.942   4.680  -1.720  0.00  0.00    +0.620 C 
ATOM     13  N   LIG    1        0.607   3.495  -1.173  0.00  0.00    -0.570 N 
ATOM     14  H   LIG    1        1.076   3.173  -0.388  0.00  0.00    +0.400 HD
ATOM     15  O   LIG    1        0.353   5.083  -2.706  0.00  0.00    -0.490 OA
BRANCH  13  16
ATOM     16  N   LIG    1       -0.419   2.727  -1.740  0.00  0.00    -0.230 NA
ATOM     17  C   LIG    1       -0.742   1.585  -1.213  0.00  0.00    +0.150 C 
BRANCH  17  18
ATOM     18  C   LIG    1       -1.821   0.777  -1.809  0.00  0.00    -0.050 A 
ATOM     19  C   LIG    1       -2.167  -0.455  -1.248  0.00  0.00    +0.040 A 
ATOM     20  C   LIG    1       -3.181  -1.204  -1.808  0.00  0.00    +0.010 A 
ATOM     21  C   LIG    1       -3.848  -0.742  -2.929  0.00  0.00    +0.030 A 
ATOM     22  C   LIG    1       -3.508   0.474  -3.493  0.00  0.00    +0.010 A 
ATOM     23  C   LIG    1       -2.499   1.236  -2.941  0.00  0.00    +0.060 A 
ENDBRANCH  17  18
BRANCH  17  24
ATOM     24  C   LIG    1       -0.013   1.086   0.008  0.00  0.00    +0.050 C 
ATOM     25  C   LIG    1       -0.729   1.579   1.267  0.00  0.00    +0.050 C 
ENDBRANCH  17  24
ENDBRANCH  13  16
ENDBRANCH   3  12
BRANCH   1  26
ATOM     26  C   LIG    1        4.232   5.100   1.696  0.00  0.00    +0.320 C 
BRANCH  26  28
ATOM     27  C   LIG    1        4.138   4.926   4.186  0.00  0.00    +0.030 C 
ATOM     28  C   LIG    1        3.486   5.554   2.953  0.00  0.00    +0.000 C 
ENDBRANCH  26  28
ENDBRANCH   1  26
TORSDOF 6
