REMARK  Name = ZINCnE000001TxlG.1
REMARK                            x       y       z     vdW  Elec       q    Type
REMARK                         _______ _______ _______ _____ _____    ______ ____
ROOT
ATOM      1  C   LIG    1        1.130   1.878   0.001  0.00  0.00    +0.330 A 
ATOM      2  N   LIG    1       -0.015   1.257   0.009  0.00  0.00    -0.360 NA
ATOM      3  N   LIG    1        0.002  -0.004   0.002  0.00  0.00    -0.180 NA
ATOM      4  C   LIG    1        1.164  -0.594  -0.012  0.00  0.00    -0.080 A 
ATOM      5  S   LIG    1        2.406   0.660  -0.017  0.00  0.00    -0.040 S 
ENDROOT
BRANCH   4   6
ATOM      6  C   LIG    1        1.400  -2.053  -0.022  0.00  0.00    +0.050 A 
ATOM      7  C   LIG    1        2.703  -2.553  -0.044  0.00  0.00    +0.020 A 
ATOM      8  C   LIG    1        2.916  -3.916  -0.046  0.00  0.00    +0.020 A 
ATOM      9  C   LIG    1        1.842  -4.788  -0.041  0.00  0.00    +0.000 A 
ATOM     10  C   LIG    1        0.547  -4.300  -0.026  0.00  0.00    +0.020 A 
ATOM     11  C   LIG    1        0.319  -2.939  -0.016  0.00  0.00    -0.030 A 
ATOM     12 CL   LIG    1       -1.306  -2.328   0.003  0.00  0.00    -0.040 Cl
ENDBRANCH   4   6
BRANCH   1  15
ATOM     13  O   LIG    1       -0.875   3.616   0.030  0.00  0.00    -0.560 OA
ATOM     14  C   LIG    1        0.246   4.078   0.021  0.00  0.00    +0.500 C 
ATOM     15  N   LIG    1        1.314   3.256   0.007  0.00  0.00    -0.660 NA
BRANCH  14  16
ATOM     16  C   LIG    1        0.445   5.572   0.027  0.00  0.00    +0.100 C 
ATOM     17  C   LIG    1        1.729   5.948   0.792  0.00  0.00    +0.020 C 
ATOM     18  C   LIG    1        2.766   6.122  -0.376  0.00  0.00    +0.030 C 
ATOM     19  C   LIG    1        1.887   6.750  -1.486  0.00  0.00    +0.150 C 
ATOM     20  C   LIG    1       -0.760   6.281   0.675  0.00  0.00    +0.020 C 
ATOM     21  C   LIG    1       -1.611   6.707  -0.551  0.00  0.00    +0.020 C 
ATOM     22  C   LIG    1       -0.514   7.071  -1.582  0.00  0.00    +0.150 C 
ATOM     23  N   LIG    1        0.570   6.089  -1.352  0.00  0.00    -0.500 NA
ENDBRANCH  14  16
ENDBRANCH   1  15
TORSDOF 3
