REMARK  Name = ZINCrH000004oERy.0
REMARK                            x       y       z     vdW  Elec       q    Type
REMARK                         _______ _______ _______ _____ _____    ______ ____
ROOT
ATOM      1  C   LIG    1        2.390  -1.390  -5.043  0.00  0.00    +0.030 C 
ATOM      2  C   LIG    1        3.184  -0.591  -4.007  0.00  0.00    -0.010 C 
ATOM      3  C   LIG    1        2.987  -1.207  -2.619  0.00  0.00    +0.010 C 
ATOM      4  C   LIG    1        3.976  -0.568  -1.643  0.00  0.00    +0.120 C 
ATOM      5  C   LIG    1        3.872   0.948  -1.754  0.00  0.00    -0.050 A 
ATOM      6  C   LIG    1        3.299   1.568  -2.792  0.00  0.00    -0.180 A 
ATOM      7  S   LIG    1        3.346   3.316  -2.605  0.00  0.00    +0.170 S 
ATOM      8  C   LIG    1        4.171   3.203  -1.071  0.00  0.00    +0.070 A 
ATOM      9  N   LIG    1        4.581   4.181  -0.252  0.00  0.00    -0.470 NA
ATOM     10  C   LIG    1        5.190   3.824   0.865  0.00  0.00    +0.510 A 
ATOM     11  N   LIG    1        5.414   2.573   1.216  0.00  0.00    -0.560 NA
ATOM     12  C   LIG    1        5.044   1.533   0.468  0.00  0.00    +0.410 A 
ATOM     13  C   LIG    1        4.383   1.855  -0.748  0.00  0.00    -0.150 A 
ATOM     14  C   LIG    1        2.683   0.855  -3.982  0.00  0.00    +0.120 C 
ENDROOT
BRANCH  12  15
ATOM     15  N   LIG    1        5.287   0.227   0.852  0.00  0.00    -0.470 N 
ATOM     16  C   LIG    1        4.619  -0.081   2.123  0.00  0.00    +0.200 C 
ATOM     17  C   LIG    1        4.787  -1.568   2.442  0.00  0.00    +0.040 C 
ATOM     18  C   LIG    1        6.279  -1.900   2.534  0.00  0.00    +0.230 C 
ATOM     19  C   LIG    1        6.960  -1.526   1.215  0.00  0.00    +0.050 C 
ATOM     20  C   LIG    1        6.729  -0.040   0.931  0.00  0.00    +0.200 C 
BRANCH  18  21
ATOM     21  N   LIG    1        6.449  -3.334   2.783  0.00  0.00    -0.600 N 
ATOM     22  C   LIG    1        7.152  -3.739   3.994  0.00  0.00    +0.260 C 
ATOM     23  C   LIG    1        6.830  -5.196   4.335  0.00  0.00    +0.020 C 
ATOM     24  C   LIG    1        7.066  -6.053   3.086  0.00  0.00    +0.020 C 
ATOM     25  C   LIG    1        6.015  -5.679   2.037  0.00  0.00    +0.060 C 
ATOM     26  C   LIG    1        5.955  -4.187   1.884  0.00  0.00    +0.520 C 
ATOM     27  O   LIG    1        5.429  -3.732   0.890  0.00  0.00    -0.540 OA
ENDBRANCH  18  21
ENDBRANCH  12  15
TORSDOF 2
