REMARK  Name = ZINCqH0000000fAZ.0
REMARK                            x       y       z     vdW  Elec       q    Type
REMARK                         _______ _______ _______ _____ _____    ______ ____
ROOT
ATOM      1  C   LIG    1       -2.437   1.331  -2.945  0.00  0.00    +0.060 C 
ENDROOT
BRANCH   1   3
ATOM      2  N   LIG    1       -0.721   1.571  -1.179  0.00  0.00    -0.610 N 
ATOM      3  C   LIG    1       -1.708   0.832  -1.724  0.00  0.00    +0.520 C 
ATOM      4  O   LIG    1       -2.010  -0.234  -1.231  0.00  0.00    -0.540 OA
BRANCH   2   5
ATOM      5  C   LIG    1       -0.357   2.860  -1.774  0.00  0.00    +0.310 C 
BRANCH   5   7
ATOM      6  C   LIG    1        0.538   3.080  -4.034  0.00  0.00    +0.030 C 
ATOM      7  C   LIG    1        0.716   2.649  -2.810  0.00  0.00    -0.070 C 
ENDBRANCH   5   7
ENDBRANCH   2   5
BRANCH   2   8
ATOM      8  C   LIG    1       -0.013   1.086   0.008  0.00  0.00    +0.320 C 
BRANCH   8   9
ATOM      9  C   LIG    1       -0.718   1.572   1.248  0.00  0.00    -0.110 A 
ATOM     10  C   LIG    1       -0.360   2.779   1.819  0.00  0.00    +0.010 A 
ATOM     11  C   LIG    1       -1.010   3.227   2.954  0.00  0.00    +0.000 A 
ATOM     12  C   LIG    1       -2.012   2.463   3.523  0.00  0.00    +0.000 A 
ATOM     13  C   LIG    1       -2.366   1.254   2.955  0.00  0.00    +0.000 A 
ATOM     14  C   LIG    1       -1.719   0.808   1.818  0.00  0.00    +0.040 A 
ENDBRANCH   8   9
ENDBRANCH   2   8
ENDBRANCH   1   3
BRANCH   1  15
ATOM     15  C   LIG    1       -3.500   0.311  -3.356  0.00  0.00    +0.080 C 
BRANCH  15  16
ATOM     16  C   LIG    1       -4.240   0.818  -4.596  0.00  0.00    +0.000 C 
ATOM     17  C   LIG    1       -5.210  -0.258  -5.085  0.00  0.00    +0.110 C 
ATOM     18  C   LIG    1       -6.139   0.327  -6.117  0.00  0.00    -0.120 A 
ATOM     19  C   LIG    1       -6.605  -0.461  -7.151  0.00  0.00    +0.050 A 
ATOM     20  C   LIG    1       -7.489   0.062  -8.076  0.00  0.00    -0.010 A 
ATOM     21  C   LIG    1       -7.912   1.374  -7.967  0.00  0.00    +0.040 A 
ATOM     22  C   LIG    1       -7.443   2.169  -6.940  0.00  0.00    -0.020 A 
ATOM     23  C   LIG    1       -6.540   1.653  -6.020  0.00  0.00    +0.160 A 
ATOM     24  N   LIG    1       -6.056   2.458  -4.985  0.00  0.00    -0.660 N 
ATOM     25  H   LIG    1       -6.487   3.306  -4.796  0.00  0.00    +0.410 HD
ATOM     26  C   LIG    1       -5.002   2.070  -4.247  0.00  0.00    +0.530 C 
ATOM     27  O   LIG    1       -4.660   2.735  -3.292  0.00  0.00    -0.520 OA
ENDBRANCH  15  16
ENDBRANCH   1  15
TORSDOF 7
