REMARK  Name = ZINCkj00000y7L6q.0
REMARK                            x       y       z     vdW  Elec       q    Type
REMARK                         _______ _______ _______ _____ _____    ______ ____
ROOT
ATOM      1  C   LIG    1        1.407   1.816   0.026  0.00  0.00    +0.250 C 
ATOM      2  C   LIG    1        2.553   0.789  -0.086  0.00  0.00    +0.040 C 
ATOM      3  C   LIG    1        1.823  -0.497  -0.554  0.00  0.00    +0.060 C 
ATOM      4  C   LIG    1        0.474  -0.380   0.198  0.00  0.00    +0.260 C 
ATOM      5  N   LIG    1        0.156   1.059   0.182  0.00  0.00    -0.640 N 
ATOM      6  C   LIG    1       -1.077   1.592   0.287  0.00  0.00    +0.510 C 
ATOM      7  O   LIG    1       -1.214   2.796   0.353  0.00  0.00    -0.490 OA
ENDROOT
BRANCH   1  12
ATOM      8  N   LIG    1        1.794   1.889   2.471  0.00  0.00    -0.390 N 
ATOM      9  C   LIG    1        2.512   2.781   3.417  0.00  0.00    +0.250 C 
ATOM     10  C   LIG    1        3.540   3.529   2.541  0.00  0.00    +0.070 C 
ATOM     11  C   LIG    1        2.958   3.484   1.113  0.00  0.00    +0.070 C 
ATOM     12  C   LIG    1        1.628   2.713   1.246  0.00  0.00    +0.170 C 
ATOM     13  H   LIG    1        2.346   1.068   2.272  0.00  0.00    +0.420 HD
BRANCH   8  15
ATOM     14  C   LIG    1        0.680   0.581   4.217  0.00  0.00    +0.090 C 
ATOM     15  C   LIG    1        0.484   1.509   3.017  0.00  0.00    +0.240 C 
ENDBRANCH   8  15
ENDBRANCH   1  12
BRANCH   6  16
ATOM     16  C   LIG    1       -2.286   0.693   0.323  0.00  0.00    +0.360 C 
BRANCH  16  17
ATOM     17  N   LIG    1       -3.498   1.509   0.440  0.00  0.00    -0.380 N 
ATOM     18  C   LIG    1       -4.561   1.474  -0.390  0.00  0.00    +0.230 A 
ATOM     19  C   LIG    1       -5.466   2.374   0.060  0.00  0.00    -0.110 A 
ATOM     20  C   LIG    1       -4.936   2.980   1.204  0.00  0.00    +0.250 A 
ATOM     21  N   LIG    1       -3.759   2.458   1.436  0.00  0.00    -0.280 NA
ENDBRANCH  16  17
ENDBRANCH   6  16
TORSDOF 4
