REMARK  Name = ZINCkj00000y7L6q.1
REMARK                            x       y       z     vdW  Elec       q    Type
REMARK                         _______ _______ _______ _____ _____    ______ ____
ROOT
ATOM      1  C   LIG    1       -1.896   2.357   3.319  0.00  0.00    +0.230 C 
ATOM      2  C   LIG    1       -0.691   1.557   3.859  0.00  0.00    +0.040 C 
ATOM      3  C   LIG    1       -1.166   1.125   5.271  0.00  0.00    +0.060 C 
ATOM      4  C   LIG    1       -1.999   2.355   5.710  0.00  0.00    +0.260 C 
ATOM      5  N   LIG    1       -2.674   2.811   4.481  0.00  0.00    -0.610 N 
ATOM      6  C   LIG    1       -3.816   3.526   4.431  0.00  0.00    +0.520 C 
ATOM      7  O   LIG    1       -4.344   3.751   3.363  0.00  0.00    -0.490 OA
ENDROOT
BRANCH   1  12
ATOM      8  N   LIG    1       -0.578   3.111   1.384  0.00  0.00    -0.380 N 
ATOM      9  C   LIG    1       -1.228   3.543   0.128  0.00  0.00    +0.250 C 
ATOM     10  C   LIG    1       -2.098   4.760   0.531  0.00  0.00    +0.050 C 
ATOM     11  C   LIG    1       -2.606   4.332   1.933  0.00  0.00    +0.110 C 
ATOM     12  C   LIG    1       -1.403   3.564   2.519  0.00  0.00    +0.150 C 
ATOM     13  H   LIG    1        0.341   3.523   1.449  0.00  0.00    +0.420 HD
BRANCH   8  15
ATOM     14  C   LIG    1        0.043   1.153   0.052  0.00  0.00    +0.070 C 
ATOM     15  C   LIG    1       -0.468   1.647   1.407  0.00  0.00    +0.230 C 
ENDBRANCH   8  15
ENDBRANCH   1  12
BRANCH   6  16
ATOM     16  C   LIG    1       -4.435   4.045   5.703  0.00  0.00    +0.380 C 
BRANCH  16  17
ATOM     17  N   LIG    1       -5.659   4.785   5.383  0.00  0.00    -0.380 N 
ATOM     18  C   LIG    1       -6.885   4.549   5.895  0.00  0.00    +0.230 A 
ATOM     19  C   LIG    1       -7.739   5.446   5.348  0.00  0.00    -0.110 A 
ATOM     20  C   LIG    1       -7.010   6.256   4.473  0.00  0.00    +0.240 A 
ATOM     21  N   LIG    1       -5.761   5.865   4.497  0.00  0.00    -0.280 NA
ENDBRANCH  16  17
ENDBRANCH   6  16
TORSDOF 4
