REMARK  Name = ZINCpk00000k1gHi.0
REMARK                            x       y       z     vdW  Elec       q    Type
REMARK                         _______ _______ _______ _____ _____    ______ ____
ROOT
ATOM      1  C   LIG    1       -2.073  -3.586   0.480  0.00  0.00    +0.530 C 
ATOM      2  N   LIG    1       -1.699  -2.301   0.324  0.00  0.00    -0.600 N 
ATOM      3  C   LIG    1       -1.514  -1.433   1.494  0.00  0.00    +0.290 C 
ATOM      4  C   LIG    1       -0.087  -0.872   1.473  0.00  0.00    +0.050 C 
ATOM      5  C   LIG    1        0.180  -0.255   0.097  0.00  0.00    -0.100 C 
ATOM      6  C   LIG    1       -0.159   1.223  -0.096  0.00  0.00    +0.050 C 
ATOM      7  C   LIG    1       -0.043  -1.197  -1.091  0.00  0.00    +0.070 C 
ATOM      8  C   LIG    1        1.303   0.776  -0.015  0.00  0.00    +0.100 C 
ATOM      9  C   LIG    1       -1.471  -1.752  -1.019  0.00  0.00    +0.260 C 
ATOM     10  O   LIG    1       -2.260  -4.032   1.592  0.00  0.00    -0.530 OA
ENDROOT
BRANCH   1  14
ATOM     11  C   LIG    1       -2.262  -8.191  -1.496  0.00  0.00    +0.290 C 
ATOM     12  N   LIG    1       -1.936  -6.779  -1.279  0.00  0.00    -0.620 N 
ATOM     13  C   LIG    1       -2.613  -5.913  -0.307  0.00  0.00    +0.300 C 
ATOM     14  C   LIG    1       -2.260  -4.469  -0.727  0.00  0.00    -0.010 C 
ATOM     15  C   LIG    1       -0.922  -4.675  -1.474  0.00  0.00    +0.070 C 
ATOM     16  C   LIG    1       -0.978  -6.112  -1.945  0.00  0.00    +0.520 C 
ATOM     17  O   LIG    1       -0.262  -6.591  -2.799  0.00  0.00    -0.530 OA
ENDBRANCH   1  14
BRANCH   8  18
ATOM     18  N   LIG    1        2.087   0.792  -1.256  0.00  0.00    -0.510 NA
ATOM     19  C   LIG    1        2.332   2.169  -1.706  0.00  0.00    +0.200 C 
BRANCH  18  20
ATOM     20  C   LIG    1        3.350   0.060  -1.091  0.00  0.00    +0.300 C 
BRANCH  20  21
ATOM     21  C   LIG    1        4.010  -0.114  -2.435  0.00  0.00    +0.050 A 
ATOM     22  N   LIG    1        4.846   0.717  -2.960  0.00  0.00    -0.470 NA
ATOM     23  C   LIG    1        5.332   0.411  -4.146  0.00  0.00    +0.220 A 
ATOM     24  C   LIG    1        4.880  -0.741  -4.650  0.00  0.00    -0.080 A 
ATOM     25  S   LIG    1        3.764  -1.443  -3.482  0.00  0.00    +0.150 S 
ENDBRANCH  20  21
ENDBRANCH  18  20
ENDBRANCH   8  18
TORSDOF 4
