REMARK  Name = ZINCrH000004kqU2.0
REMARK                            x       y       z     vdW  Elec       q    Type
REMARK                         _______ _______ _______ _____ _____    ______ ____
ROOT
ATOM      1  N   LIG    1       -0.698   1.558   1.213  0.00  0.00    -0.720 N 
ATOM      2  H   LIG    1       -1.241   2.362   1.179  0.00  0.00    +0.400 HD
ATOM      3  C   LIG    1       -0.575   0.877   2.369  0.00  0.00    +0.530 C 
ATOM      4  O   LIG    1        0.103  -0.128   2.412  0.00  0.00    -0.530 OA
ENDROOT
BRANCH   1   5
ATOM      5  C   LIG    1       -0.013   1.086   0.008  0.00  0.00    +0.350 C 
BRANCH   5   6
ATOM      6  C   LIG    1        1.401   1.607  -0.003  0.00  0.00    -0.200 A 
ATOM      7  C   LIG    1        2.473   0.915  -0.389  0.00  0.00    +0.030 A 
ATOM      8  C   LIG    1        3.672   1.604  -0.313  0.00  0.00    +0.010 A 
ATOM      9  C   LIG    1        3.572   2.856   0.136  0.00  0.00    -0.040 A 
ATOM     10  S   LIG    1        1.889   3.225   0.486  0.00  0.00    +0.110 S 
ENDBRANCH   5   6
BRANCH   5  11
ATOM     11  C   LIG    1       -0.753   1.593  -1.232  0.00  0.00    +0.120 C 
BRANCH  11  12
ATOM     12  C   LIG    1       -2.126   0.973  -1.285  0.00  0.00    +0.460 C 
ATOM     13  O   LIG    1       -2.476   0.205  -0.421  0.00  0.00    -0.490 OA
BRANCH  12  15
ATOM     14  C   LIG    1       -4.265   0.641  -2.281  0.00  0.00    +0.260 C 
ATOM     15  O   LIG    1       -2.959   1.275  -2.293  0.00  0.00    -0.360 OA
ENDBRANCH  12  15
ENDBRANCH  11  12
ENDBRANCH   5  11
ENDBRANCH   1   5
BRANCH   3  16
ATOM     16  C   LIG    1       -1.281   1.363   3.609  0.00  0.00    +0.070 C 
BRANCH  16  17
ATOM     17  C   LIG    1       -0.978   0.416   4.773  0.00  0.00    +0.210 C 
BRANCH  17  18
ATOM     18  C   LIG    1       -1.683   0.902   6.013  0.00  0.00    +0.200 A 
ATOM     19  N   LIG    1       -2.888   0.566   6.378  0.00  0.00    -0.470 NA
ATOM     20  C   LIG    1       -3.182   1.187   7.530  0.00  0.00    +0.170 A 
ATOM     21  C   LIG    1       -2.106   1.942   7.874  0.00  0.00    -0.010 A 
ATOM     22  O   LIG    1       -1.174   1.754   6.914  0.00  0.00    -0.190 OA
BRANCH  21  23
ATOM     23  C   LIG    1       -1.979   2.803   9.069  0.00  0.00    -0.020 A 
ATOM     24  C   LIG    1       -0.803   3.519   9.294  0.00  0.00    +0.030 A 
ATOM     25  C   LIG    1       -0.693   4.325  10.408  0.00  0.00    +0.010 A 
ATOM     26  C   LIG    1       -1.741   4.416  11.307  0.00  0.00    +0.020 A 
ATOM     27  C   LIG    1       -2.908   3.704  11.092  0.00  0.00    +0.020 A 
ATOM     28  C   LIG    1       -3.033   2.898   9.979  0.00  0.00    +0.030 A 
ENDBRANCH  21  23
ENDBRANCH  17  18
ENDBRANCH  16  17
ENDBRANCH   3  16
TORSDOF 9
