REMARK  Name = ZINCrH000004rhJ2.0
REMARK                            x       y       z     vdW  Elec       q    Type
REMARK                         _______ _______ _______ _____ _____    ______ ____
ROOT
ATOM      1  N   LIG    1        0.108   1.655   1.008  0.00  0.00    -0.740 N 
ATOM      2  H   LIG    1        0.040   0.705   1.195  0.00  0.00    +0.400 HD
ATOM      3  C   LIG    1       -0.987   2.437   1.084  0.00  0.00    +0.510 C 
ATOM      4  O   LIG    1       -0.902   3.624   0.851  0.00  0.00    -0.530 OA
ENDROOT
BRANCH   1   5
ATOM      5  C   LIG    1        1.400   2.238   0.639  0.00  0.00    +0.270 C 
BRANCH   5   9
ATOM      6  N   LIG    1        4.578   0.817  -0.539  0.00  0.00    -0.470 N 
ATOM      7  C   LIG    1        3.698  -0.337  -0.820  0.00  0.00    +0.190 C 
ATOM      8  C   LIG    1        2.261   0.196  -0.591  0.00  0.00    +0.040 C 
ATOM      9  C   LIG    1        2.468   1.142   0.621  0.00  0.00    -0.030 C 
ATOM     10  C   LIG    1        3.864   1.745   0.358  0.00  0.00    +0.210 C 
BRANCH   6  18
ATOM     11  C   LIG    1        6.397   2.811   0.360  0.00  0.00    +0.100 C 
ATOM     12  C   LIG    1        6.701   1.341   0.482  0.00  0.00    -0.100 A 
ATOM     13  C   LIG    1        7.893   0.926   1.044  0.00  0.00    +0.050 A 
ATOM     14  C   LIG    1        8.174  -0.424   1.156  0.00  0.00    +0.000 A 
ATOM     15  C   LIG    1        7.262  -1.363   0.706  0.00  0.00    -0.010 A 
ATOM     16  C   LIG    1        6.066  -0.954   0.148  0.00  0.00    -0.020 A 
ATOM     17 CL   LIG    1        7.619  -3.056   0.849  0.00  0.00    -0.070 Cl
ATOM     18  C   LIG    1        5.784   0.401   0.029  0.00  0.00    +0.120 A 
ENDBRANCH   6  18
ENDBRANCH   5   9
ENDBRANCH   1   5
BRANCH   3  19
ATOM     19  C   LIG    1       -2.318   1.836   1.457  0.00  0.00    +0.130 C 
BRANCH  19  20
ATOM     20  C   LIG    1       -3.370   2.914   1.470  0.00  0.00    -0.200 A 
ATOM     21  C   LIG    1       -4.209   3.247   0.454  0.00  0.00    +0.240 A 
ATOM     22  N   LIG    1       -5.006   4.247   0.833  0.00  0.00    -0.540 NA
ATOM     23  C   LIG    1       -4.734   4.616   2.073  0.00  0.00    +0.250 A 
ATOM     24  N   LIG    1       -5.247   5.575   2.909  0.00  0.00    -0.490 N 
ATOM     25  H   LIG    1       -5.966   6.147   2.599  0.00  0.00    +0.420 HD
ATOM     26  C   LIG    1       -4.763   5.730   4.152  0.00  0.00    +0.330 A 
ATOM     27  C   LIG    1       -3.754   4.951   4.631  0.00  0.00    -0.080 A 
ATOM     28  C   LIG    1       -3.190   3.962   3.833  0.00  0.00    +0.170 A 
ATOM     29  C   LIG    1       -3.678   3.785   2.540  0.00  0.00    -0.140 A 
ENDBRANCH  19  20
ENDBRANCH   3  19
TORSDOF 5
