REMARK  Name = ZINCpk00000e1xlg.0
REMARK                            x       y       z     vdW  Elec       q    Type
REMARK                         _______ _______ _______ _____ _____    ______ ____
ROOT
ATOM      1  C   LIG    1        2.194   1.353   1.166  0.00  0.00    +0.010 C 
ATOM      2  C   LIG    1        1.426   1.978  -0.001  0.00  0.00    +0.030 C 
ATOM      3  C   LIG    1       -0.018   1.465   0.010  0.00  0.00    +0.300 C 
ATOM      4  N   LIG    1        0.002  -0.004   0.002  0.00  0.00    -1.000 NA
ATOM      5  C   LIG    1        0.786  -0.706   1.028  0.00  0.00    +0.300 C 
ATOM      6  C   LIG    1        2.220  -0.169   1.005  0.00  0.00    +0.050 C 
ENDROOT
BRANCH   1   9
ATOM      7  N   LIG    1        3.828   3.204   1.311  0.00  0.00    -0.720 N 
ATOM      8  H   LIG    1        3.080   3.816   1.398  0.00  0.00    +0.410 HD
ATOM      9  C   LIG    1        3.605   1.882   1.179  0.00  0.00    +0.530 C 
ATOM     10  O   LIG    1        4.540   1.117   1.070  0.00  0.00    -0.530 OA
BRANCH   7  11
ATOM     11  C   LIG    1        5.200   3.718   1.323  0.00  0.00    +0.280 C 
ATOM     12  C   LIG    1        5.678   3.930  -0.115  0.00  0.00    +0.060 C 
BRANCH  11  13
ATOM     13  C   LIG    1        5.239   5.029   2.064  0.00  0.00    +0.460 C 
ATOM     14  O   LIG    1        4.224   5.488   2.534  0.00  0.00    -0.500 OA
BRANCH  13  16
ATOM     15  C   LIG    1        6.363   6.946   2.927  0.00  0.00    +0.280 C 
ATOM     16  O   LIG    1        6.400   5.688   2.202  0.00  0.00    -0.350 OA
ENDBRANCH  13  16
ENDBRANCH  11  13
ENDBRANCH   7  11
ENDBRANCH   1   9
BRANCH   4  17
ATOM     17  S   LIG    1       -0.843  -0.853  -1.141  0.00  0.00    +2.690 S 
ATOM     18  O   LIG    1       -1.880   0.006  -1.594  0.00  0.00    -0.950 OA
ATOM     19  O   LIG    1       -1.086  -2.139  -0.588  0.00  0.00    -0.950 OA
BRANCH  17  20
ATOM     20  C   LIG    1        0.235  -1.097  -2.513  0.00  0.00    -0.680 A 
ATOM     21  C   LIG    1        0.273  -0.167  -3.536  0.00  0.00    +0.140 A 
ATOM     22  C   LIG    1        1.123  -0.355  -4.609  0.00  0.00    +0.010 A 
ATOM     23  C   LIG    1        1.928  -1.479  -4.666  0.00  0.00    +0.020 A 
ATOM     24  C   LIG    1        1.885  -2.412  -3.645  0.00  0.00    +0.020 A 
ATOM     25 CL   LIG    1        2.991  -1.719  -6.018  0.00  0.00    -0.050 Cl
ATOM     26  C   LIG    1        1.039  -2.220  -2.569  0.00  0.00    +0.140 A 
ENDBRANCH  17  20
ENDBRANCH   4  17
TORSDOF 6
