REMARK  Name = ZINCrH000004smpo.0
REMARK                            x       y       z     vdW  Elec       q    Type
REMARK                         _______ _______ _______ _____ _____    ______ ____
ROOT
ATOM      1  N   LIG    1        5.220  -1.712   1.328  0.00  0.00    -0.730 N 
ATOM      2  H   LIG    1        4.882  -1.188   2.071  0.00  0.00    +0.400 HD
ATOM      3  C   LIG    1        5.939  -2.828   1.562  0.00  0.00    +0.570 C 
ATOM      4  O   LIG    1        6.362  -3.485   0.631  0.00  0.00    -0.540 OA
ENDROOT
BRANCH   3   5
ATOM      5  C   LIG    1        6.212  -3.252   2.949  0.00  0.00    -0.170 A 
ATOM      6  C   LIG    1        5.731  -2.495   4.021  0.00  0.00    +0.080 A 
ATOM      7  C   LIG    1        5.984  -2.897   5.314  0.00  0.00    -0.010 A 
ATOM      8  C   LIG    1        6.726  -4.049   5.553  0.00  0.00    +0.200 A 
ATOM      9  C   LIG    1        7.211  -4.802   4.489  0.00  0.00    -0.040 A 
ATOM     10  C   LIG    1        6.957  -4.409   3.194  0.00  0.00    +0.110 A 
BRANCH   8  11
ATOM     11  N   LIG    1        6.984  -4.450   6.864  0.00  0.00    -0.560 N 
ATOM     12  C   LIG    1        7.648  -5.707   7.230  0.00  0.00    +0.270 C 
ATOM     13  C   LIG    1        7.327  -5.922   8.725  0.00  0.00    +0.060 C 
ATOM     14  C   LIG    1        7.077  -4.473   9.206  0.00  0.00    +0.070 C 
ATOM     15  C   LIG    1        6.662  -3.732   7.954  0.00  0.00    +0.520 C 
ATOM     16  O   LIG    1        6.117  -2.649   7.936  0.00  0.00    -0.500 OA
ENDBRANCH   8  11
ENDBRANCH   3   5
BRANCH   1  17
ATOM     17  C   LIG    1        4.948  -1.291  -0.048  0.00  0.00    +0.410 C 
BRANCH  17  21
ATOM     18  C   LIG    1        2.406   1.333  -0.016  0.00  0.00    +0.060 A 
ATOM     19  C   LIG    1        3.524   2.107  -0.021  0.00  0.00    +0.000 A 
ATOM     20  C   LIG    1        4.627   1.228  -0.027  0.00  0.00    -0.020 A 
ATOM     21  C   LIG    1        4.132  -0.025  -0.035  0.00  0.00    -0.030 A 
ATOM     22  O   LIG    1        2.790   0.043  -0.028  0.00  0.00    -0.160 OA
BRANCH  18  26
ATOM     23  C   LIG    1       -1.098   4.819   0.028  0.00  0.00    +0.190 C 
ATOM     24  C   LIG    1       -0.552   3.414   0.015  0.00  0.00    +0.060 A 
ATOM     25  N   LIG    1        0.700   3.113   0.006  0.00  0.00    -0.460 NA
ATOM     26  C   LIG    1        1.012   1.824  -0.006  0.00  0.00    +0.140 A 
ATOM     27  C   LIG    1       -0.058   1.000  -0.006  0.00  0.00    -0.060 A 
ATOM     28  S   LIG    1       -1.510   1.998   0.002  0.00  0.00    +0.150 S 
ENDBRANCH  18  26
ENDBRANCH  17  21
ENDBRANCH   1  17
TORSDOF 5
