REMARK  Name = ZINCrD000000AfBa.0
REMARK                            x       y       z     vdW  Elec       q    Type
REMARK                         _______ _______ _______ _____ _____    ______ ____
ROOT
ATOM      1  C   LIG    1       -4.888   0.923   0.245  0.00  0.00    +0.070 C 
ENDROOT
BRANCH   1   3
ATOM      2  O   LIG    1       -3.618   2.909   0.137  0.00  0.00    -0.500 OA
ATOM      3  C   LIG    1       -3.600   1.696   0.130  0.00  0.00    +0.520 C 
ATOM      4  N   LIG    1       -2.428   1.041   0.019  0.00  0.00    -0.670 N 
ATOM      5  H   LIG    1       -2.418   0.074  -0.063  0.00  0.00    +0.420 HD
BRANCH   4   6
ATOM      6  C   LIG    1       -1.224   1.754   0.023  0.00  0.00    +0.180 A 
ATOM      7  C   LIG    1       -1.104   2.913   0.779  0.00  0.00    +0.030 A 
ATOM      8  C   LIG    1        0.087   3.612   0.785  0.00  0.00    +0.090 A 
ATOM      9  C   LIG    1        1.159   3.161   0.036  0.00  0.00    -0.200 A 
ATOM     10  C   LIG    1        1.041   2.010  -0.722  0.00  0.00    +0.090 A 
ATOM     11  C   LIG    1       -0.148   1.307  -0.732  0.00  0.00    -0.010 A 
BRANCH   9  12
ATOM     12  C   LIG    1        2.457   3.925   0.046  0.00  0.00    +0.510 C 
ATOM     13  F   LIG    1        2.197   5.284   0.254  0.00  0.00    -0.180 F 
ATOM     14  F   LIG    1        3.106   3.758  -1.182  0.00  0.00    -0.180 F 
ATOM     15  F   LIG    1        3.274   3.445   1.075  0.00  0.00    -0.180 F 
ENDBRANCH   9  12
ENDBRANCH   4   6
ENDBRANCH   1   3
BRANCH   1  16
ATOM     16  C   LIG    1       -6.061   1.899   0.358  0.00  0.00    +0.290 C 
BRANCH  16  17
ATOM     17  N   LIG    1       -7.313   1.147   0.470  0.00  0.00    -0.720 N 
ATOM     18  H   LIG    1       -7.298   0.177   0.464  0.00  0.00    +0.400 HD
ATOM     19  C   LIG    1       -8.485   1.803   0.581  0.00  0.00    +0.560 C 
ATOM     20  O   LIG    1       -8.504   3.018   0.588  0.00  0.00    -0.510 OA
BRANCH  19  21
ATOM     21  C   LIG    1       -9.749   1.044   0.694  0.00  0.00    -0.080 A 
ATOM     22  C   LIG    1       -9.732  -0.352   0.681  0.00  0.00    +0.060 A 
ATOM     23  C   LIG    1      -10.914  -1.054   0.792  0.00  0.00    +0.100 A 
ATOM     24  C   LIG    1      -12.116  -0.378   0.906  0.00  0.00    -0.020 A 
ATOM     25  C   LIG    1      -12.140   1.006   0.914  0.00  0.00    +0.100 A 
ATOM     26  C   LIG    1      -10.965   1.720   0.809  0.00  0.00    +0.100 A 
BRANCH  24  27
ATOM     27  N   LIG    1      -13.381  -1.138   1.020  0.00  0.00    +0.020 N 
ATOM     28  O   LIG    1      -13.363  -2.355   1.013  0.00  0.00    -0.150 OA
ATOM     29  O   LIG    1      -14.441  -0.545   1.120  0.00  0.00    -0.150 OA
ENDBRANCH  24  27
ENDBRANCH  19  21
ENDBRANCH  16  17
ENDBRANCH   1  16
TORSDOF 7
