REMARK  Name = ZINCvU00000009uV.0
REMARK                            x       y       z     vdW  Elec       q    Type
REMARK                         _______ _______ _______ _____ _____    ______ ____
ROOT
ATOM      1  C   LIG    1        3.610   2.107  -0.043  0.00  0.00    +0.070 A 
ATOM      2  C   LIG    1        2.385   1.433   0.172  0.00  0.00    -0.060 A 
ATOM      3  C   LIG    1        1.177   2.107   0.378  0.00  0.00    +0.050 A 
ATOM      4  C   LIG    1        0.035   1.388   0.579  0.00  0.00    +0.050 A 
ATOM      5  C   LIG    1        0.055  -0.004   0.582  0.00  0.00    +0.050 A 
ATOM      6  C   LIG    1        1.217  -0.691   0.385  0.00  0.00    +0.050 A 
ATOM      7  C   LIG    1        2.405   0.015   0.176  0.00  0.00    -0.050 A 
ATOM      8  C   LIG    1        3.650  -0.627  -0.036  0.00  0.00    +0.140 A 
ATOM      9  N   LIG    1        4.728   0.115  -0.226  0.00  0.00    -0.240 NA
ATOM     10  N   LIG    1        4.709   1.396  -0.230  0.00  0.00    -0.270 NA
ENDROOT
BRANCH   8  11
ATOM     11  C   LIG    1        3.743  -2.105  -0.044  0.00  0.00    -0.040 A 
ATOM     12  C   LIG    1        4.784  -2.745   0.630  0.00  0.00    +0.050 A 
ATOM     13  C   LIG    1        4.862  -4.122   0.622  0.00  0.00    +0.010 A 
ATOM     14  C   LIG    1        3.918  -4.868  -0.060  0.00  0.00    +0.030 A 
ATOM     15  C   LIG    1        2.886  -4.239  -0.734  0.00  0.00    +0.010 A 
ATOM     16  C   LIG    1        2.794  -2.862  -0.730  0.00  0.00    +0.030 A 
ENDBRANCH   8  11
BRANCH   1  17
ATOM     17  S   LIG    1        3.670   3.868  -0.062  0.00  0.00    +0.060 S 
BRANCH  17  18
ATOM     18  C   LIG    1        5.436   4.119  -0.368  0.00  0.00    +0.100 C 
BRANCH  18  20
ATOM     19  N   LIG    1        6.990   6.024  -0.646  0.00  0.00    -0.600 N 
ATOM     20  C   LIG    1        5.731   5.596  -0.426  0.00  0.00    +0.530 C 
ATOM     21  O   LIG    1        4.835   6.400  -0.275  0.00  0.00    -0.520 OA
ATOM     22  C   LIG    1        8.072   5.053  -0.828  0.00  0.00    +0.280 C 
BRANCH  19  23
ATOM     23  C   LIG    1        7.277   7.459  -0.702  0.00  0.00    +0.350 C 
BRANCH  23  29
ATOM     24  C   LIG    1        8.888   7.755   1.197  0.00  0.00    +0.140 A 
ATOM     25  C   LIG    1        9.200   8.220   2.466  0.00  0.00    -0.080 A 
ATOM     26  C   LIG    1        8.242   8.875   3.215  0.00  0.00    +0.060 A 
ATOM     27  C   LIG    1        6.974   9.071   2.699  0.00  0.00    -0.030 A 
ATOM     28  C   LIG    1        6.663   8.613   1.431  0.00  0.00    +0.070 A 
ATOM     29  C   LIG    1        7.617   7.958   0.678  0.00  0.00    -0.140 A 
BRANCH  24  31
ATOM     30  C   LIG    1       11.114   6.931   1.057  0.00  0.00    +0.240 C 
ATOM     31  O   LIG    1        9.828   7.105   0.460  0.00  0.00    -0.320 OA
ENDBRANCH  24  31
ENDBRANCH  23  29
ENDBRANCH  19  23
ENDBRANCH  18  20
ENDBRANCH  17  18
ENDBRANCH   1  17
TORSDOF 7
