REMARK  Name = ZINCb80000003W02.0
REMARK                            x       y       z     vdW  Elec       q    Type
REMARK                         _______ _______ _______ _____ _____    ______ ____
ROOT
ATOM      1  C   LIG    1        2.388   0.030  -0.126  0.00  0.00    +0.250 A 
ATOM      2  C   LIG    1        2.356   1.418  -0.145  0.00  0.00    -0.070 A 
ATOM      3  C   LIG    1        1.149   2.080  -0.031  0.00  0.00    +0.070 A 
ATOM      4  C   LIG    1       -0.026   1.363   0.100  0.00  0.00    -0.060 A 
ATOM      5  C   LIG    1        0.003  -0.020   0.119  0.00  0.00    +0.060 A 
ATOM      6  C   LIG    1        1.206  -0.688   0.006  0.00  0.00    -0.170 A 
ENDROOT
BRANCH   1   7
ATOM      7  N   LIG    1        3.607  -0.643  -0.240  0.00  0.00    -0.870 N 
ATOM      8  H   LIG    1        4.439  -0.143  -0.244  0.00  0.00    +0.400 HD
ATOM      9  H   LIG    1        3.622  -1.610  -0.316  0.00  0.00    +0.400 HD
ENDBRANCH   1   7
BRANCH   6  10
ATOM     10  C   LIG    1        1.237  -2.195   0.027  0.00  0.00    +0.250 C 
BRANCH  10  11
ATOM     11  N   LIG    1        1.221  -2.704  -1.351  0.00  0.00    -0.800 NA
ATOM     12  H   LIG    1        0.390  -2.404  -1.837  0.00  0.00    +0.350 HD
ATOM     13  H   LIG    1        1.306  -3.709  -1.366  0.00  0.00    +0.350 HD
ENDBRANCH  10  11
BRANCH  10  14
ATOM     14  N   LIG    1        0.065  -2.697   0.747  0.00  0.00    -0.480 NA
ATOM     15  O   LIG    1        0.207  -3.307   1.792  0.00  0.00    +0.320 OA
ENDBRANCH  10  14
ENDBRANCH   6  10
TORSDOF 4
