REMARK  Name = ZINCpk00000KfLxA.0
REMARK                            x       y       z     vdW  Elec       q    Type
REMARK                         _______ _______ _______ _____ _____    ______ ____
ROOT
ATOM      1  C   LIG    1       -3.921   2.987   3.029  0.00  0.00    +0.210 C 
ATOM      2  C   LIG    1       -5.344   3.524   2.767  0.00  0.00    +0.050 C 
ATOM      3  C   LIG    1       -5.221   4.168   1.361  0.00  0.00    +0.040 C 
ATOM      4  C   LIG    1       -4.222   3.210   0.665  0.00  0.00    +0.260 C 
ATOM      5  N   LIG    1       -3.266   2.831   1.722  0.00  0.00    -0.620 N 
ATOM      6  C   LIG    1       -2.003   2.406   1.522  0.00  0.00    +0.540 C 
ATOM      7  O   LIG    1       -1.274   2.202   2.470  0.00  0.00    -0.530 OA
ENDROOT
BRANCH   1   8
ATOM      8  C   LIG    1       -3.994   1.634   3.739  0.00  0.00    +0.330 C 
BRANCH   8  15
ATOM      9  C   LIG    1       -2.454   2.442   6.305  0.00  0.00    +0.130 C 
ATOM     10  C   LIG    1       -3.931   2.162   6.191  0.00  0.00    +0.090 A 
ATOM     11  C   LIG    1       -4.834   2.221   7.196  0.00  0.00    -0.120 A 
ATOM     12  C   LIG    1       -6.086   1.885   6.670  0.00  0.00    +0.070 A 
ATOM     13  N   LIG    1       -5.940   1.639   5.393  0.00  0.00    -0.300 NA
ATOM     14  C   LIG    1       -7.380   1.819   7.440  0.00  0.00    +0.160 C 
ATOM     15  N   LIG    1       -4.589   1.811   5.066  0.00  0.00    -0.370 N 
ENDBRANCH   8  15
ENDBRANCH   1   8
BRANCH   6  16
ATOM     16  C   LIG    1       -1.495   2.185   0.120  0.00  0.00    +0.150 C 
BRANCH  16  17
ATOM     17  C   LIG    1       -0.109   1.596   0.175  0.00  0.00    -0.250 A 
ATOM     18  C   LIG    1        0.077   0.248   0.110  0.00  0.00    +0.200 A 
ATOM     19  N   LIG    1        1.312  -0.257   0.155  0.00  0.00    -0.540 NA
ATOM     20  C   LIG    1        2.361   0.515   0.260  0.00  0.00    +0.400 A 
ATOM     21  N   LIG    1        2.245   1.855   0.328  0.00  0.00    -0.630 N 
ATOM     22  H   LIG    1        3.039   2.408   0.406  0.00  0.00    +0.420 HD
ATOM     23  C   LIG    1        3.732  -0.109   0.305  0.00  0.00    +0.190 C 
ATOM     24  C   LIG    1       -1.110  -0.672  -0.012  0.00  0.00    +0.150 C 
ATOM     25  C   LIG    1        1.023   2.428   0.288  0.00  0.00    +0.540 A 
ATOM     26  O   LIG    1        0.902   3.641   0.348  0.00  0.00    -0.530 OA
ENDBRANCH  16  17
ENDBRANCH   6  16
TORSDOF 4
