REMARK  Name = ZINCqH0000002JB7.0
REMARK                            x       y       z     vdW  Elec       q    Type
REMARK                         _______ _______ _______ _____ _____    ______ ____
ROOT
ATOM      1  C   LIG    1       -1.644   0.871   1.768  0.00  0.00    +0.530 C 
ATOM      2  N   LIG    1       -0.650   1.639   1.279  0.00  0.00    -0.720 N 
ATOM      3  H   LIG    1       -0.452   2.495   1.690  0.00  0.00    +0.400 HD
ATOM      4  O   LIG    1       -1.950  -0.158   1.203  0.00  0.00    -0.530 OA
ENDROOT
BRANCH   2   5
ATOM      5  C   LIG    1        0.132   1.180   0.129  0.00  0.00    +0.290 C 
ATOM      6  C   LIG    1       -0.596   1.555  -1.164  0.00  0.00    +0.040 C 
BRANCH   5   7
ATOM      7  C   LIG    1        1.489   1.836   0.150  0.00  0.00    -0.110 A 
ATOM      8  C   LIG    1        1.607   3.166   0.509  0.00  0.00    +0.050 A 
ATOM      9  C   LIG    1        2.849   3.770   0.529  0.00  0.00    -0.020 A 
ATOM     10  C   LIG    1        3.979   3.039   0.189  0.00  0.00    +0.160 A 
ATOM     11  N   LIG    1        5.240   3.645   0.208  0.00  0.00    -0.660 N 
ATOM     12  H   LIG    1        5.371   4.469   0.703  0.00  0.00    +0.410 HD
ATOM     13  C   LIG    1        6.272   3.091  -0.454  0.00  0.00    +0.520 C 
ATOM     14  C   LIG    1        6.089   1.824  -1.245  0.00  0.00    +0.080 C 
ATOM     15  C   LIG    1        5.084   0.912  -0.541  0.00  0.00    +0.100 C 
ATOM     16  O   LIG    1        7.363   3.621  -0.414  0.00  0.00    -0.520 OA
ATOM     17  C   LIG    1        3.857   1.704  -0.172  0.00  0.00    -0.120 A 
ATOM     18  C   LIG    1        2.614   1.104  -0.185  0.00  0.00    +0.060 A 
ENDBRANCH   5   7
ENDBRANCH   2   5
BRANCH   1  19
ATOM     19  C   LIG    1       -2.375   1.290   3.018  0.00  0.00    +0.050 C 
BRANCH  19  20
ATOM     20  C   LIG    1       -3.575   2.121   2.643  0.00  0.00    +0.130 A 
ATOM     21  C   LIG    1       -4.270   1.833   1.484  0.00  0.00    -0.020 A 
ATOM     22  C   LIG    1       -5.375   2.601   1.150  0.00  0.00    +0.070 A 
ATOM     23  C   LIG    1       -5.734   3.642   1.993  0.00  0.00    -0.030 A 
ATOM     24  C   LIG    1       -4.987   3.874   3.133  0.00  0.00    +0.260 A 
ATOM     25  N   LIG    1       -3.945   3.119   3.421  0.00  0.00    -0.480 NA
ENDBRANCH  19  20
BRANCH  19  26
ATOM     26  C   LIG    1       -2.835   0.046   3.781  0.00  0.00    +0.050 C 
BRANCH  26  28
ATOM     27  C   LIG    1       -2.071  -1.894   5.157  0.00  0.00    +0.020 C 
ATOM     28  C   LIG    1       -1.613  -0.724   4.284  0.00  0.00    +0.010 C 
ENDBRANCH  26  28
ENDBRANCH  19  26
ENDBRANCH   1  19
TORSDOF 6
