REMARK  Name = ZINCpe00000gM0M7.0
REMARK                            x       y       z     vdW  Elec       q    Type
REMARK                         _______ _______ _______ _____ _____    ______ ____
ROOT
ATOM      1  N   LIG    1        7.172   1.332   0.631  0.00  0.00    -0.530 NA
ATOM      2  C   LIG    1        7.103  -0.128   0.772  0.00  0.00    +0.170 C 
ATOM      3  C   LIG    1        6.136  -0.694  -0.275  0.00  0.00    +0.300 C 
ATOM      4  N   LIG    1        4.848   0.005  -0.147  0.00  0.00    -0.610 N 
ATOM      5  C   LIG    1        4.851   1.475  -0.147  0.00  0.00    +0.290 C 
ATOM      6  C   LIG    1        3.696  -0.685  -0.037  0.00  0.00    +0.560 C 
ATOM      7  O   LIG    1        3.719  -1.896   0.062  0.00  0.00    -0.530 OA
ATOM      8  C   LIG    1        5.869   1.956   0.900  0.00  0.00    +0.170 C 
ENDROOT
BRANCH   6   9
ATOM      9  C   LIG    1        2.402   0.032  -0.039  0.00  0.00    -0.120 A 
ATOM     10  C   LIG    1        1.376  -0.372   0.815  0.00  0.00    +0.060 A 
ATOM     11  C   LIG    1        0.172   0.301   0.809  0.00  0.00    +0.040 A 
ATOM     12  C   LIG    1       -0.019   1.376  -0.041  0.00  0.00    -0.090 A 
ATOM     13  C   LIG    1        0.995   1.782  -0.890  0.00  0.00    +0.030 A 
ATOM     14  C   LIG    1        2.204   1.117  -0.894  0.00  0.00    +0.040 A 
BRANCH  12  15
ATOM     15  C   LIG    1       -1.339   2.103  -0.047  0.00  0.00    +0.380 C 
BRANCH  15  16
ATOM     16  N   LIG    1       -1.299   3.195   0.929  0.00  0.00    -0.380 N 
ATOM     17  C   LIG    1       -1.548   4.495   0.693  0.00  0.00    +0.470 A 
ATOM     18  N   LIG    1       -1.411   5.145   1.820  0.00  0.00    -0.550 NA
ATOM     19  C   LIG    1       -1.068   4.299   2.791  0.00  0.00    +0.420 A 
ATOM     20  N   LIG    1       -0.987   3.093   2.294  0.00  0.00    -0.310 NA
ENDBRANCH  15  16
ENDBRANCH  12  15
ENDBRANCH   6   9
BRANCH   1  21
ATOM     21  C   LIG    1        8.215   1.896   1.498  0.00  0.00    +0.140 C 
BRANCH  21  22
ATOM     22  C   LIG    1        8.094   3.421   1.516  0.00  0.00    +0.200 C 
BRANCH  22  24
ATOM     23  C   LIG    1        8.982   5.521   2.537  0.00  0.00    +0.010 C 
ATOM     24  C   LIG    1        9.180   4.008   2.420  0.00  0.00    -0.020 C 
ENDBRANCH  22  24
BRANCH  22  25
ATOM     25  O   LIG    1        8.253   3.927   0.189  0.00  0.00    -0.550 OA
ATOM     26  H   LIG    1        9.105   3.713  -0.213  0.00  0.00    +0.380 HD
ENDBRANCH  22  25
ENDBRANCH  21  22
ENDBRANCH   1  21
TORSDOF 7
