REMARK  Name = ZINCpe000000XqZE.2
REMARK                            x       y       z     vdW  Elec       q    Type
REMARK                         _______ _______ _______ _____ _____    ______ ____
ROOT
ATOM      1  N   LIG    1        5.692   6.496  -0.019  0.00  0.00    -0.720 N 
ATOM      2  H   LIG    1        5.239   7.354  -0.011  0.00  0.00    +0.400 HD
ATOM      3  C   LIG    1        4.976   5.355  -0.017  0.00  0.00    +0.560 C 
ATOM      4  O   LIG    1        5.544   4.281  -0.027  0.00  0.00    -0.520 OA
ENDROOT
BRANCH   3   5
ATOM      5  C   LIG    1        3.495   5.410  -0.004  0.00  0.00    -0.060 A 
ATOM      6  C   LIG    1        2.822   6.636   0.008  0.00  0.00    +0.000 A 
ATOM      7  C   LIG    1        1.441   6.645   0.020  0.00  0.00    +0.320 A 
ATOM      8  N   LIG    1        0.755   5.519   0.016  0.00  0.00    -0.490 NA
ATOM      9  C   LIG    1        1.349   4.337   0.011  0.00  0.00    +0.360 A 
ATOM     10  C   LIG    1        2.734   4.239  -0.002  0.00  0.00    +0.060 A 
BRANCH   9  11
ATOM     11  N   LIG    1        0.573   3.173   0.013  0.00  0.00    -0.340 N 
ATOM     12  C   LIG    1       -0.772   3.099   0.025  0.00  0.00    +0.520 A 
ATOM     13  N   LIG    1       -1.108   1.835   0.017  0.00  0.00    -0.540 NA
ATOM     14  C   LIG    1       -0.013   1.076   0.008  0.00  0.00    +0.450 A 
ATOM     15  N   LIG    1        1.041   1.849   0.002  0.00  0.00    -0.310 NA
ENDBRANCH   9  11
ENDBRANCH   3   5
BRANCH   1  16
ATOM     16  C   LIG    1        7.156   6.442  -0.032  0.00  0.00    +0.260 C 
BRANCH  16  17
ATOM     17  C   LIG    1        7.719   7.864  -0.031  0.00  0.00    +0.020 C 
BRANCH  17  18
ATOM     18  C   LIG    1        9.248   7.808  -0.044  0.00  0.00    +0.180 C 
BRANCH  18  22
ATOM     19  C   LIG    1        9.721  12.014  -2.557  0.00  0.00    +0.050 C 
ATOM     20  C   LIG    1        9.989  11.307  -1.227  0.00  0.00    +0.160 C 
ATOM     21  C   LIG    1        9.460   9.871  -1.295  0.00  0.00    +0.150 C 
ATOM     22  N   LIG    1        9.789   9.174  -0.043  0.00  0.00    -0.540 NA
ATOM     23  C   LIG    1       11.242   9.165   0.182  0.00  0.00    +0.150 C 
ATOM     24  C   LIG    1       11.753  10.607   0.235  0.00  0.00    +0.160 C 
ATOM     25  C   LIG    1       13.275  10.604   0.389  0.00  0.00    +0.050 C 
ATOM     26  O   LIG    1       11.397  11.279  -0.976  0.00  0.00    -0.380 OA
ENDBRANCH  18  22
ENDBRANCH  17  18
ENDBRANCH  16  17
ENDBRANCH   1  16
TORSDOF 6
