REMARK  Name = ZINCrg000000snNA.0
REMARK                            x       y       z     vdW  Elec       q    Type
REMARK                         _______ _______ _______ _____ _____    ______ ____
ROOT
ATOM      1  N   LIG    1        4.356  -0.267   1.630  0.00  0.00    -0.530 NA
ATOM      2  C   LIG    1        4.277   1.163   1.960  0.00  0.00    +0.160 C 
ATOM      3  C   LIG    1        4.215   1.330   3.482  0.00  0.00    +0.290 C 
ATOM      4  N   LIG    1        5.356   0.617   4.076  0.00  0.00    -0.630 N 
ATOM      5  C   LIG    1        5.581  -0.784   3.686  0.00  0.00    +0.310 C 
ATOM      6  C   LIG    1        6.173   1.230   4.955  0.00  0.00    +0.710 C 
ATOM      7  N   LIG    1        6.015   2.542   5.219  0.00  0.00    -0.690 N 
ATOM      8  H   LIG    1        5.248   3.019   4.866  0.00  0.00    +0.410 HD
ATOM      9  O   LIG    1        7.053   0.600   5.509  0.00  0.00    -0.560 OA
ATOM     10  C   LIG    1        5.589  -0.868   2.156  0.00  0.00    +0.190 C 
ENDROOT
BRANCH   7  11
ATOM     11  C   LIG    1        6.958   3.216   6.004  0.00  0.00    +0.180 A 
ATOM     12  C   LIG    1        8.294   2.838   5.962  0.00  0.00    +0.050 A 
ATOM     13  C   LIG    1        9.225   3.506   6.731  0.00  0.00    +0.070 A 
ATOM     14  C   LIG    1        8.824   4.550   7.556  0.00  0.00    +0.120 A 
ATOM     15  C   LIG    1        7.488   4.924   7.602  0.00  0.00    +0.070 A 
ATOM     16  C   LIG    1        6.558   4.260   6.828  0.00  0.00    +0.010 A 
BRANCH  14  17
ATOM     17  N   LIG    1        9.769   5.225   8.342  0.00  0.00    -0.100 N 
ATOM     18  N   LIG    1        9.498   6.204   9.130  0.00  0.00    -0.290 NA
ATOM     19  C   LIG    1       10.609   6.597   9.713  0.00  0.00    +0.180 A 
ATOM     20  C   LIG    1       11.618   5.774   9.207  0.00  0.00    +0.180 A 
ATOM     21  N   LIG    1       11.026   4.953   8.368  0.00  0.00    -0.290 NA
ENDBRANCH  14  17
ENDBRANCH   7  11
BRANCH   1  22
ATOM     22  C   LIG    1        4.243  -0.480   0.181  0.00  0.00    +0.320 C 
BRANCH  22  27
ATOM     23  C   LIG    1        0.333   2.135  -1.662  0.00  0.00    +0.200 C 
ATOM     24  C   LIG    1        1.192   1.048  -1.069  0.00  0.00    +0.180 A 
ATOM     25  N   LIG    1        0.799  -0.150  -0.730  0.00  0.00    -0.290 NA
ATOM     26  N   LIG    1        1.794  -0.816  -0.263  0.00  0.00    -0.270 NA
ATOM     27  C   LIG    1        2.868  -0.073  -0.282  0.00  0.00    +0.180 A 
ATOM     28  N   LIG    1        2.516   1.131  -0.794  0.00  0.00    -0.580 N 
ATOM     29  H   LIG    1        3.095   1.896  -0.935  0.00  0.00    +0.430 HD
ENDBRANCH  22  27
ENDBRANCH   1  22
TORSDOF 4
