REMARK  Name = ZINCrg000000snNA.1
REMARK                            x       y       z     vdW  Elec       q    Type
REMARK                         _______ _______ _______ _____ _____    ______ ____
ROOT
ATOM      1  N   LIG    1       12.126  -0.335   1.277  0.00  0.00    -0.530 NA
ATOM      2  C   LIG    1       11.327  -1.567   1.302  0.00  0.00    +0.190 C 
ATOM      3  C   LIG    1       10.373  -1.579   0.103  0.00  0.00    +0.310 C 
ATOM      4  N   LIG    1        9.593  -0.332   0.115  0.00  0.00    -0.620 N 
ATOM      5  C   LIG    1       10.319   0.942   0.220  0.00  0.00    +0.280 C 
ATOM      6  C   LIG    1        8.248  -0.357   0.025  0.00  0.00    +0.710 C 
ATOM      7  N   LIG    1        7.558   0.797  -0.069  0.00  0.00    -0.690 N 
ATOM      8  H   LIG    1        8.031   1.640  -0.149  0.00  0.00    +0.410 HD
ATOM      9  O   LIG    1        7.658  -1.420   0.030  0.00  0.00    -0.570 OA
ATOM     10  C   LIG    1       11.275   0.854   1.421  0.00  0.00    +0.180 C 
ENDROOT
BRANCH   7  11
ATOM     11  C   LIG    1        6.158   0.779  -0.052  0.00  0.00    +0.180 A 
ATOM     12  C   LIG    1        5.486  -0.173   0.703  0.00  0.00    +0.050 A 
ATOM     13  C   LIG    1        4.106  -0.191   0.721  0.00  0.00    +0.070 A 
ATOM     14  C   LIG    1        3.390   0.743  -0.017  0.00  0.00    +0.120 A 
ATOM     15  C   LIG    1        4.062   1.692  -0.775  0.00  0.00    +0.070 A 
ATOM     16  C   LIG    1        5.442   1.714  -0.789  0.00  0.00    +0.010 A 
BRANCH  14  17
ATOM     17  N   LIG    1        1.988   0.725   0.001  0.00  0.00    -0.100 N 
ATOM     18  N   LIG    1        1.276  -0.115   0.666  0.00  0.00    -0.290 NA
ATOM     19  C   LIG    1        0.006   0.151   0.458  0.00  0.00    +0.180 A 
ATOM     20  C   LIG    1       -0.019   1.246  -0.408  0.00  0.00    +0.180 A 
ATOM     21  N   LIG    1        1.238   1.545  -0.647  0.00  0.00    -0.290 NA
ENDBRANCH  14  17
ENDBRANCH   7  11
BRANCH   1  22
ATOM     22  C   LIG    1       13.170  -0.363   2.309  0.00  0.00    +0.320 C 
BRANCH  22  26
ATOM     23  C   LIG    1       16.284   3.476   1.504  0.00  0.00    +0.190 C 
ATOM     24  C   LIG    1       15.154   2.650   2.063  0.00  0.00    +0.290 A 
ATOM     25  N   LIG    1       14.866   1.417   1.730  0.00  0.00    -0.520 NA
ATOM     26  C   LIG    1       13.805   1.000   2.419  0.00  0.00    +0.230 A 
ATOM     27  N   LIG    1       13.406   1.962   3.209  0.00  0.00    -0.310 NA
ATOM     28  N   LIG    1       14.271   3.047   2.994  0.00  0.00    -0.480 N 
ATOM     29  H   LIG    1       14.238   3.912   3.432  0.00  0.00    +0.440 HD
ENDBRANCH  22  26
ENDBRANCH   1  22
TORSDOF 4
