REMARK  Name = ZINCrD000000gSaX.0
REMARK                            x       y       z     vdW  Elec       q    Type
REMARK                         _______ _______ _______ _____ _____    ______ ____
ROOT
ATOM      1  C   LIG    1       -1.171  -4.042  -1.630  0.00  0.00    +0.490 C 
ATOM      2  N   LIG    1       -1.161  -2.718  -1.379  0.00  0.00    -0.700 N 
ATOM      3  H   LIG    1       -1.106  -2.086  -2.112  0.00  0.00    +0.410 HD
ATOM      4  O   LIG    1       -1.240  -4.833  -0.712  0.00  0.00    -0.500 OA
ENDROOT
BRANCH   1   5
ATOM      5  C   LIG    1       -1.098  -4.536  -3.037  0.00  0.00    +0.400 C 
ATOM      6  O   LIG    1       -1.128  -3.747  -3.959  0.00  0.00    -0.420 OA
BRANCH   5  10
ATOM      7  C   LIG    1       -0.789  -8.697  -3.813  0.00  0.00    -0.030 A 
ATOM      8  C   LIG    1       -0.692  -7.793  -4.857  0.00  0.00    -0.010 A 
ATOM      9  C   LIG    1       -0.792  -6.439  -4.613  0.00  0.00    +0.080 A 
ATOM     10  C   LIG    1       -0.991  -5.981  -3.306  0.00  0.00    -0.180 A 
ATOM     11  C   LIG    1       -1.082  -6.901  -2.256  0.00  0.00    +0.110 A 
ATOM     12  C   LIG    1       -0.986  -8.251  -2.517  0.00  0.00    +0.000 A 
BRANCH   7  14
ATOM     13  C   LIG    1        0.683 -10.476  -4.716  0.00  0.00    +0.040 C 
ATOM     14  C   LIG    1       -0.679 -10.174  -4.088  0.00  0.00    -0.040 C 
ATOM     15  C   LIG    1       -1.789 -10.598  -5.052  0.00  0.00    +0.040 C 
ATOM     16  C   LIG    1       -0.818 -10.950  -2.777  0.00  0.00    +0.030 C 
ENDBRANCH   7  14
ENDBRANCH   5  10
ENDBRANCH   1   5
BRANCH   2  17
ATOM     17  C   LIG    1       -1.232  -2.234   0.002  0.00  0.00    +0.350 C 
BRANCH  17  18
ATOM     18  C   LIG    1       -1.204  -0.727   0.008  0.00  0.00    -0.010 A 
ATOM     19  C   LIG    1       -2.356  -0.013   0.044  0.00  0.00    -0.020 A 
ATOM     20  C   LIG    1       -2.317   1.398   0.049  0.00  0.00    +0.540 A 
ATOM     21  N   LIG    1       -1.155   2.073   0.024  0.00  0.00    -0.630 N 
ATOM     22  H   LIG    1       -1.164   3.043   0.029  0.00  0.00    +0.420 HD
ATOM     23  C   LIG    1        0.051   1.405  -0.019  0.00  0.00    +0.190 A 
ATOM     24  C   LIG    1        1.254   2.102  -0.050  0.00  0.00    -0.020 A 
ATOM     25  C   LIG    1        2.445   1.409  -0.086  0.00  0.00    +0.070 A 
ATOM     26  C   LIG    1        2.458   0.022  -0.092  0.00  0.00    -0.020 A 
ATOM     27  C   LIG    1        1.288  -0.684  -0.062  0.00  0.00    +0.070 A 
ATOM     28  O   LIG    1       -3.365   2.021   0.081  0.00  0.00    -0.530 OA
ATOM     29  C   LIG    1        0.068  -0.002  -0.025  0.00  0.00    -0.120 A 
ENDBRANCH  17  18
ENDBRANCH   2  17
TORSDOF 5
