REMARK  Name = ZINCvU0000000BhI.0
REMARK                            x       y       z     vdW  Elec       q    Type
REMARK                         _______ _______ _______ _____ _____    ______ ____
ROOT
ATOM      1  C   LIG    1        4.802   4.422   0.193  0.00  0.00    -0.170 A 
ATOM      2  C   LIG    1        4.784   5.813   0.316  0.00  0.00    +0.070 A 
ATOM      3  C   LIG    1        5.968   6.509   0.428  0.00  0.00    -0.010 A 
ATOM      4  C   LIG    1        7.179   5.836   0.420  0.00  0.00    +0.060 A 
ATOM      5  C   LIG    1        7.213   4.461   0.299  0.00  0.00    +0.020 A 
ATOM      6  C   LIG    1        6.030   3.743   0.192  0.00  0.00    +0.210 A 
ENDROOT
BRANCH   1   9
ATOM      7  N   LIG    1        2.368   4.332  -0.021  0.00  0.00    -0.650 N 
ATOM      8  H   LIG    1        2.361   5.301  -0.074  0.00  0.00    +0.420 HD
ATOM      9  C   LIG    1        3.538   3.671   0.072  0.00  0.00    +0.570 C 
ATOM     10  O   LIG    1        3.553   2.455   0.057  0.00  0.00    -0.530 OA
BRANCH   7  18
ATOM     11  C   LIG    1        0.025   4.157   0.563  0.00  0.00    +0.110 A 
ATOM     12  C   LIG    1       -1.166   3.450   0.541  0.00  0.00    -0.040 A 
ATOM     13  C   LIG    1       -1.227   2.216  -0.084  0.00  0.00    -0.010 A 
ATOM     14  C   LIG    1       -0.097   1.682  -0.678  0.00  0.00    -0.090 A 
ATOM     15  C   LIG    1        1.094   2.382  -0.659  0.00  0.00    +0.090 A 
ATOM     16  C   LIG    1       -0.168   0.335  -1.351  0.00  0.00    +0.100 C 
ATOM     17 CL   LIG    1       -2.722   1.335  -0.117  0.00  0.00    -0.060 Cl
ATOM     18  C   LIG    1        1.161   3.621  -0.040  0.00  0.00    +0.120 A 
BRANCH  11  20
ATOM     19  C   LIG    1       -1.119   5.858   1.768  0.00  0.00    +0.260 C 
ATOM     20  O   LIG    1        0.085   5.371   1.172  0.00  0.00    -0.310 OA
ENDBRANCH  11  20
ENDBRANCH   7  18
ENDBRANCH   1   9
BRANCH   6  21
ATOM     21  N   LIG    1        6.062   2.355   0.076  0.00  0.00    -0.660 N 
ATOM     22  H   LIG    1        5.369   1.818   0.491  0.00  0.00    +0.430 HD
ATOM     23  C   LIG    1        7.055   1.759  -0.613  0.00  0.00    +0.510 C 
ATOM     24  O   LIG    1        7.965   2.423  -1.063  0.00  0.00    -0.520 OA
BRANCH  23  25
ATOM     25  C   LIG    1        7.036   0.267  -0.824  0.00  0.00    +0.310 C 
BRANCH  25  26
ATOM     26  N   LIG    1        8.215  -0.132  -1.596  0.00  0.00    -0.740 N 
ATOM     27  H   LIG    1        8.856   0.536  -1.883  0.00  0.00    +0.410 HD
BRANCH  26  28
ATOM     28  C   LIG    1        8.417  -1.478  -1.918  0.00  0.00    +0.210 A 
ATOM     29  C   LIG    1        7.503  -2.437  -1.503  0.00  0.00    -0.040 A 
ATOM     30  C   LIG    1        7.702  -3.765  -1.827  0.00  0.00    +0.040 A 
ATOM     31  C   LIG    1        8.817  -4.141  -2.557  0.00  0.00    +0.040 A 
ATOM     32  C   LIG    1        9.732  -3.187  -2.967  0.00  0.00    +0.040 A 
ATOM     33  F   LIG    1        9.012  -5.441  -2.868  0.00  0.00    -0.150 F 
ATOM     34  C   LIG    1        9.535  -1.858  -2.650  0.00  0.00    -0.030 A 
ENDBRANCH  26  28
ENDBRANCH  25  26
ENDBRANCH  23  25
ENDBRANCH   6  21
TORSDOF 7
