REMARK  Name = ZINCtV00000L6ktW.0
REMARK                            x       y       z     vdW  Elec       q    Type
REMARK                         _______ _______ _______ _____ _____    ______ ____
ROOT
ATOM      1  C   LIG    1       -2.554   7.882  -0.488  0.00  0.00    +0.610 C 
ATOM      2  N   LIG    1       -1.373   7.255  -0.322  0.00  0.00    -0.580 N 
ATOM      3  H   LIG    1       -0.843   7.421   0.473  0.00  0.00    +0.390 HD
ATOM      4  O   LIG    1       -3.219   7.674  -1.485  0.00  0.00    -0.510 OA
ENDROOT
BRANCH   2   5
ATOM      5  N   LIG    1       -0.910   6.362  -1.298  0.00  0.00    -0.230 NA
ATOM      6  C   LIG    1        0.212   5.766  -1.141  0.00  0.00    +0.100 C 
ATOM      7  C   LIG    1        0.709   4.807  -2.191  0.00  0.00    +0.110 C 
ATOM      8  C   LIG    1       -0.355   3.738  -2.449  0.00  0.00    +0.020 C 
ATOM      9  C   LIG    1        0.222   2.357  -2.130  0.00  0.00    +0.010 C 
ATOM     10  C   LIG    1       -0.753   1.593  -1.232  0.00  0.00    +0.010 C 
ATOM     11  C   LIG    1       -0.013   1.086   0.008  0.00  0.00    +0.010 C 
ATOM     12  C   LIG    1       -0.729   1.579   1.267  0.00  0.00    +0.010 C 
ATOM     13  C   LIG    1        0.277   2.277   2.185  0.00  0.00    +0.010 C 
ATOM     14  C   LIG    1       -0.250   3.665   2.556  0.00  0.00    +0.010 C 
ATOM     15  C   LIG    1        0.804   4.719   2.212  0.00  0.00    +0.010 C 
ATOM     16  C   LIG    1        0.172   5.805   1.338  0.00  0.00    +0.000 C 
ATOM     17  C   LIG    1        1.035   6.025   0.094  0.00  0.00    +0.040 C 
ENDBRANCH   2   5
BRANCH   1  21
ATOM     18  C   LIG    1       -2.886  10.716   3.742  0.00  0.00    +0.130 C 
ATOM     19  C   LIG    1       -3.168  10.064   2.413  0.00  0.00    +0.030 A 
ATOM     20  C   LIG    1       -2.369   9.177   1.793  0.00  0.00    -0.030 A 
ATOM     21  C   LIG    1       -3.040   8.820   0.538  0.00  0.00    -0.230 A 
ATOM     22  C   LIG    1       -4.210   9.529   0.514  0.00  0.00    +0.130 A 
ATOM     23  C   LIG    1       -5.244   9.490  -0.581  0.00  0.00    +0.150 C 
ATOM     24  N   LIG    1       -4.278  10.273   1.644  0.00  0.00    -0.400 N 
BRANCH  24  25
ATOM     25  C   LIG    1       -5.334  11.132   1.976  0.00  0.00    +0.110 A 
ATOM     26  C   LIG    1       -5.584  12.258   1.204  0.00  0.00    +0.020 A 
ATOM     27  C   LIG    1       -6.629  13.100   1.531  0.00  0.00    +0.020 A 
ATOM     28  C   LIG    1       -7.419  12.829   2.633  0.00  0.00    +0.020 A 
ATOM     29  C   LIG    1       -7.169  11.711   3.408  0.00  0.00    +0.020 A 
ATOM     30  C   LIG    1       -6.129  10.862   3.083  0.00  0.00    +0.020 A 
ENDBRANCH  24  25
ENDBRANCH   1  21
TORSDOF 3
