REMARK  Name = ZINCqH0000000orP.1
REMARK                            x       y       z     vdW  Elec       q    Type
REMARK                         _______ _______ _______ _____ _____    ______ ____
ROOT
ATOM      1  C   LIG    1       -2.091   1.398  -3.678  0.00  0.00    +0.010 C 
ATOM      2  C   LIG    1       -0.835   2.187  -3.301  0.00  0.00    +0.030 C 
ATOM      3  C   LIG    1       -0.179   1.540  -2.079  0.00  0.00    +0.170 C 
ATOM      4  N   LIG    1       -1.128   1.532  -0.959  0.00  0.00    -0.530 NA
ATOM      5  C   LIG    1       -2.322   0.740  -1.280  0.00  0.00    +0.170 C 
ATOM      6  C   LIG    1       -3.042   1.363  -2.478  0.00  0.00    +0.020 C 
ENDROOT
BRANCH   1  15
ATOM      7  C   LIG    1       -5.463  -0.604  -5.141  0.00  0.00    +0.080 C 
ATOM      8  C   LIG    1       -4.177   0.117  -4.829  0.00  0.00    +0.510 C 
ATOM      9  N   LIG    1       -4.054   1.429  -5.109  0.00  0.00    -0.600 N 
ATOM     10  C   LIG    1       -5.221   2.147  -5.659  0.00  0.00    +0.260 C 
ATOM     11  C   LIG    1       -4.830   3.104  -6.798  0.00  0.00    +0.020 C 
ATOM     12  C   LIG    1       -3.796   2.458  -7.687  0.00  0.00    +0.000 C 
ATOM     13  C   LIG    1       -2.401   2.828  -7.191  0.00  0.00    +0.000 C 
ATOM     14  C   LIG    1       -1.889   1.961  -6.119  0.00  0.00    +0.010 C 
ATOM     15  C   LIG    1       -2.785   2.075  -4.861  0.00  0.00    +0.240 C 
ATOM     16  O   LIG    1       -3.252  -0.484  -4.324  0.00  0.00    -0.530 OA
ENDBRANCH   1  15
BRANCH   4  17
ATOM     17  C   LIG    1       -0.488   1.044   0.270  0.00  0.00    +0.230 C 
BRANCH  17  18
ATOM     18  C   LIG    1       -1.406   1.278   1.442  0.00  0.00    -0.080 A 
ATOM     19  C   LIG    1       -1.195   2.360   2.277  0.00  0.00    +0.080 A 
ATOM     20  C   LIG    1       -2.034   2.583   3.349  0.00  0.00    +0.060 A 
ATOM     21  C   LIG    1       -3.094   1.708   3.597  0.00  0.00    +0.000 A 
ATOM     22  C   LIG    1       -3.300   0.614   2.754  0.00  0.00    +0.040 A 
ATOM     23  C   LIG    1       -2.455   0.405   1.681  0.00  0.00    +0.100 A 
ATOM     24  F   LIG    1       -2.652  -0.653   0.865  0.00  0.00    -0.130 F 
BRANCH  21  25
ATOM     25  C   LIG    1       -3.964   1.932   4.711  0.00  0.00    +0.250 C 
ATOM     26  N   LIG    1       -4.655   2.109   5.596  0.00  0.00    -0.400 NA
ENDBRANCH  21  25
ENDBRANCH  17  18
ENDBRANCH   4  17
TORSDOF 4
