REMARK  Name = ZINCpk00000eadbH.2
REMARK                            x       y       z     vdW  Elec       q    Type
REMARK                         _______ _______ _______ _____ _____    ______ ____
ROOT
ATOM      1  N   LIG    1        0.002  -0.004   0.002  0.00  0.00    -0.550 NA
ATOM      2  C   LIG    1       -1.299  -0.543  -0.389  0.00  0.00    +0.180 C 
ATOM      3  C   LIG    1       -1.089  -1.804  -1.199  0.00  0.00    +0.040 C 
ATOM      4  C   LIG    1       -1.117  -3.027  -0.268  0.00  0.00    +0.260 C 
ATOM      5  N   LIG    1       -0.414  -2.751   1.001  0.00  0.00    -0.610 N 
ATOM      6  C   LIG    1        0.838  -2.025   1.055  0.00  0.00    +0.300 C 
ATOM      7  C   LIG    1       -0.958  -3.192   2.152  0.00  0.00    +0.520 C 
ATOM      8  O   LIG    1       -0.400  -2.978   3.208  0.00  0.00    -0.530 OA
ATOM      9  C   LIG    1        0.556  -0.510   1.201  0.00  0.00    +0.180 C 
ENDROOT
BRANCH   7  10
ATOM     10  C   LIG    1       -2.260  -3.951   2.129  0.00  0.00    -0.040 C 
ATOM     11  C   LIG    1       -2.098  -5.230   1.298  0.00  0.00    +0.250 C 
ATOM     12  O   LIG    1       -3.371  -5.872   1.208  0.00  0.00    -0.300 OA
ATOM     13  C   LIG    1       -4.074  -6.054   2.357  0.00  0.00    +0.170 A 
ATOM     14  C   LIG    1       -5.117  -6.972   2.356  0.00  0.00    -0.040 A 
ATOM     15  C   LIG    1       -5.863  -7.178   3.505  0.00  0.00    +0.160 A 
ATOM     16  C   LIG    1       -5.566  -6.466   4.658  0.00  0.00    -0.100 A 
ATOM     17  C   LIG    1       -4.528  -5.556   4.658  0.00  0.00    +0.090 A 
ATOM     18  C   LIG    1       -3.779  -5.348   3.511  0.00  0.00    -0.190 A 
ATOM     19  C   LIG    1       -2.652  -4.348   3.554  0.00  0.00    +0.130 C 
BRANCH  15  20
ATOM     20  O   LIG    1       -6.884  -8.076   3.502  0.00  0.00    -0.310 OA
ATOM     21  C   LIG    1       -7.610  -8.236   4.723  0.00  0.00    +0.250 C 
ENDBRANCH  15  20
ENDBRANCH   7  10
BRANCH   1  22
ATOM     22  C   LIG    1       -0.018   1.465   0.010  0.00  0.00    +0.190 C 
BRANCH  22  23
ATOM     23  C   LIG    1        1.417   1.994  -0.001  0.00  0.00    +0.160 C 
BRANCH  23  25
ATOM     24  C   LIG    1        3.402   2.080  -1.343  0.00  0.00    +0.200 C 
ATOM     25  O   LIG    1        2.050   1.632  -1.230  0.00  0.00    -0.370 OA
ENDBRANCH  23  25
ENDBRANCH  22  23
ENDBRANCH   1  22
TORSDOF 5
