REMARK  Name = ZINCrH000004rDJF.2
REMARK                            x       y       z     vdW  Elec       q    Type
REMARK                         _______ _______ _______ _____ _____    ______ ____
ROOT
ATOM      1  N   LIG    1       -0.069   5.242   0.030  0.00  0.00    -0.670 N 
ATOM      2  H   LIG    1       -0.914   5.715  -0.025  0.00  0.00    +0.420 HD
ATOM      3  C   LIG    1        1.085   5.931   0.125  0.00  0.00    +0.510 C 
ATOM      4  O   LIG    1        2.146   5.342   0.112  0.00  0.00    -0.490 OA
ENDROOT
BRANCH   1  11
ATOM      5  C   LIG    1       -2.211   3.850   1.286  0.00  0.00    +0.110 C 
ATOM      6  C   LIG    1       -1.075   3.124   0.613  0.00  0.00    -0.060 A 
ATOM      7  C   LIG    1       -1.055   1.744   0.589  0.00  0.00    +0.050 A 
ATOM      8  C   LIG    1       -0.010   1.076  -0.024  0.00  0.00    +0.090 A 
ATOM      9  C   LIG    1        1.012   1.788  -0.623  0.00  0.00    -0.030 A 
ATOM     10  C   LIG    1        0.996   3.170  -0.607  0.00  0.00    +0.110 A 
ATOM     11  C   LIG    1       -0.049   3.842   0.012  0.00  0.00    +0.150 A 
BRANCH   9  12
ATOM     12  N   LIG    1        2.126   1.070  -1.283  0.00  0.00    +0.030 N 
ATOM     13  O   LIG    1        3.027   1.697  -1.810  0.00  0.00    -0.150 OA
ATOM     14  O   LIG    1        2.141  -0.148  -1.297  0.00  0.00    -0.160 OA
ENDBRANCH   9  12
ENDBRANCH   1  11
BRANCH   3  15
ATOM     15  C   LIG    1        1.059   7.432   0.247  0.00  0.00    +0.220 C 
BRANCH  15  16
ATOM     16  N   LIG    1        2.434   7.941   0.334  0.00  0.00    -0.510 NA
ATOM     17  C   LIG    1        3.139   7.786  -0.957  0.00  0.00    +0.170 C 
ATOM     18  C   LIG    1        4.087   9.009  -1.039  0.00  0.00    +0.040 C 
ATOM     19  C   LIG    1        3.219  10.122  -0.395  0.00  0.00    -0.020 C 
ATOM     20  C   LIG    1        2.447   9.367   0.708  0.00  0.00    +0.160 C 
ATOM     21  C   LIG    1        1.014   9.896   0.795  0.00  0.00    +0.020 C 
BRANCH  19  22
ATOM     22  C   LIG    1        4.102  11.213   0.212  0.00  0.00    +0.080 C 
BRANCH  22  23
ATOM     23  C   LIG    1        4.840  11.932  -0.887  0.00  0.00    -0.080 A 
ATOM     24  C   LIG    1        6.083  11.483  -1.294  0.00  0.00    +0.010 A 
ATOM     25  C   LIG    1        6.758  12.140  -2.305  0.00  0.00    +0.000 A 
ATOM     26  C   LIG    1        6.195  13.252  -2.904  0.00  0.00    +0.000 A 
ATOM     27  C   LIG    1        4.955  13.704  -2.493  0.00  0.00    +0.000 A 
ATOM     28  C   LIG    1        4.278  13.044  -1.485  0.00  0.00    +0.000 A 
ENDBRANCH  22  23
ENDBRANCH  19  22
ENDBRANCH  15  16
ENDBRANCH   3  15
TORSDOF 6
