REMARK  Name = ZINCkj000005g2rK.1
REMARK                            x       y       z     vdW  Elec       q    Type
REMARK                         _______ _______ _______ _____ _____    ______ ____
ROOT
ATOM      1  N   LIG    1       -3.176   3.758   1.413  0.00  0.00    -0.760 N 
ATOM      2  H   LIG    1       -2.218   3.701   1.278  0.00  0.00    +0.390 HD
ATOM      3  C   LIG    1       -3.851   4.851   1.004  0.00  0.00    +0.510 C 
ATOM      4  O   LIG    1       -5.050   4.922   1.173  0.00  0.00    -0.500 OA
ENDROOT
BRANCH   1   5
ATOM      5  C   LIG    1       -3.891   2.656   2.062  0.00  0.00    +0.300 C 
BRANCH   5   9
ATOM      6  N   LIG    1       -2.107   1.071   1.277  0.00  0.00    -0.410 N 
ATOM      7  C   LIG    1       -2.226  -0.290   1.833  0.00  0.00    +0.290 C 
ATOM      8  C   LIG    1       -3.538   0.155   2.494  0.00  0.00    +0.120 C 
ATOM      9  C   LIG    1       -2.900   1.549   2.425  0.00  0.00    +0.190 C 
ATOM     10  H   LIG    1       -2.575   1.184   0.390  0.00  0.00    +0.440 HD
BRANCH   6  12
ATOM     11  C   LIG    1       -0.013   1.086   0.008  0.00  0.00    +0.080 C 
ATOM     12  C   LIG    1       -0.729   1.579   1.267  0.00  0.00    +0.240 C 
ENDBRANCH   6  12
ENDBRANCH   5   9
ENDBRANCH   1   5
BRANCH   3  13
ATOM     13  C   LIG    1       -3.116   5.984   0.337  0.00  0.00    +0.150 C 
BRANCH  13  14
ATOM     14  C   LIG    1       -4.093   7.075  -0.021  0.00  0.00    -0.180 A 
ATOM     15  C   LIG    1       -4.699   7.249  -1.208  0.00  0.00    +0.260 A 
ATOM     16  N   LIG    1       -5.518   8.341  -1.159  0.00  0.00    -0.580 N 
ATOM     17  H   LIG    1       -6.061   8.664  -1.895  0.00  0.00    +0.420 HD
ATOM     18  C   LIG    1       -5.454   8.919   0.087  0.00  0.00    +0.040 A 
ATOM     19  C   LIG    1       -6.053  10.022   0.680  0.00  0.00    +0.280 A 
ATOM     20  N   LIG    1       -5.782  10.332   1.932  0.00  0.00    -0.470 NA
ATOM     21  C   LIG    1       -4.945   9.628   2.675  0.00  0.00    +0.220 A 
ATOM     22  C   LIG    1       -4.308   8.526   2.178  0.00  0.00    +0.000 A 
ATOM     23  C   LIG    1       -4.556   8.148   0.855  0.00  0.00    -0.060 A 
ENDBRANCH  13  14
ENDBRANCH   3  13
TORSDOF 5
