REMARK  Name = ZINCkj000005g2rK.0
REMARK                            x       y       z     vdW  Elec       q    Type
REMARK                         _______ _______ _______ _____ _____    ______ ____
ROOT
ATOM      1  N   LIG    1       -5.509   3.522   1.732  0.00  0.00    -0.760 N 
ATOM      2  H   LIG    1       -6.149   3.498   1.003  0.00  0.00    +0.400 HD
ATOM      3  C   LIG    1       -4.204   3.738   1.476  0.00  0.00    +0.510 C 
ATOM      4  O   LIG    1       -3.404   3.768   2.387  0.00  0.00    -0.500 OA
ENDROOT
BRANCH   1   5
ATOM      5  C   LIG    1       -5.962   3.325   3.111  0.00  0.00    +0.300 C 
BRANCH   5   9
ATOM      6  N   LIG    1       -8.248   4.221   2.541  0.00  0.00    -0.420 N 
ATOM      7  C   LIG    1       -9.263   4.103   3.611  0.00  0.00    +0.300 C 
ATOM      8  C   LIG    1       -8.146   3.469   4.459  0.00  0.00    +0.090 C 
ATOM      9  C   LIG    1       -7.476   3.102   3.123  0.00  0.00    +0.200 C 
ATOM     10  H   LIG    1       -8.616   4.012   1.625  0.00  0.00    +0.420 HD
BRANCH   6  12
ATOM     11  C   LIG    1       -8.337   6.569   1.848  0.00  0.00    +0.090 C 
ATOM     12  C   LIG    1       -7.523   5.498   2.578  0.00  0.00    +0.250 C 
ENDBRANCH   6  12
ENDBRANCH   5   9
ENDBRANCH   1   5
BRANCH   3  13
ATOM     13  C   LIG    1       -3.737   3.942   0.058  0.00  0.00    +0.150 C 
BRANCH  13  14
ATOM     14  C   LIG    1       -2.247   4.161   0.045  0.00  0.00    -0.180 A 
ATOM     15  C   LIG    1       -1.613   5.347   0.045  0.00  0.00    +0.260 A 
ATOM     16  N   LIG    1       -0.260   5.153   0.032  0.00  0.00    -0.580 N 
ATOM     17  H   LIG    1        0.404   5.860   0.030  0.00  0.00    +0.420 HD
ATOM     18  C   LIG    1        0.020   3.807   0.022  0.00  0.00    +0.040 A 
ATOM     19  C   LIG    1        1.188   3.056   0.007  0.00  0.00    +0.280 A 
ATOM     20  N   LIG    1        1.131   1.740   0.001  0.00  0.00    -0.470 NA
ATOM     21  C   LIG    1       -0.013   1.076   0.008  0.00  0.00    +0.220 A 
ATOM     22  C   LIG    1       -1.213   1.729   0.017  0.00  0.00    +0.000 A 
ATOM     23  C   LIG    1       -1.216   3.127   0.030  0.00  0.00    -0.060 A 
ENDBRANCH  13  14
ENDBRANCH   3  13
TORSDOF 5
