REMARK  Name = ZINCrH000004upwp.0
REMARK                            x       y       z     vdW  Elec       q    Type
REMARK                         _______ _______ _______ _____ _____    ______ ____
ROOT
ATOM      1  O   LIG    1       -3.842  -3.175  -1.167  0.00  0.00    -0.570 OA
ATOM      2  C   LIG    1       -4.341  -2.306  -1.856  0.00  0.00    +0.700 C 
ATOM      3  N   LIG    1       -4.449  -1.049  -1.383  0.00  0.00    -0.730 N 
ATOM      4  H   LIG    1       -4.847  -0.356  -1.933  0.00  0.00    +0.400 HD
ATOM      5  N   LIG    1       -4.786  -2.601  -3.094  0.00  0.00    -0.740 N 
ATOM      6  H   LIG    1       -5.184  -1.908  -3.644  0.00  0.00    +0.400 HD
ENDROOT
BRANCH   3   7
ATOM      7  C   LIG    1       -3.965  -0.729  -0.037  0.00  0.00    +0.270 C 
ATOM      8  C   LIG    1       -4.710   0.503   0.526  0.00  0.00    +0.080 C 
ATOM      9  C   LIG    1       -3.756   1.653   0.134  0.00  0.00    +0.280 C 
ATOM     10  N   LIG    1       -2.428   1.039   0.019  0.00  0.00    -0.560 N 
ATOM     11  C   LIG    1       -2.516  -0.298  -0.090  0.00  0.00    +0.500 C 
ATOM     12  O   LIG    1       -1.571  -1.049  -0.211  0.00  0.00    -0.480 OA
BRANCH  10  13
ATOM     13  C   LIG    1       -1.224   1.754   0.017  0.00  0.00    +0.170 A 
ATOM     14  C   LIG    1       -0.013   1.076   0.019  0.00  0.00    +0.050 A 
ATOM     15  C   LIG    1        1.174   1.783   0.023  0.00  0.00    +0.040 A 
ATOM     16  C   LIG    1        1.157   3.167   0.020  0.00  0.00    +0.080 A 
ATOM     17  C   LIG    1       -0.051   3.847   0.013  0.00  0.00    -0.050 A 
ATOM     18 CL   LIG    1       -0.070   5.582   0.009  0.00  0.00    -0.040 Cl
ATOM     19  F   LIG    1        2.319   3.856   0.023  0.00  0.00    -0.130 F 
ATOM     20  C   LIG    1       -1.240   3.143   0.009  0.00  0.00    +0.030 A 
ENDBRANCH  10  13
ENDBRANCH   3   7
BRANCH   5  21
ATOM     21  C   LIG    1       -4.668  -3.967  -3.609  0.00  0.00    +0.280 C 
BRANCH  21  22
ATOM     22  C   LIG    1       -5.244  -4.030  -5.025  0.00  0.00    -0.010 C 
ATOM     23  C   LIG    1       -6.746  -3.743  -4.978  0.00  0.00    +0.020 C 
ATOM     24  C   LIG    1       -7.513  -4.946  -5.532  0.00  0.00    -0.020 C 
ATOM     25  C   LIG    1       -7.203  -6.181  -4.684  0.00  0.00    +0.010 C 
ATOM     26  C   LIG    1       -5.701  -6.469  -4.731  0.00  0.00    +0.010 C 
ATOM     27  C   LIG    1       -7.087  -5.200  -6.979  0.00  0.00    +0.010 C 
ATOM     28  C   LIG    1       -5.585  -5.487  -7.026  0.00  0.00    +0.010 C 
ATOM     29  C   LIG    1       -5.009  -5.424  -5.610  0.00  0.00    -0.010 C 
ENDBRANCH  21  22
ENDBRANCH   5  21
TORSDOF 4
