REMARK  Name = ZINCrD000000Cfpn.0
REMARK                            x       y       z     vdW  Elec       q    Type
REMARK                         _______ _______ _______ _____ _____    ______ ____
ROOT
ATOM      1  O   LIG    1        0.002  -0.004   0.002  0.00  0.00    -0.520 OA
ATOM      2  C   LIG    1       -0.014   1.212   0.009  0.00  0.00    +0.710 C 
ATOM      3  N   LIG    1       -1.191   1.870   0.018  0.00  0.00    -0.740 N 
ATOM      4  H   LIG    1       -1.204   2.839   0.023  0.00  0.00    +0.400 HD
ATOM      5  N   LIG    1        1.143   1.901   0.001  0.00  0.00    -0.650 N 
ATOM      6  H   LIG    1        1.130   2.871   0.007  0.00  0.00    +0.410 HD
ENDROOT
BRANCH   3   7
ATOM      7  C   LIG    1       -2.449   1.120   0.020  0.00  0.00    +0.270 C 
ATOM      8  C   LIG    1       -2.832   0.757  -1.419  0.00  0.00    -0.010 C 
ATOM      9  C   LIG    1       -4.186   0.044  -1.413  0.00  0.00    +0.230 C 
ATOM     10  O   LIG    1       -5.166   0.888  -0.805  0.00  0.00    -0.370 OA
ATOM     11  C   LIG    1       -4.885   1.222   0.555  0.00  0.00    +0.220 C 
ATOM     12  C   LIG    1       -3.558   1.982   0.630  0.00  0.00    +0.010 C 
BRANCH  11  13
ATOM     13  C   LIG    1       -5.992   2.087   1.100  0.00  0.00    -0.140 A 
ATOM     14  C   LIG    1       -6.385   1.973   2.424  0.00  0.00    +0.080 A 
ATOM     15  C   LIG    1       -7.408   2.791   2.881  0.00  0.00    -0.030 A 
ATOM     16  C   LIG    1       -7.997   3.685   2.008  0.00  0.00    +0.260 A 
ATOM     17  N   LIG    1       -7.597   3.766   0.754  0.00  0.00    -0.490 NA
ATOM     18  C   LIG    1       -6.624   3.009   0.286  0.00  0.00    +0.290 A 
ENDBRANCH  11  13
ENDBRANCH   3   7
BRANCH   5  19
ATOM     19  C   LIG    1        2.356   1.223  -0.014  0.00  0.00    +0.460 A 
ATOM     20  N   LIG    1        2.506  -0.079  -0.023  0.00  0.00    -0.460 NA
ATOM     21  C   LIG    1        3.816  -0.376  -0.037  0.00  0.00    +0.180 A 
ATOM     22  C   LIG    1        4.511   0.775  -0.038  0.00  0.00    +0.120 A 
ATOM     23  N   LIG    1        3.591   1.799  -0.028  0.00  0.00    -0.430 N 
BRANCH  23  24
ATOM     24  C   LIG    1        3.871   3.173  -0.030  0.00  0.00    +0.120 A 
ATOM     25  C   LIG    1        3.247   4.009  -0.945  0.00  0.00    +0.000 A 
ATOM     26  C   LIG    1        3.520   5.363  -0.940  0.00  0.00    +0.040 A 
ATOM     27  C   LIG    1        4.424   5.883  -0.032  0.00  0.00    +0.020 A 
ATOM     28  C   LIG    1        5.052   5.052   0.877  0.00  0.00    +0.040 A 
ATOM     29  C   LIG    1        4.778   3.698   0.881  0.00  0.00    +0.020 A 
ENDBRANCH  23  24
ENDBRANCH   5  19
TORSDOF 4
