REMARK  Name = ZINCkj000005ipgp.0
REMARK                            x       y       z     vdW  Elec       q    Type
REMARK                         _______ _______ _______ _____ _____    ______ ____
ROOT
ATOM      1  C   LIG    1       -4.277   6.627  -1.310  0.00  0.00    +0.520 C 
ATOM      2  N   LIG    1       -3.549   6.023  -0.349  0.00  0.00    -0.610 N 
ATOM      3  C   LIG    1       -4.041   5.990   1.030  0.00  0.00    +0.280 C 
ATOM      4  O   LIG    1       -3.869   6.654  -2.452  0.00  0.00    -0.530 OA
ENDROOT
BRANCH   2   5
ATOM      5  C   LIG    1       -2.267   5.399  -0.685  0.00  0.00    +0.250 C 
ATOM      6  C   LIG    1       -1.144   6.062   0.121  0.00  0.00    +0.020 C 
ATOM      7  C   LIG    1        0.195   5.565  -0.420  0.00  0.00    +0.080 C 
ATOM      8  C   LIG    1        0.213   4.060  -0.489  0.00  0.00    -0.080 A 
ATOM      9  C   LIG    1        1.447   3.432  -0.598  0.00  0.00    +0.000 A 
ATOM     10  C   LIG    1        1.530   2.057  -0.671  0.00  0.00    +0.010 A 
ATOM     11  C   LIG    1        0.376   1.297  -0.637  0.00  0.00    +0.000 A 
ATOM     12  C   LIG    1       -0.851   1.919  -0.534  0.00  0.00    +0.000 A 
ATOM     13  C   LIG    1       -0.936   3.303  -0.452  0.00  0.00    -0.080 A 
ATOM     14  C   LIG    1       -2.307   3.915  -0.326  0.00  0.00    +0.070 C 
ENDBRANCH   2   5
BRANCH   1  15
ATOM     15  C   LIG    1       -5.596   7.269  -0.965  0.00  0.00    +0.100 C 
BRANCH  15  16
ATOM     16  C   LIG    1       -6.212   7.878  -2.226  0.00  0.00    +0.170 C 
BRANCH  16  18
ATOM     17  C   LIG    1       -6.263   7.171  -4.515  0.00  0.00    +0.220 C 
ATOM     18  O   LIG    1       -6.529   6.837  -3.152  0.00  0.00    -0.360 OA
ENDBRANCH  16  18
BRANCH  16  19
ATOM     19  C   LIG    1       -7.487   8.637  -1.855  0.00  0.00    +0.270 C 
BRANCH  19  20
ATOM     20  N   LIG    1       -8.008   9.330  -3.041  0.00  0.00    -0.640 N 
ATOM     21  H   LIG    1       -8.789   9.910  -2.776  0.00  0.00    +0.440 HD
ATOM     22  H   LIG    1       -8.310   8.649  -3.722  0.00  0.00    +0.440 HD
ATOM     23  H   LIG    1       -7.281   9.905  -3.440  0.00  0.00    +0.430 HD
ENDBRANCH  19  20
ENDBRANCH  16  19
ENDBRANCH  15  16
ENDBRANCH   1  15
TORSDOF 6
