REMARK  Name = ZINCpe000000TjaF.0
REMARK                            x       y       z     vdW  Elec       q    Type
REMARK                         _______ _______ _______ _____ _____    ______ ____
ROOT
ATOM      1  N   LIG    1       -1.424   3.789   3.905  0.00  0.00    -0.510 N 
ATOM      2  C   LIG    1       -2.345   3.628   4.874  0.00  0.00    +0.710 A 
ATOM      3  N   LIG    1       -3.133   2.540   4.924  0.00  0.00    -0.650 N 
ATOM      4  H   LIG    1       -3.787   2.457   5.635  0.00  0.00    +0.440 HD
ATOM      5  C   LIG    1       -3.029   1.563   3.999  0.00  0.00    +0.600 A 
ATOM      6  C   LIG    1       -2.075   1.691   2.966  0.00  0.00    -0.160 A 
ATOM      7  N   LIG    1       -1.705   0.914   1.887  0.00  0.00    -0.410 N 
ATOM      8  C   LIG    1       -2.276  -0.381   1.509  0.00  0.00    +0.350 C 
ATOM      9  C   LIG    1       -0.718   1.572   1.248  0.00  0.00    +0.300 A 
ATOM     10  N   LIG    1       -0.461   2.694   1.870  0.00  0.00    -0.470 NA
ATOM     11  O   LIG    1       -3.749   0.583   4.055  0.00  0.00    -0.510 OA
ATOM     12  O   LIG    1       -2.467   4.488   5.724  0.00  0.00    -0.530 OA
ATOM     13  C   LIG    1       -1.268   2.821   2.927  0.00  0.00    +0.320 A 
ENDROOT
BRANCH   1  14
ATOM     14  C   LIG    1       -0.585   4.990   3.887  0.00  0.00    +0.320 C 
BRANCH  14  15
ATOM     15  C   LIG    1        0.686   4.737   4.700  0.00  0.00    +0.010 C 
BRANCH  15  17
ATOM     16  C   LIG    1        2.833   5.739   5.494  0.00  0.00    +0.010 C 
ATOM     17  C   LIG    1        1.562   5.992   4.681  0.00  0.00    +0.020 C 
ENDBRANCH  15  17
ENDBRANCH  14  15
ENDBRANCH   1  14
BRANCH   9  18
ATOM     18  C   LIG    1       -0.013   1.086   0.008  0.00  0.00    +0.310 C 
BRANCH  18  19
ATOM     19  N   LIG    1       -0.723   1.572  -1.182  0.00  0.00    -0.530 NA
ATOM     20  C   LIG    1       -2.061   0.974  -1.278  0.00  0.00    +0.170 C 
ATOM     21  C   LIG    1       -2.824   1.611  -2.442  0.00  0.00    +0.010 C 
ATOM     22  C   LIG    1       -2.047   1.380  -3.741  0.00  0.00    +0.150 C 
ATOM     23  C   LIG    1       -0.641   1.970  -3.598  0.00  0.00    +0.050 C 
ATOM     24  C   LIG    1        0.058   1.323  -2.400  0.00  0.00    +0.190 C 
BRANCH  22  25
ATOM     25  O   LIG    1       -2.726   2.021  -4.823  0.00  0.00    -0.380 OA
ATOM     26  C   LIG    1       -3.682   1.189  -5.484  0.00  0.00    +0.200 C 
ENDBRANCH  22  25
ENDBRANCH  18  19
ENDBRANCH   9  18
TORSDOF 6
