REMARK  Name = ZINCpk00000K8y5M.0
REMARK                            x       y       z     vdW  Elec       q    Type
REMARK                         _______ _______ _______ _____ _____    ______ ____
ROOT
ATOM      1  S   LIG    1       -2.282   2.378  -5.535  0.00  0.00    +2.680 S 
ATOM      2  O   LIG    1       -1.750   1.531  -6.545  0.00  0.00    -1.010 OA
ATOM      3  O   LIG    1       -2.046   3.779  -5.492  0.00  0.00    -1.030 OA
ENDROOT
BRANCH   1   7
ATOM      4  C   LIG    1       -7.455   3.296  -5.665  0.00  0.00    +0.360 C 
ATOM      5  N   LIG    1       -6.172   2.588  -5.633  0.00  0.00    -0.370 N 
ATOM      6  C   LIG    1       -4.951   3.161  -5.596  0.00  0.00    +0.350 A 
ATOM      7  C   LIG    1       -4.030   2.169  -5.580  0.00  0.00    -0.760 A 
ATOM      8  C   LIG    1       -4.713   0.949  -5.599  0.00  0.00    +0.170 A 
ATOM      9  N   LIG    1       -5.997   1.199  -5.631  0.00  0.00    -0.300 NA
BRANCH   8  10
ATOM     10  C   LIG    1       -4.080  -0.419  -5.585  0.00  0.00    +0.080 C 
ATOM     11  C   LIG    1       -4.524  -1.220  -6.825  0.00  0.00    +0.020 C 
ATOM     12  C   LIG    1       -4.681  -2.671  -6.303  0.00  0.00    +0.020 C 
ATOM     13  C   LIG    1       -5.279  -2.464  -4.890  0.00  0.00    +0.000 C 
ATOM     14  C   LIG    1       -4.559  -1.209  -4.354  0.00  0.00    +0.020 C 
ENDBRANCH   8  10
ENDBRANCH   1   7
BRANCH   1  15
ATOM     15  N   LIG    1       -1.752   1.771  -4.088  0.00  0.00    -1.120 NA
ATOM     16  C   LIG    1       -0.440   1.801  -3.784  0.00  0.00    +0.520 C 
ATOM     17  O   LIG    1        0.354   2.273  -4.570  0.00  0.00    -0.630 OA
BRANCH  16  18
ATOM     18  C   LIG    1        0.042   1.248  -2.468  0.00  0.00    +0.010 C 
ATOM     19  C   LIG    1        1.562   1.405  -2.375  0.00  0.00    +0.070 C 
ATOM     20  C   LIG    1        2.022   0.977  -0.972  0.00  0.00    +0.190 C 
ATOM     21  C   LIG    1        1.351  -0.378  -0.647  0.00  0.00    +0.060 C 
ATOM     22  C   LIG    1        0.002  -0.004   0.002  0.00  0.00    +0.070 C 
ATOM     23  C   LIG    1       -0.019   1.542   0.011  0.00  0.00    +0.180 C 
ATOM     24  N   LIG    1        1.417   1.927  -0.001  0.00  0.00    -0.520 N 
ATOM     25  H   LIG    1        1.825   1.807   0.914  0.00  0.00    +0.420 HD
ATOM     26  H   LIG    1        1.528   2.878  -0.319  0.00  0.00    +0.430 HD
ATOM     27  C   LIG    1       -0.627   2.011  -1.321  0.00  0.00    +0.090 C 
ENDBRANCH  16  18
ENDBRANCH   1  15
TORSDOF 4
