REMARK  Name = ZINCrH00000No4QI.0
REMARK                            x       y       z     vdW  Elec       q    Type
REMARK                         _______ _______ _______ _____ _____    ______ ____
ROOT
ATOM      1  N   LIG    1       -0.520   3.677  -1.039  0.00  0.00    -0.570 N 
ENDROOT
BRANCH   1   2
ATOM      2  C   LIG    1       -1.699   4.248  -0.605  0.00  0.00    +0.380 A 
ATOM      3  N   LIG    1       -1.865   5.504  -0.367  0.00  0.00    -0.540 NA
ATOM      4  C   LIG    1       -3.079   5.909   0.052  0.00  0.00    +0.090 A 
ATOM      5  C   LIG    1       -3.519   7.210   0.377  0.00  0.00    +0.100 A 
ATOM      6  C   LIG    1       -4.823   7.386   0.788  0.00  0.00    +0.000 A 
ATOM      7  C   LIG    1       -5.668   6.293   0.874  0.00  0.00    +0.280 A 
ATOM      8  N   LIG    1       -5.243   5.086   0.568  0.00  0.00    -0.440 NA
ATOM      9  C   LIG    1       -3.998   4.859   0.166  0.00  0.00    +0.000 A 
ATOM     10  S   LIG    1       -3.189   3.365  -0.304  0.00  0.00    +0.100 S 
ENDBRANCH   1   2
BRANCH   1  11
ATOM     11  C   LIG    1        0.660   4.516  -1.262  0.00  0.00    +0.320 C 
BRANCH  11  12
ATOM     12  C   LIG    1        0.667   5.013  -2.709  0.00  0.00    +0.120 C 
BRANCH  12  18
ATOM     13  C   LIG    1        0.834   8.120  -2.533  0.00  0.00    +0.370 C 
ATOM     14  N   LIG    1        1.946   7.225  -2.861  0.00  0.00    -0.290 N 
ATOM     15  N   LIG    1        3.153   7.586  -3.122  0.00  0.00    -0.080 NA
ATOM     16  N   LIG    1        3.881   6.555  -3.373  0.00  0.00    -0.270 NA
ATOM     17  C   LIG    1        3.124   5.456  -3.271  0.00  0.00    +0.150 A 
ATOM     18  C   LIG    1        1.881   5.875  -2.939  0.00  0.00    -0.020 A 
ENDBRANCH  12  18
ENDBRANCH  11  12
ENDBRANCH   1  11
BRANCH   1  19
ATOM     19  C   LIG    1       -0.448   2.233  -1.276  0.00  0.00    +0.340 C 
BRANCH  19  20
ATOM     20  C   LIG    1       -0.019   1.526   0.010  0.00  0.00    -0.060 C 
ATOM     21  C   LIG    1        1.317   0.779  -0.006  0.00  0.00    +0.040 C 
ATOM     22  C   LIG    1        0.002  -0.004   0.002  0.00  0.00    +0.040 C 
BRANCH  22  23
ATOM     23  C   LIG    1       -0.378  -0.712   1.277  0.00  0.00    -0.070 A 
ATOM     24  C   LIG    1        0.294  -0.546   2.417  0.00  0.00    -0.060 A 
ATOM     25  S   LIG    1       -0.439  -1.526   3.681  0.00  0.00    +0.100 S 
ATOM     26  C   LIG    1       -1.647  -2.130   2.554  0.00  0.00    -0.040 A 
ATOM     27  C   LIG    1       -1.447  -1.589   1.352  0.00  0.00    +0.010 A 
ENDBRANCH  22  23
ENDBRANCH  19  20
ENDBRANCH   1  19
TORSDOF 7
