REMARK  Name = ZINCrg00000fSol3.0
REMARK                            x       y       z     vdW  Elec       q    Type
REMARK                         _______ _______ _______ _____ _____    ______ ____
ROOT
ATOM      1  C   LIG    1       -3.343   1.596  -1.307  0.00  0.00    +0.610 C 
ATOM      2  N   LIG    1       -2.179   1.928  -0.715  0.00  0.00    -0.620 N 
ATOM      3  C   LIG    1       -1.981   2.583   0.599  0.00  0.00    +0.270 C 
ATOM      4  C   LIG    1       -0.759   1.866   1.212  0.00  0.00    +0.010 C 
ATOM      5  C   LIG    1        0.016   1.297   0.005  0.00  0.00    +0.080 C 
ATOM      6  C   LIG    1       -0.803   1.721  -1.233  0.00  0.00    +0.290 C 
ATOM      7  O   LIG    1       -3.344   1.140  -2.434  0.00  0.00    -0.520 OA
ENDROOT
BRANCH   1  13
ATOM      8  C   LIG    1       -7.142   4.466   0.267  0.00  0.00    +0.170 C 
ATOM      9  C   LIG    1       -6.441   3.135   0.176  0.00  0.00    +0.060 A 
ATOM     10  N   LIG    1       -6.965   2.087   0.753  0.00  0.00    -0.210 NA
ATOM     11  N   LIG    1       -6.423   0.926   0.716  0.00  0.00    -0.340 N 
ATOM     12  C   LIG    1       -5.261   0.702   0.072  0.00  0.00    +0.500 A 
ATOM     13  C   LIG    1       -4.616   1.786  -0.587  0.00  0.00    -0.210 A 
ATOM     14  O   LIG    1       -4.769  -0.414   0.054  0.00  0.00    -0.520 OA
ATOM     15  C   LIG    1       -7.086  -0.191   1.394  0.00  0.00    +0.360 C 
ATOM     16  C   LIG    1       -5.231   3.034  -0.521  0.00  0.00    +0.010 A 
ATOM     17  C   LIG    1       -4.615   4.238  -1.185  0.00  0.00    +0.140 C 
ENDBRANCH   1  13
BRANCH   5  18
ATOM     18  C   LIG    1        1.400   1.890  -0.055  0.00  0.00    -0.230 A 
ATOM     19  C   LIG    1        2.564   1.201  -0.016  0.00  0.00    +0.240 A 
ATOM     20  N   LIG    1        3.573   2.093  -0.097  0.00  0.00    -0.360 N 
ATOM     21  N   LIG    1        3.012   3.373  -0.179  0.00  0.00    -0.290 NA
ATOM     22  C   LIG    1        1.709   3.251  -0.154  0.00  0.00    +0.240 A 
BRANCH  20  23
ATOM     23  C   LIG    1        5.004   1.778  -0.093  0.00  0.00    +0.250 C 
ATOM     24  C   LIG    1        5.238   0.459  -0.832  0.00  0.00    +0.050 C 
ATOM     25  C   LIG    1        5.494   1.647   1.351  0.00  0.00    +0.040 C 
ENDBRANCH  20  23
ENDBRANCH   5  18
BRANCH   4  26
ATOM     26  C   LIG    1       -1.215   0.732   2.133  0.00  0.00    +0.180 C 
BRANCH  26  27
ATOM     27  O   LIG    1       -1.827   1.284   3.300  0.00  0.00    -0.570 OA
ATOM     28  H   LIG    1       -2.141   0.621   3.931  0.00  0.00    +0.380 HD
ENDBRANCH  26  27
ENDBRANCH   4  26
TORSDOF 5
