REMARK  Name = ZINCqH0000004HrS.0
REMARK                            x       y       z     vdW  Elec       q    Type
REMARK                         _______ _______ _______ _____ _____    ______ ____
ROOT
ATOM      1  C   LIG    1       -1.108   7.534  -0.252  0.00  0.00    +0.040 C 
ENDROOT
BRANCH   1   4
ATOM      2  N   LIG    1       -0.014   5.351   0.143  0.00  0.00    -0.670 N 
ATOM      3  H   LIG    1        0.766   5.833   0.459  0.00  0.00    +0.410 HD
ATOM      4  C   LIG    1       -1.120   6.028  -0.226  0.00  0.00    +0.520 C 
ATOM      5  O   LIG    1       -2.125   5.424  -0.537  0.00  0.00    -0.520 OA
BRANCH   2  12
ATOM      6  C   LIG    1        0.988   3.313  -0.678  0.00  0.00    -0.090 A 
ATOM      7  C   LIG    1        1.008   1.934  -0.749  0.00  0.00    +0.010 A 
ATOM      8  C   LIG    1        0.055   1.192  -0.076  0.00  0.00    +0.020 A 
ATOM      9  C   LIG    1       -0.925   1.827   0.664  0.00  0.00    +0.010 A 
ATOM     10  C   LIG    1       -0.947   3.206   0.743  0.00  0.00    -0.070 A 
ATOM     11  C   LIG    1       -2.012   3.898   1.554  0.00  0.00    +0.090 C 
ATOM     12  C   LIG    1        0.009   3.954   0.069  0.00  0.00    +0.130 A 
BRANCH   6  14
ATOM     13  C   LIG    1        3.179   4.453  -0.459  0.00  0.00    +0.020 C 
ATOM     14  C   LIG    1        2.029   4.120  -1.411  0.00  0.00    +0.070 C 
ENDBRANCH   6  14
ENDBRANCH   2  12
ENDBRANCH   1   4
BRANCH   1  15
ATOM     15  C   LIG    1       -2.477   8.047  -0.702  0.00  0.00    +0.320 C 
BRANCH  15  16
ATOM     16  N   LIG    1       -2.466   9.512  -0.727  0.00  0.00    -0.550 N 
ATOM     17  C   LIG    1       -2.821  10.220   0.368  0.00  0.00    +0.490 C 
ATOM     18  C   LIG    1       -2.835  11.726   0.313  0.00  0.00    +0.180 C 
ATOM     19  O   LIG    1       -1.835  12.185  -0.601  0.00  0.00    -0.300 OA
ATOM     20  C   LIG    1       -1.774  11.556  -1.806  0.00  0.00    +0.080 A 
ATOM     21  C   LIG    1       -1.401  12.248  -2.944  0.00  0.00    +0.030 A 
ATOM     22  C   LIG    1       -1.345  11.593  -4.161  0.00  0.00    +0.030 A 
ATOM     23  C   LIG    1       -1.661  10.249  -4.244  0.00  0.00    +0.020 A 
ATOM     24  C   LIG    1       -2.034   9.551  -3.110  0.00  0.00    +0.000 A 
ATOM     25  C   LIG    1       -2.549  12.292   1.705  0.00  0.00    +0.100 C 
ATOM     26  O   LIG    1       -3.125   9.645   1.392  0.00  0.00    -0.500 OA
ATOM     27  C   LIG    1       -2.091  10.201  -1.889  0.00  0.00    +0.090 A 
ENDBRANCH  15  16
ENDBRANCH   1  15
TORSDOF 5
