REMARK  Name = ZINCqH0000033nhc.2
REMARK                            x       y       z     vdW  Elec       q    Type
REMARK                         _______ _______ _______ _____ _____    ______ ____
ROOT
ATOM      1  C   LIG    1        0.717  -1.603  -1.451  0.00  0.00    +0.330 C 
ENDROOT
BRANCH   1   2
ATOM      2  C   LIG    1        1.735  -1.889  -2.525  0.00  0.00    +0.270 A 
ATOM      3  N   LIG    1        3.014  -1.999  -2.326  0.00  0.00    -0.470 NA
ATOM      4  C   LIG    1        3.622  -2.263  -3.514  0.00  0.00    +0.020 A 
ATOM      5  C   LIG    1        4.947  -2.475  -3.895  0.00  0.00    +0.150 A 
ATOM      6  C   LIG    1        5.248  -2.718  -5.217  0.00  0.00    -0.180 A 
ATOM      7  C   LIG    1        4.242  -2.752  -6.171  0.00  0.00    +0.110 A 
ATOM      8  C   LIG    1        2.927  -2.544  -5.809  0.00  0.00    +0.060 A 
ATOM      9  C   LIG    1        2.606  -2.299  -4.483  0.00  0.00    +0.040 A 
ATOM     10  O   LIG    1        1.450  -2.062  -3.826  0.00  0.00    -0.200 OA
BRANCH   6  11
ATOM     11  C   LIG    1        6.679  -2.947  -5.630  0.00  0.00    +0.510 C 
ATOM     12  F   LIG    1        7.185  -4.063  -4.955  0.00  0.00    -0.170 F 
ATOM     13  F   LIG    1        7.443  -1.821  -5.309  0.00  0.00    -0.170 F 
ATOM     14  F   LIG    1        6.736  -3.172  -7.010  0.00  0.00    -0.170 F 
ENDBRANCH   6  11
ENDBRANCH   1   2
BRANCH   1  20
ATOM     15  C   LIG    1       -0.365   0.170  -0.208  0.00  0.00    +0.170 C 
ATOM     16  C   LIG    1       -0.637   1.676  -0.190  0.00  0.00    +0.040 C 
ATOM     17  C   LIG    1        0.686   2.428  -0.024  0.00  0.00    +0.010 C 
ATOM     18  C   LIG    1        1.631   2.039  -1.165  0.00  0.00    +0.020 C 
ATOM     19  C   LIG    1        1.838   0.523  -1.155  0.00  0.00    +0.170 C 
ATOM     20  N   LIG    1        0.543  -0.150  -1.317  0.00  0.00    -0.530 NA
BRANCH  15  21
ATOM     21  C   LIG    1       -1.683  -0.584  -0.394  0.00  0.00    +0.060 C 
BRANCH  21  24
ATOM     22  N   LIG    1       -3.820  -0.843   0.825  0.00  0.00    -0.730 N 
ATOM     23  H   LIG    1       -4.167  -1.316   0.052  0.00  0.00    +0.400 HD
ATOM     24  C   LIG    1       -2.557  -0.374   0.816  0.00  0.00    +0.510 C 
ATOM     25  O   LIG    1       -2.123   0.217   1.782  0.00  0.00    -0.530 OA
BRANCH  22  27
ATOM     26  C   LIG    1       -6.044  -1.263   1.752  0.00  0.00    +0.030 C 
ATOM     27  C   LIG    1       -4.669  -0.639   2.001  0.00  0.00    +0.250 C 
ENDBRANCH  22  27
ENDBRANCH  21  24
ENDBRANCH  15  21
ENDBRANCH   1  20
TORSDOF 6
