REMARK  Name = ZINCrH00000tj114.0
REMARK                            x       y       z     vdW  Elec       q    Type
REMARK                         _______ _______ _______ _____ _____    ______ ____
ROOT
ATOM      1  S   LIG    1        0.096   5.873   0.034  0.00  0.00    +0.060 S 
ENDROOT
BRANCH   1   2
ATOM      2  C   LIG    1        0.038   4.112   0.025  0.00  0.00    +0.390 A 
ATOM      3  N   LIG    1        1.170   3.451   0.010  0.00  0.00    -0.530 NA
ATOM      4  C   LIG    1        1.204   2.105   0.002  0.00  0.00    +0.380 A 
ATOM      5  N   LIG    1        2.358   1.441  -0.012  0.00  0.00    -0.480 NA
ATOM      6  C   LIG    1        2.393   0.125  -0.020  0.00  0.00    +0.200 A 
ATOM      7  C   LIG    1        1.234  -0.635  -0.013  0.00  0.00    -0.060 A 
ATOM      8  C   LIG    1        0.002  -0.004   0.002  0.00  0.00    +0.050 A 
ATOM      9  C   LIG    1       -1.278  -0.799   0.009  0.00  0.00    +0.110 C 
ATOM     10  C   LIG    1        3.728  -0.573  -0.036  0.00  0.00    +0.140 C 
ATOM     11  C   LIG    1       -0.017   1.390   0.010  0.00  0.00    -0.270 A 
ATOM     12  C   LIG    1       -1.272   2.152   0.032  0.00  0.00    +0.560 A 
ATOM     13  O   LIG    1       -2.352   1.590   0.044  0.00  0.00    -0.500 OA
ATOM     14  N   LIG    1       -1.183   3.502   0.034  0.00  0.00    -0.640 N 
ATOM     15  H   LIG    1       -1.991   4.040   0.045  0.00  0.00    +0.420 HD
ENDBRANCH   1   2
BRANCH   1  16
ATOM     16  C   LIG    1        1.887   6.129   0.018  0.00  0.00    +0.130 C 
BRANCH  16  17
ATOM     17  C   LIG    1        2.184   7.607   0.024  0.00  0.00    +0.450 C 
ATOM     18  O   LIG    1        1.273   8.408   0.037  0.00  0.00    -0.460 OA
BRANCH  17  22
ATOM     19  N   LIG    1        5.353   9.381   0.003  0.00  0.00    -0.430 N 
ATOM     20  C   LIG    1        5.824   8.100  -0.009  0.00  0.00    +0.010 A 
ATOM     21  C   LIG    1        4.785   7.248  -0.004  0.00  0.00    +0.000 A 
ATOM     22  C   LIG    1        3.571   8.075   0.013  0.00  0.00    -0.270 A 
ATOM     23  C   LIG    1        7.278   7.705  -0.027  0.00  0.00    +0.120 C 
ATOM     24  C   LIG    1        4.008   9.387   0.010  0.00  0.00    +0.120 A 
ATOM     25  C   LIG    1        3.129  10.611   0.018  0.00  0.00    +0.150 C 
BRANCH  19  26
ATOM     26  C   LIG    1        6.193  10.581   0.002  0.00  0.00    +0.280 C 
BRANCH  26  28
ATOM     27  C   LIG    1        7.350  12.260  -1.442  0.00  0.00    +0.030 C 
ATOM     28  C   LIG    1        6.472  11.007  -1.441  0.00  0.00    +0.000 C 
ENDBRANCH  26  28
ENDBRANCH  19  26
ENDBRANCH  17  22
ENDBRANCH  16  17
ENDBRANCH   1  16
TORSDOF 6
