REMARK  Name = ZINCqH0000035rJ7.0
REMARK                            x       y       z     vdW  Elec       q    Type
REMARK                         _______ _______ _______ _____ _____    ______ ____
ROOT
ATOM      1  C   LIG    1        0.509  -1.935  -1.382  0.00  0.00    +0.240 C 
ATOM      2  C   LIG    1        1.831  -2.422  -2.026  0.00  0.00    +0.040 C 
ATOM      3  C   LIG    1        2.877  -1.530  -1.308  0.00  0.00    +0.010 C 
ATOM      4  C   LIG    1        2.134  -0.188  -1.141  0.00  0.00    +0.180 C 
ATOM      5  N   LIG    1        0.690  -0.478  -1.207  0.00  0.00    -0.520 NA
ENDROOT
BRANCH   1   9
ATOM      6  C   LIG    1       -2.060  -2.051  -3.974  0.00  0.00    -0.020 A 
ATOM      7  C   LIG    1       -2.469  -3.088  -3.221  0.00  0.00    -0.030 A 
ATOM      8  C   LIG    1       -1.560  -3.196  -2.144  0.00  0.00    -0.070 A 
ATOM      9  C   LIG    1       -0.655  -2.213  -2.298  0.00  0.00    +0.020 A 
ATOM     10  O   LIG    1       -0.961  -1.524  -3.410  0.00  0.00    -0.150 OA
BRANCH   6  11
ATOM     11  C   LIG    1       -2.723  -1.562  -5.236  0.00  0.00    +0.290 C 
BRANCH  11  13
ATOM     12  C   LIG    1       -4.395  -0.044  -6.040  0.00  0.00    +0.210 C 
ATOM     13  O   LIG    1       -3.704  -0.576  -4.908  0.00  0.00    -0.390 OA
ENDBRANCH  11  13
ENDBRANCH   6  11
ENDBRANCH   1   9
BRANCH   5  14
ATOM     14  C   LIG    1        0.002  -0.004   0.002  0.00  0.00    +0.180 C 
BRANCH  14  15
ATOM     15  C   LIG    1       -0.019   1.526   0.010  0.00  0.00    +0.060 C 
BRANCH  15  16
ATOM     16  C   LIG    1       -0.735   2.019   1.269  0.00  0.00    -0.330 C 
BRANCH  16  17
ATOM     17  S   LIG    1       -0.759   3.833   1.279  0.00  0.00    +2.500 S 
ATOM     18  O   LIG    1       -1.602   4.326   0.247  0.00  0.00    -0.930 OA
ATOM     19  O   LIG    1        0.552   4.348   1.463  0.00  0.00    -0.930 OA
BRANCH  17  20
ATOM     20  C   LIG    1       -1.604   4.253   2.767  0.00  0.00    -0.670 A 
ATOM     21  C   LIG    1       -2.977   4.412   2.761  0.00  0.00    +0.120 A 
ATOM     22  C   LIG    1       -3.641   4.738   3.929  0.00  0.00    -0.010 A 
ATOM     23  C   LIG    1       -2.930   4.912   5.102  0.00  0.00    -0.030 A 
ATOM     24  C   LIG    1       -1.556   4.758   5.107  0.00  0.00    -0.010 A 
ATOM     25  C   LIG    1       -3.653   5.271   6.375  0.00  0.00    +0.090 C 
ATOM     26  C   LIG    1       -0.893   4.429   3.940  0.00  0.00    +0.120 A 
ENDBRANCH  17  20
ENDBRANCH  16  17
ENDBRANCH  15  16
ENDBRANCH  14  15
ENDBRANCH   5  14
TORSDOF 8
