REMARK  Name = ZINCnE000001PyQK.0
REMARK                            x       y       z     vdW  Elec       q    Type
REMARK                         _______ _______ _______ _____ _____    ______ ____
ROOT
ATOM      1  N   LIG    1       -2.670   4.364   4.857  0.00  0.00    -0.680 NA
ATOM      2  C   LIG    1       -3.768   5.067   4.778  0.00  0.00    +0.440 A 
ATOM      3  N   LIG    1       -5.037   4.580   4.613  0.00  0.00    -0.530 NA
ATOM      4  N   LIG    1       -5.893   5.692   4.587  0.00  0.00    -0.280 NA
ATOM      5  C   LIG    1       -5.165   6.761   4.720  0.00  0.00    +0.160 A 
ATOM      6  O   LIG    1       -3.865   6.411   4.839  0.00  0.00    -0.290 OA
ENDROOT
BRANCH   5   7
ATOM      7  C   LIG    1       -5.681   8.147   4.738  0.00  0.00    -0.080 A 
ATOM      8  C   LIG    1       -6.976   8.543   4.617  0.00  0.00    +0.020 A 
ATOM      9  O   LIG    1       -7.019   9.881   4.688  0.00  0.00    -0.180 OA
ATOM     10  C   LIG    1       -5.787  10.389   4.845  0.00  0.00    +0.150 A 
ATOM     11  C   LIG    1       -8.163   7.632   4.436  0.00  0.00    +0.190 C 
ATOM     12  C   LIG    1       -4.899   9.382   4.885  0.00  0.00    -0.040 A 
ENDBRANCH   5   7
BRANCH   1  13
ATOM     13  C   LIG    1       -2.729   2.902   4.774  0.00  0.00    +0.260 C 
BRANCH  13  18
ATOM     14  C   LIG    1       -0.001   1.135  -0.004  0.00  0.00    +0.110 C 
ATOM     15  C   LIG    1       -0.713   1.595   1.242  0.00  0.00    -0.040 A 
ATOM     16  C   LIG    1       -0.014   1.730   2.427  0.00  0.00    +0.010 A 
ATOM     17  C   LIG    1       -0.666   2.153   3.570  0.00  0.00    +0.090 A 
ATOM     18  C   LIG    1       -2.017   2.441   3.528  0.00  0.00    -0.060 A 
ATOM     19  C   LIG    1       -2.716   2.306   2.343  0.00  0.00    +0.110 A 
ATOM     20  C   LIG    1       -2.063   1.888   1.199  0.00  0.00    -0.050 A 
BRANCH  20  21
ATOM     21  N   LIG    1       -2.810   1.749  -0.071  0.00  0.00    +0.040 N 
ATOM     22  O   LIG    1       -2.265   1.271  -1.050  0.00  0.00    -0.170 OA
ATOM     23  O   LIG    1       -3.971   2.113  -0.138  0.00  0.00    -0.170 OA
ENDBRANCH  20  21
ENDBRANCH  13  18
ENDBRANCH   1  13
TORSDOF 4
