REMARK  Name = ZINCqH0000007pmG.0
REMARK                            x       y       z     vdW  Elec       q    Type
REMARK                         _______ _______ _______ _____ _____    ______ ____
ROOT
ATOM      1  N   LIG    1       -0.011   0.966   0.012  0.00  0.00    -0.740 N 
ATOM      2  H   LIG    1        0.002  -0.004   0.011  0.00  0.00    +0.400 HD
ATOM      3  C   LIG    1        1.147   1.655   0.000  0.00  0.00    +0.710 C 
ATOM      4  N   LIG    1        2.322   1.001   0.087  0.00  0.00    -0.630 N 
ATOM      5  C   LIG    1        2.371  -0.470   0.087  0.00  0.00    +0.230 C 
ATOM      6  C   LIG    1        3.397  -0.915  -0.968  0.00  0.00    +0.220 C 
ATOM      7  O   LIG    1        4.634  -0.238  -0.734  0.00  0.00    -0.370 OA
ATOM      8  C   LIG    1        4.558   1.183  -0.864  0.00  0.00    +0.150 C 
ATOM      9  C   LIG    1        3.592   1.736   0.191  0.00  0.00    +0.290 C 
ATOM     10  O   LIG    1        1.132   2.868  -0.089  0.00  0.00    -0.570 OA
ENDROOT
BRANCH   8  11
ATOM     11  C   LIG    1        5.946   1.792  -0.655  0.00  0.00    -0.060 C 
ATOM     12  C   LIG    1        5.861   3.313  -0.789  0.00  0.00    +0.040 C 
ATOM     13  C   LIG    1        6.909   1.240  -1.708  0.00  0.00    +0.030 C 
ATOM     14  C   LIG    1        6.456   1.431   0.742  0.00  0.00    +0.040 C 
ENDBRANCH   8  11
BRANCH   1  15
ATOM     15  C   LIG    1       -1.290   1.682   0.019  0.00  0.00    +0.320 C 
BRANCH  15  19
ATOM     16  C   LIG    1       -4.307  -0.810   1.738  0.00  0.00    +0.150 A 
ATOM     17  C   LIG    1       -4.275   0.546   2.031  0.00  0.00    -0.010 A 
ATOM     18  C   LIG    1       -3.298   1.349   1.474  0.00  0.00    +0.100 A 
ATOM     19  C   LIG    1       -2.353   0.803   0.625  0.00  0.00    -0.160 A 
ATOM     20  C   LIG    1       -2.387  -0.546   0.327  0.00  0.00    +0.080 A 
ATOM     21  C   LIG    1       -3.357  -1.355   0.885  0.00  0.00    -0.070 A 
BRANCH  16  23
ATOM     22  C   LIG    1       -5.237  -2.988   1.938  0.00  0.00    +0.240 C 
ATOM     23  O   LIG    1       -5.266  -1.602   2.285  0.00  0.00    -0.310 OA
ENDBRANCH  16  23
ENDBRANCH  15  19
BRANCH  15  24
ATOM     24  C   LIG    1       -1.681   2.041  -1.416  0.00  0.00    +0.440 C 
ATOM     25  F   LIG    1       -0.694   2.857  -1.978  0.00  0.00    -0.170 F 
ATOM     26  F   LIG    1       -2.902   2.724  -1.409  0.00  0.00    -0.180 F 
ATOM     27  F   LIG    1       -1.806   0.871  -2.172  0.00  0.00    -0.180 F 
ENDBRANCH  15  24
ENDBRANCH   1  15
TORSDOF 5
