REMARK  Name = ZINCrD000000fQdl.0
REMARK                            x       y       z     vdW  Elec       q    Type
REMARK                         _______ _______ _______ _____ _____    ______ ____
ROOT
ATOM      1  C   LIG    1        4.836   1.071  -0.243  0.00  0.00    -0.160 A 
ATOM      2  C   LIG    1        4.863  -0.325  -0.257  0.00  0.00    +0.110 A 
ATOM      3  C   LIG    1        6.066  -0.987  -0.382  0.00  0.00    +0.000 A 
ATOM      4  C   LIG    1        7.246  -0.272  -0.483  0.00  0.00    +0.160 A 
ATOM      5  C   LIG    1        7.228   1.111  -0.465  0.00  0.00    -0.680 A 
ATOM      6  C   LIG    1        6.031   1.787  -0.345  0.00  0.00    +0.190 A 
ENDROOT
BRANCH   1   9
ATOM      7  N   LIG    1        2.399   1.094  -0.017  0.00  0.00    -0.670 N 
ATOM      8  H   LIG    1        2.420   0.126   0.045  0.00  0.00    +0.410 HD
ATOM      9  C   LIG    1        3.550   1.788  -0.115  0.00  0.00    +0.560 C 
ATOM     10  O   LIG    1        3.531   3.003  -0.098  0.00  0.00    -0.500 OA
BRANCH   7  14
ATOM     11  C   LIG    1       -1.239   3.101   0.023  0.00  0.00    -0.190 A 
ATOM     12  C   LIG    1       -0.167   3.605  -0.724  0.00  0.00    +0.090 A 
ATOM     13  C   LIG    1        1.026   2.939  -0.738  0.00  0.00    +0.000 A 
ATOM     14  C   LIG    1        1.180   1.766  -0.004  0.00  0.00    +0.180 A 
ATOM     15  C   LIG    1        0.118   1.264   0.744  0.00  0.00    -0.030 A 
ATOM     16  C   LIG    1       -1.080   1.921   0.761  0.00  0.00    +0.100 A 
BRANCH  11  18
ATOM     17  C   LIG    1       -2.734   5.008  -0.853  0.00  0.00    +0.070 C 
ATOM     18  C   LIG    1       -2.525   3.810   0.037  0.00  0.00    +0.400 C 
ATOM     19  O   LIG    1       -3.418   3.432   0.765  0.00  0.00    -0.460 OA
ENDBRANCH  11  18
ENDBRANCH   7  14
ENDBRANCH   1   9
BRANCH   5  20
ATOM     20  S   LIG    1        8.736   2.013  -0.594  0.00  0.00    +2.690 S 
ATOM     21  O   LIG    1        8.394   3.298  -1.094  0.00  0.00    -0.950 OA
ATOM     22  O   LIG    1        9.665   1.151  -1.237  0.00  0.00    -0.950 OA
BRANCH  20  23
ATOM     23  N   LIG    1        9.302   2.245   0.945  0.00  0.00    -0.990 NA
ATOM     24  C   LIG    1        8.920   3.439   1.711  0.00  0.00    +0.290 C 
ATOM     25  C   LIG    1        8.339   2.989   3.060  0.00  0.00    +0.010 C 
ATOM     26  C   LIG    1        9.351   2.086   3.769  0.00  0.00    +0.020 C 
ATOM     27  C   LIG    1        9.610   0.841   2.917  0.00  0.00    +0.010 C 
ATOM     28  C   LIG    1       10.200   1.264   1.568  0.00  0.00    +0.290 C 
ENDBRANCH  20  23
ENDBRANCH   5  20
TORSDOF 5
