REMARK  Name = ZINCkj00000GeOpy.1
REMARK                            x       y       z     vdW  Elec       q    Type
REMARK                         _______ _______ _______ _____ _____    ______ ____
ROOT
ATOM      1  N   LIG    1       -0.012   1.005   0.008  0.00  0.00    -0.510 N 
ATOM      2  H   LIG    1        0.935   1.354   0.000  0.00  0.00    +0.430 HD
ATOM      3  H   LIG    1        0.002  -0.004   0.002  0.00  0.00    +0.420 HD
ENDROOT
BRANCH   1   4
ATOM      4  C   LIG    1       -0.699   1.479   1.216  0.00  0.00    +0.170 C 
ATOM      5  C   LIG    1       -0.611   3.004   1.288  0.00  0.00    +0.120 C 
BRANCH   4   6
ATOM      6  C   LIG    1       -0.034   0.871   2.453  0.00  0.00    +0.370 C 
BRANCH   6  10
ATOM      7  C   LIG    1        0.881  -4.056   2.539  0.00  0.00    +0.120 C 
ATOM      8  C   LIG    1        0.170  -2.729   2.481  0.00  0.00    -0.210 A 
ATOM      9  C   LIG    1        0.755  -1.510   2.515  0.00  0.00    +0.220 A 
ATOM     10  N   LIG    1       -0.222  -0.582   2.444  0.00  0.00    -0.410 N 
ATOM     11  N   LIG    1       -1.448  -1.254   2.355  0.00  0.00    -0.300 NA
ATOM     12  C   LIG    1       -1.212  -2.540   2.377  0.00  0.00    +0.260 A 
ENDBRANCH   6  10
ENDBRANCH   4   6
ENDBRANCH   1   4
BRANCH   1  13
ATOM     13  C   LIG    1       -0.722   1.492  -1.183  0.00  0.00    +0.420 C 
BRANCH  13  14
ATOM     14  C   LIG    1       -0.017   1.006  -2.422  0.00  0.00    +0.070 A 
ATOM     15  N   LIG    1        0.937   1.625  -3.063  0.00  0.00    -0.230 NA
ATOM     16  N   LIG    1        1.308   0.921  -4.073  0.00  0.00    -0.270 NA
ATOM     17  C   LIG    1        0.602  -0.175  -4.128  0.00  0.00    +0.260 A 
ATOM     18  N   LIG    1       -0.259  -0.153  -3.082  0.00  0.00    -0.460 N 
ATOM     19  C   LIG    1       -1.250  -1.174  -2.735  0.00  0.00    +0.360 C 
BRANCH  17  20
ATOM     20  C   LIG    1        0.723  -1.264  -5.163  0.00  0.00    +0.010 C 
ATOM     21  C   LIG    1        1.898  -1.185  -6.138  0.00  0.00    +0.080 C 
ATOM     22  C   LIG    1        0.479  -0.880  -6.624  0.00  0.00    +0.060 C 
ENDBRANCH  17  20
ENDBRANCH  13  14
ENDBRANCH   1  13
TORSDOF 6
