REMARK  Name = ZINCpe00000MGd9Y.0
REMARK                            x       y       z     vdW  Elec       q    Type
REMARK                         _______ _______ _______ _____ _____    ______ ____
ROOT
ATOM      1  O   LIG    1       -1.685   2.293  -1.043  0.00  0.00    -0.510 OA
ATOM      2  C   LIG    1       -0.705   1.594  -1.189  0.00  0.00    +0.510 C 
ATOM      3  N   LIG    1       -0.278   1.282  -2.429  0.00  0.00    -0.580 N 
ATOM      4  C   LIG    1        0.892   0.448  -2.530  0.00  0.00    +0.270 C 
ATOM      5  C   LIG    1        2.158   1.229  -2.833  0.00  0.00    +0.030 C 
ATOM      6  C   LIG    1        2.149   1.773  -4.249  0.00  0.00    +0.140 C 
ATOM      7  C   LIG    1        2.102   0.662  -5.283  0.00  0.00    +0.180 C 
ATOM      8  O   LIG    1        0.796   0.118  -5.375  0.00  0.00    -0.360 OA
ATOM      9  C   LIG    1       -0.167   1.098  -5.779  0.00  0.00    +0.190 C 
ATOM     10  C   LIG    1       -0.220   2.209  -4.740  0.00  0.00    +0.140 C 
ATOM     11  N   LIG    1        1.085   2.753  -4.432  0.00  0.00    -0.520 NA
ATOM     12  C   LIG    1       -1.038   1.808  -3.538  0.00  0.00    +0.290 C 
ENDROOT
BRANCH  11  13
ATOM     13  C   LIG    1        1.474   3.775  -5.412  0.00  0.00    +0.230 C 
BRANCH  13  14
ATOM     14  C   LIG    1        2.612   4.594  -4.860  0.00  0.00    -0.080 A 
ATOM     15  C   LIG    1        2.350   5.736  -4.126  0.00  0.00    +0.030 A 
ATOM     16  C   LIG    1        3.394   6.484  -3.615  0.00  0.00    +0.000 A 
ATOM     17  C   LIG    1        4.700   6.096  -3.846  0.00  0.00    +0.000 A 
ATOM     18  C   LIG    1        4.963   4.957  -4.585  0.00  0.00    +0.000 A 
ATOM     19  C   LIG    1        3.919   4.206  -5.091  0.00  0.00    +0.000 A 
ENDBRANCH  13  14
ENDBRANCH  11  13
BRANCH   2  20
ATOM     20  C   LIG    1        0.037   1.074   0.016  0.00  0.00    +0.180 C 
BRANCH  20  21
ATOM     21  C   LIG    1       -0.639   1.564   1.271  0.00  0.00    +0.180 A 
ATOM     22  N   LIG    1       -0.897   2.806   1.576  0.00  0.00    -0.260 NA
ATOM     23  N   LIG    1       -1.481   2.858   2.721  0.00  0.00    -0.300 NA
ATOM     24  C   LIG    1       -1.622   1.651   3.197  0.00  0.00    +0.380 A 
ATOM     25  N   LIG    1       -1.096   0.795   2.288  0.00  0.00    -0.580 N 
ATOM     26  H   LIG    1       -1.054  -0.172   2.354  0.00  0.00    +0.430 HD
ENDBRANCH  20  21
ENDBRANCH   2  20
TORSDOF 4
