REMARK  Name = ZINCpe00000MGd9Y.1
REMARK                            x       y       z     vdW  Elec       q    Type
REMARK                         _______ _______ _______ _____ _____    ______ ____
ROOT
ATOM      1  O   LIG    1       -1.099   1.169   2.030  0.00  0.00    -0.510 OA
ATOM      2  C   LIG    1       -0.682   1.984   1.234  0.00  0.00    +0.510 C 
ATOM      3  N   LIG    1       -0.846   3.301   1.470  0.00  0.00    -0.580 N 
ATOM      4  C   LIG    1       -0.326   4.214   0.483  0.00  0.00    +0.270 C 
ATOM      5  C   LIG    1        1.010   4.820   0.874  0.00  0.00    +0.030 C 
ATOM      6  C   LIG    1        0.861   5.797   2.025  0.00  0.00    +0.140 C 
ATOM      7  C   LIG    1       -0.026   6.974   1.658  0.00  0.00    +0.180 C 
ATOM      8  O   LIG    1       -1.393   6.595   1.668  0.00  0.00    -0.360 OA
ATOM      9  C   LIG    1       -1.816   6.148   2.961  0.00  0.00    +0.180 C 
ATOM     10  C   LIG    1       -1.010   4.918   3.356  0.00  0.00    +0.140 C 
ATOM     11  N   LIG    1        0.418   5.121   3.238  0.00  0.00    -0.520 NA
ATOM     12  C   LIG    1       -1.531   3.672   2.685  0.00  0.00    +0.290 C 
ENDROOT
BRANCH  11  13
ATOM     13  C   LIG    1        0.957   5.780   4.435  0.00  0.00    +0.230 C 
BRANCH  13  14
ATOM     14  C   LIG    1        2.454   5.614   4.468  0.00  0.00    -0.080 A 
ATOM     15  C   LIG    1        3.015   4.524   5.106  0.00  0.00    +0.030 A 
ATOM     16  C   LIG    1        4.389   4.369   5.132  0.00  0.00    +0.000 A 
ATOM     17  C   LIG    1        5.202   5.311   4.529  0.00  0.00    +0.000 A 
ATOM     18  C   LIG    1        4.641   6.404   3.896  0.00  0.00    +0.000 A 
ATOM     19  C   LIG    1        3.268   6.556   3.865  0.00  0.00    +0.000 A 
ENDBRANCH  13  14
ENDBRANCH  11  13
BRANCH   2  20
ATOM     20  C   LIG    1        0.019   1.524  -0.018  0.00  0.00    +0.190 C 
BRANCH  20  21
ATOM     21  C   LIG    1        0.070   0.018  -0.041  0.00  0.00    +0.290 A 
ATOM     22  N   LIG    1        0.568  -0.748   0.895  0.00  0.00    -0.510 NA
ATOM     23  C   LIG    1        0.444  -2.028   0.546  0.00  0.00    +0.430 A 
ATOM     24  N   LIG    1       -0.130  -2.094  -0.626  0.00  0.00    -0.310 NA
ATOM     25  N   LIG    1       -0.384  -0.772  -1.029  0.00  0.00    -0.480 N 
ATOM     26  H   LIG    1       -0.803  -0.487  -1.856  0.00  0.00    +0.440 HD
ENDBRANCH  20  21
ENDBRANCH   2  20
TORSDOF 4
