REMARK  Name = ZINCrH00000tj11O.0
REMARK                            x       y       z     vdW  Elec       q    Type
REMARK                         _______ _______ _______ _____ _____    ______ ____
ROOT
ATOM      1  C   LIG    1        1.516   0.044   6.115  0.00  0.00    +0.150 C 
ATOM      2  N   LIG    1        1.044   0.369   7.269  0.00  0.00    -0.240 NA
ATOM      3  N   LIG    1        1.775  -0.131   8.344  0.00  0.00    -0.470 N 
ATOM      4  C   LIG    1        2.911  -0.911   7.826  0.00  0.00    +0.260 C 
ATOM      5  C   LIG    1        1.489   0.066   9.646  0.00  0.00    +0.550 C 
ATOM      6  O   LIG    1        2.198  -0.419  10.504  0.00  0.00    -0.520 OA
ATOM      7  C   LIG    1        0.290   0.890  10.038  0.00  0.00    +0.120 C 
ATOM      8  C   LIG    1        2.750  -0.811   6.296  0.00  0.00    +0.090 C 
ENDROOT
BRANCH   4   9
ATOM      9  C   LIG    1        4.217  -0.304   8.268  0.00  0.00    -0.070 A 
ATOM     10  C   LIG    1        5.247  -1.118   8.627  0.00  0.00    +0.080 A 
ATOM     11  C   LIG    1        6.469  -0.556   9.035  0.00  0.00    +0.080 A 
ATOM     12  N   LIG    1        7.501  -1.329   9.390  0.00  0.00    -0.420 NA
ATOM     13  C   LIG    1        8.629  -0.775   9.772  0.00  0.00    +0.260 A 
ATOM     14  C   LIG    1        8.763   0.615   9.812  0.00  0.00    +0.260 A 
ATOM     15  N   LIG    1        7.764   1.395   9.469  0.00  0.00    -0.420 NA
ATOM     16  C   LIG    1        6.605   0.855   9.077  0.00  0.00    +0.080 A 
ATOM     17  C   LIG    1        5.517   1.663   8.704  0.00  0.00    +0.060 A 
ATOM     18  C   LIG    1        4.351   1.083   8.309  0.00  0.00    +0.050 A 
ENDBRANCH   4   9
BRANCH   1  22
ATOM     19  C   LIG    1       -0.149   1.182   2.379  0.00  0.00    +0.150 A 
ATOM     20  C   LIG    1        0.992   0.391   2.416  0.00  0.00    -0.080 A 
ATOM     21  C   LIG    1        1.539   0.024   3.627  0.00  0.00    +0.090 A 
ATOM     22  C   LIG    1        0.937   0.439   4.818  0.00  0.00    -0.080 A 
ATOM     23  C   LIG    1       -0.214   1.230   4.775  0.00  0.00    +0.100 A 
ATOM     24  C   LIG    1       -0.751   1.597   3.560  0.00  0.00    -0.020 A 
BRANCH  19  25
ATOM     25  O   LIG    1       -0.682   1.547   1.184  0.00  0.00    -0.310 OA
BRANCH  25  27
ATOM     26  C   LIG    1       -0.753   1.593  -1.232  0.00  0.00    +0.070 C 
ATOM     27  C   LIG    1       -0.013   1.086   0.008  0.00  0.00    +0.180 C 
ENDBRANCH  25  27
ENDBRANCH  19  25
ENDBRANCH   1  22
TORSDOF 4
