REMARK  Name = ZINCqH00000079qa.0
REMARK                            x       y       z     vdW  Elec       q    Type
REMARK                         _______ _______ _______ _____ _____    ______ ____
ROOT
ATOM      1  N   LIG    1       -4.182  -4.280   2.819  0.00  0.00    -0.730 N 
ATOM      2  H   LIG    1       -4.861  -4.266   2.127  0.00  0.00    +0.400 HD
ATOM      3  C   LIG    1       -3.062  -3.543   2.679  0.00  0.00    +0.530 C 
ATOM      4  O   LIG    1       -2.213  -3.560   3.544  0.00  0.00    -0.510 OA
ENDROOT
BRANCH   1   5
ATOM      5  C   LIG    1       -4.373  -5.102   4.017  0.00  0.00    +0.260 C 
BRANCH   5   6
ATOM      6  C   LIG    1       -5.714  -5.832   3.926  0.00  0.00    +0.080 C 
BRANCH   6  10
ATOM      7  C   LIG    1       -6.271  -8.229   7.420  0.00  0.00    +0.130 A 
ATOM      8  C   LIG    1       -6.720  -6.916   7.399  0.00  0.00    -0.020 A 
ATOM      9  C   LIG    1       -6.539  -6.143   6.268  0.00  0.00    +0.060 A 
ATOM     10  C   LIG    1       -5.911  -6.677   5.158  0.00  0.00    -0.120 A 
ATOM     11  C   LIG    1       -5.468  -7.987   5.174  0.00  0.00    +0.060 A 
ATOM     12  C   LIG    1       -5.641  -8.762   6.304  0.00  0.00    -0.080 A 
BRANCH   7  14
ATOM     13  C   LIG    1       -5.962 -10.334   8.480  0.00  0.00    +0.250 C 
ATOM     14  O   LIG    1       -6.449  -8.992   8.530  0.00  0.00    -0.320 OA
ENDBRANCH   7  14
ENDBRANCH   6  10
ENDBRANCH   5   6
ENDBRANCH   1   5
BRANCH   3  15
ATOM     15  C   LIG    1       -2.866  -2.698   1.447  0.00  0.00    +0.090 C 
BRANCH  15  16
ATOM     16  S   LIG    1       -1.275  -1.832   1.554  0.00  0.00    -0.120 S 
BRANCH  16  17
ATOM     17  C   LIG    1       -1.221  -0.884   0.009  0.00  0.00    +0.090 C 
ATOM     18  C   LIG    1       -1.164  -1.847  -1.179  0.00  0.00    +0.090 C 
BRANCH  17  19
ATOM     19  C   LIG    1        0.002  -0.004   0.002  0.00  0.00    +0.300 A 
ATOM     20  N   LIG    1        1.230  -0.435  -0.012  0.00  0.00    -0.460 NA
ATOM     21  C   LIG    1        2.084   0.621  -0.015  0.00  0.00    +0.050 A 
ATOM     22  C   LIG    1        3.476   0.734  -0.027  0.00  0.00    +0.070 A 
ATOM     23  C   LIG    1        4.059   1.970  -0.026  0.00  0.00    +0.000 A 
ATOM     24  C   LIG    1        3.282   3.119  -0.013  0.00  0.00    +0.030 A 
ATOM     25  C   LIG    1        1.906   3.031   0.000  0.00  0.00    +0.010 A 
ATOM     26  C   LIG    1        1.296   1.785  -0.001  0.00  0.00    +0.050 A 
ATOM     27  N   LIG    1       -0.016   1.356   0.009  0.00  0.00    -0.590 N 
ATOM     28  H   LIG    1       -0.805   1.920   0.017  0.00  0.00    +0.420 HD
ENDBRANCH  17  19
ENDBRANCH  16  17
ENDBRANCH  15  16
ENDBRANCH   3  15
TORSDOF 8
