REMARK  Name = ZINCpk00000ebhU6.0
REMARK                            x       y       z     vdW  Elec       q    Type
REMARK                         _______ _______ _______ _____ _____    ______ ____
ROOT
ATOM      1  C   LIG    1       -2.919   1.351  -2.346  0.00  0.00    +0.580 A 
ATOM      2  N   LIG    1       -2.156   2.027  -3.193  0.00  0.00    -0.570 NA
ATOM      3  C   LIG    1       -2.633   2.444  -4.356  0.00  0.00    +0.490 A 
ATOM      4  C   LIG    1       -3.945   2.167  -4.687  0.00  0.00    -0.250 A 
ATOM      5  C   LIG    1       -4.725   1.453  -3.775  0.00  0.00    +0.520 A 
ATOM      6  N   LIG    1       -4.180   1.061  -2.627  0.00  0.00    -0.580 NA
ENDROOT
BRANCH   1  11
ATOM      7  C   LIG    1       -0.378   0.743   0.254  0.00  0.00    +0.100 C 
ATOM      8  C   LIG    1       -1.177   1.226   1.468  0.00  0.00    +0.030 C 
ATOM      9  C   LIG    1       -2.646   0.828   1.292  0.00  0.00    +0.050 C 
ATOM     10  C   LIG    1       -3.180   1.427  -0.011  0.00  0.00    +0.220 C 
ATOM     11  N   LIG    1       -2.382   0.933  -1.141  0.00  0.00    -0.450 N 
ATOM     12  C   LIG    1       -0.978   1.344  -1.019  0.00  0.00    +0.260 C 
BRANCH   7  18
ATOM     13  C   LIG    1        2.155  -1.092   0.381  0.00  0.00    +0.350 C 
ATOM     14  N   LIG    1        2.143   0.372   0.444  0.00  0.00    -0.480 N 
ATOM     15  C   LIG    1        3.215   1.191   0.564  0.00  0.00    +0.370 A 
ATOM     16  N   LIG    1        2.767   2.417   0.586  0.00  0.00    -0.290 NA
ATOM     17  N   LIG    1        1.485   2.411   0.483  0.00  0.00    -0.280 NA
ATOM     18  C   LIG    1        1.057   1.181   0.390  0.00  0.00    +0.180 A 
ENDBRANCH   7  18
ENDBRANCH   1  11
BRANCH   4  19
ATOM     19  N   LIG    1       -4.512   2.617  -5.978  0.00  0.00    +0.060 N 
ATOM     20  O   LIG    1       -5.636   2.278  -6.301  0.00  0.00    -0.200 OA
ATOM     21  O   LIG    1       -3.854   3.327  -6.717  0.00  0.00    -0.140 OA
ENDBRANCH   4  19
BRANCH   5  22
ATOM     22  N   LIG    1       -6.046   1.152  -4.064  0.00  0.00    -0.650 N 
ATOM     23  H   LIG    1       -6.413   1.368  -4.935  0.00  0.00    +0.430 HD
BRANCH  22  24
ATOM     24  C   LIG    1       -6.889   0.509  -3.053  0.00  0.00    +0.220 C 
ATOM     25  C   LIG    1       -7.788  -0.641  -3.510  0.00  0.00    +0.020 C 
ATOM     26  C   LIG    1       -8.402   0.716  -3.158  0.00  0.00    +0.030 C 
ENDBRANCH  22  24
ENDBRANCH   5  22
TORSDOF 5
