REMARK  Name = ZINCah0000002yd1.0
REMARK                            x       y       z     vdW  Elec       q    Type
REMARK                         _______ _______ _______ _____ _____    ______ ____
ROOT
ATOM      1  C   UNK    1        1.133   1.911   0.002  0.00  0.00    +0.050 A 
ATOM      2  N   UNK    1       -0.016   1.332   0.009  0.00  0.00    -0.410 NA
ATOM      3  C   UNK    1        0.002  -0.004   0.002  0.00  0.00    -0.050 A 
ATOM      4  C   UNK    1        1.251  -0.554  -0.013  0.00  0.00    -0.020 A 
ATOM      5  S   UNK    1        2.411   0.702  -0.017  0.00  0.00    +0.190 S 
ENDROOT
BRANCH   3   6
ATOM      6  C   UNK    1       -1.219  -0.812   0.009  0.00  0.00    +0.540 C 
ATOM      7  O   UNK    1       -1.145  -2.024   0.003  0.00  0.00    -0.450 OA
ENDBRANCH   3   6
BRANCH   1   8
ATOM      8  C   UNK    1        1.351   3.403   0.007  0.00  0.00    +0.310 C 
BRANCH   8  10
ATOM      9  C   UNK    1        1.640   5.277   1.473  0.00  0.00    +0.220 C 
ATOM     10  O   UNK    1        1.433   3.868   1.355  0.00  0.00    -0.380 OA
ENDBRANCH   8  10
ENDBRANCH   1   8
TORSDOF 3
