REMARK  Name = ZINCpk00000y3Rok.0
REMARK                            x       y       z     vdW  Elec       q    Type
REMARK                         _______ _______ _______ _____ _____    ______ ____
ROOT
ATOM      1  C   LIG    1        0.776   0.746  -3.390  0.00  0.00    +0.520 C 
ATOM      2  N   LIG    1        1.294   1.553  -2.443  0.00  0.00    -0.610 N 
ATOM      3  C   LIG    1        1.211   3.014  -2.578  0.00  0.00    +0.260 C 
ATOM      4  C   LIG    1        0.573   3.591  -1.310  0.00  0.00    +0.020 C 
ATOM      5  C   LIG    1        1.360   3.115  -0.086  0.00  0.00    +0.050 C 
ATOM      6  C   LIG    1        1.305   1.588  -0.003  0.00  0.00    +0.140 C 
ATOM      7  C   LIG    1        1.951   0.989  -1.256  0.00  0.00    +0.250 C 
ATOM      8  O   LIG    1        0.850  -0.458  -3.268  0.00  0.00    -0.530 OA
ENDROOT
BRANCH   6   9
ATOM      9  O   LIG    1       -0.058   1.164   0.080  0.00  0.00    -0.530 OA
ATOM     10  H   LIG    1       -0.168   0.205   0.133  0.00  0.00    +0.370 HD
ENDBRANCH   6   9
BRANCH   1  11
ATOM     11  C   LIG    1        0.105   1.340  -4.602  0.00  0.00    +0.140 C 
BRANCH  11  14
ATOM     12  N   LIG    1       -0.488  -1.275  -7.125  0.00  0.00    -0.480 N 
ATOM     13  C   LIG    1        0.265  -0.286  -6.554  0.00  0.00    +0.230 A 
ATOM     14  C   LIG    1       -0.384   0.233  -5.499  0.00  0.00    -0.160 A 
ATOM     15  C   LIG    1       -1.654  -0.487  -5.382  0.00  0.00    -0.090 A 
ATOM     16  C   LIG    1       -2.736  -0.411  -4.503  0.00  0.00    +0.050 A 
ATOM     17  C   LIG    1       -3.804  -1.247  -4.666  0.00  0.00    -0.030 A 
ATOM     18  C   LIG    1       -3.823  -2.172  -5.701  0.00  0.00    +0.020 A 
ATOM     19  C   LIG    1       -2.770  -2.260  -6.585  0.00  0.00    -0.010 A 
ATOM     20  C   LIG    1       -1.670  -1.421  -6.435  0.00  0.00    +0.100 A 
BRANCH  12  22
ATOM     21  C   LIG    1       -0.689  -1.428  -9.558  0.00  0.00    +0.020 C 
ATOM     22  C   LIG    1       -0.095  -2.061  -8.297  0.00  0.00    +0.290 C 
ENDBRANCH  12  22
ENDBRANCH  11  14
ENDBRANCH   1  11
BRANCH   6  23
ATOM     23  C   LIG    1        2.063   1.116   1.238  0.00  0.00    +0.030 C 
BRANCH  23  24
ATOM     24  C   LIG    1        1.387   1.650   2.474  0.00  0.00    +0.520 C 
ATOM     25  O   LIG    1        0.334   2.244   2.380  0.00  0.00    -0.510 OA
ATOM     26  N   LIG    1        1.952   1.468   3.684  0.00  0.00    -0.860 N 
ATOM     27  H   LIG    1        1.517   1.812   4.480  0.00  0.00    +0.400 HD
ATOM     28  H   LIG    1        2.795   0.993   3.759  0.00  0.00    +0.400 HD
ENDBRANCH  23  24
ENDBRANCH   6  23
TORSDOF 6
