REMARK  Name = ZINCrD000000AEhO.0
REMARK                            x       y       z     vdW  Elec       q    Type
REMARK                         _______ _______ _______ _____ _____    ______ ____
ROOT
ATOM      1  O   LIG    1       -1.734   2.272  -1.089  0.00  0.00    -0.490 OA
ATOM      2  C   LIG    1       -0.738   1.591  -1.213  0.00  0.00    +0.500 C 
ATOM      3  N   LIG    1       -0.288   1.272  -2.443  0.00  0.00    -0.660 N 
ATOM      4  H   LIG    1        0.543   0.783  -2.544  0.00  0.00    +0.420 HD
ENDROOT
BRANCH   3   5
ATOM      5  C   LIG    1       -1.022   1.647  -3.576  0.00  0.00    +0.120 A 
ATOM      6  C   LIG    1       -1.723   2.845  -3.586  0.00  0.00    +0.150 A 
ATOM      7  C   LIG    1       -2.442   3.213  -4.706  0.00  0.00    -0.040 A 
ATOM      8  C   LIG    1       -2.473   2.387  -5.814  0.00  0.00    +0.130 A 
ATOM      9  C   LIG    1       -1.781   1.189  -5.807  0.00  0.00    +0.040 A 
ATOM     10  C   LIG    1       -1.055   0.816  -4.691  0.00  0.00    +0.130 A 
ATOM     11  F   LIG    1       -0.379  -0.354  -4.683  0.00  0.00    -0.110 F 
BRANCH   7  12
ATOM     12  N   LIG    1       -3.185   4.494  -4.719  0.00  0.00    +0.030 N 
ATOM     13  O   LIG    1       -3.158   5.223  -3.744  0.00  0.00    -0.150 OA
ATOM     14  O   LIG    1       -3.823   4.818  -5.704  0.00  0.00    -0.150 OA
ENDBRANCH   7  12
ENDBRANCH   3   5
BRANCH   2  15
ATOM     15  C   LIG    1       -0.002   1.103   0.008  0.00  0.00    +0.360 C 
BRANCH  15  16
ATOM     16  N   LIG    1       -0.685   1.581   1.213  0.00  0.00    -0.540 N 
ATOM     17  C   LIG    1       -0.330   2.773   1.760  0.00  0.00    +0.600 A 
ATOM     18  N   LIG    1       -0.890   3.266   2.822  0.00  0.00    -0.500 NA
ATOM     19  C   LIG    1       -1.879   2.607   3.476  0.00  0.00    +0.170 A 
ATOM     20  C   LIG    1       -2.479   3.135   4.622  0.00  0.00    -0.020 A 
ATOM     21  C   LIG    1       -3.480   2.431   5.255  0.00  0.00    +0.100 A 
ATOM     22  C   LIG    1       -3.902   1.201   4.767  0.00  0.00    -0.050 A 
ATOM     23  C   LIG    1       -3.325   0.660   3.637  0.00  0.00    +0.130 A 
ATOM     24 CL   LIG    1       -5.166   0.337   5.585  0.00  0.00    -0.040 Cl
ATOM     25 CL   LIG    1       -1.964   4.671   5.247  0.00  0.00    -0.020 Cl
ATOM     26  C   LIG    1       -2.311   1.356   2.983  0.00  0.00    -0.170 A 
ATOM     27  C   LIG    1       -1.660   0.828   1.775  0.00  0.00    +0.560 A 
ATOM     28  O   LIG    1       -1.984  -0.244   1.298  0.00  0.00    -0.500 OA
ENDBRANCH  15  16
ENDBRANCH   2  15
TORSDOF 4
