REMARK  Name = ZINCtV00000L6jzg.0
REMARK                            x       y       z     vdW  Elec       q    Type
REMARK                         _______ _______ _______ _____ _____    ______ ____
ROOT
ATOM      1  C   LIG    1        1.926   9.685  -3.295  0.00  0.00    +0.140 C 
ATOM      2  C   LIG    1        1.203   8.951  -2.196  0.00  0.00    -0.230 A 
ATOM      3  C   LIG    1        1.573   7.777  -1.685  0.00  0.00    -0.070 A 
ATOM      4  C   LIG    1        0.753   7.292  -0.679  0.00  0.00    -0.160 A 
ATOM      5  C   LIG    1       -0.291   8.079  -0.379  0.00  0.00    +0.050 A 
ATOM      6  C   LIG    1        2.792   7.033  -2.164  0.00  0.00    +0.100 C 
ATOM      7  S   LIG    1       -0.257   9.515  -1.393  0.00  0.00    +0.240 S 
ENDROOT
BRANCH   5   8
ATOM      8  N   LIG    1       -1.255   7.801   0.593  0.00  0.00    -0.640 N 
ATOM      9  H   LIG    1       -1.159   7.023   1.164  0.00  0.00    +0.410 HD
ATOM     10  C   LIG    1       -2.321   8.614   0.737  0.00  0.00    +0.550 C 
ATOM     11  O   LIG    1       -2.442   9.589   0.021  0.00  0.00    -0.500 OA
BRANCH  10  12
ATOM     12  C   LIG    1       -3.341   8.320   1.764  0.00  0.00    -0.140 A 
ATOM     13  C   LIG    1       -3.208   7.198   2.584  0.00  0.00    +0.040 A 
ATOM     14  C   LIG    1       -4.162   6.932   3.545  0.00  0.00    +0.010 A 
ATOM     15  C   LIG    1       -5.254   7.769   3.690  0.00  0.00    +0.050 A 
ATOM     16  C   LIG    1       -5.395   8.880   2.877  0.00  0.00    +0.010 A 
ATOM     17  C   LIG    1       -4.446   9.160   1.916  0.00  0.00    +0.090 A 
ENDBRANCH  10  12
ENDBRANCH   5   8
BRANCH   4  18
ATOM     18  C   LIG    1        1.010   5.981   0.018  0.00  0.00    +0.400 C 
BRANCH  18  19
ATOM     19  C   LIG    1        1.544   6.245   1.402  0.00  0.00    -0.190 A 
ATOM     20  C   LIG    1        2.829   6.180   1.757  0.00  0.00    +0.020 A 
ATOM     21  C   LIG    1        3.082   6.466   3.087  0.00  0.00    +0.010 A 
ATOM     22  C   LIG    1        2.002   6.755   3.815  0.00  0.00    -0.030 A 
ATOM     23  S   LIG    1        0.568   6.678   2.800  0.00  0.00    +0.080 S 
ENDBRANCH  18  19
BRANCH  18  24
ATOM     24  N   LIG    1       -0.240   5.225   0.113  0.00  0.00    -0.730 N 
ATOM     25  H   LIG    1       -1.091   5.680   0.014  0.00  0.00    +0.400 HD
BRANCH  24  26
ATOM     26  C   LIG    1       -0.208   3.854   0.343  0.00  0.00    +0.400 A 
ATOM     27  C   LIG    1        1.015   3.208   0.483  0.00  0.00    -0.100 A 
ATOM     28  C   LIG    1        1.033   1.843   0.712  0.00  0.00    +0.100 A 
ATOM     29  C   LIG    1       -0.178   1.169   0.794  0.00  0.00    -0.100 A 
ATOM     30  C   LIG    1       -1.356   1.874   0.639  0.00  0.00    +0.310 A 
ATOM     31  N   LIG    1       -1.342   3.176   0.428  0.00  0.00    -0.540 NA
ENDBRANCH  24  26
ENDBRANCH  18  24
ENDBRANCH   4  18
TORSDOF 6
