REMARK  Name = ZINCvU0000000Fy7.0
REMARK                            x       y       z     vdW  Elec       q    Type
REMARK                         _______ _______ _______ _____ _____    ______ ____
ROOT
ATOM      1  C   LIG    1        6.707  -4.432   0.123  0.00  0.00    -0.660 A 
ATOM      2  C   LIG    1        5.423  -3.933   0.210  0.00  0.00    +0.150 A 
ATOM      3  C   LIG    1        5.213  -2.560   0.244  0.00  0.00    +0.120 A 
ATOM      4  C   LIG    1        6.297  -1.694   0.186  0.00  0.00    +0.060 A 
ATOM      5  C   LIG    1        7.580  -2.199   0.105  0.00  0.00    +0.020 A 
ATOM      6  C   LIG    1        7.785  -3.566   0.071  0.00  0.00    +0.010 A 
ATOM      7  C   LIG    1        9.186  -4.114  -0.024  0.00  0.00    +0.100 C 
ENDROOT
BRANCH   3   8
ATOM      8  N   LIG    1        3.913  -2.051   0.332  0.00  0.00    -0.670 N 
ATOM      9  H   LIG    1        3.682  -1.229  -0.127  0.00  0.00    +0.420 HD
ATOM     10  C   LIG    1        2.981  -2.704   1.055  0.00  0.00    +0.510 C 
ATOM     11  O   LIG    1        3.243  -3.778   1.554  0.00  0.00    -0.490 OA
BRANCH  10  12
ATOM     12  C   LIG    1        1.614  -2.099   1.244  0.00  0.00    +0.240 C 
BRANCH  12  13
ATOM     13  O   LIG    1        0.812  -2.974   2.041  0.00  0.00    -0.280 OA
BRANCH  13  14
ATOM     14  C   LIG    1       -0.459  -2.574   2.308  0.00  0.00    +0.130 A 
ATOM     15  C   LIG    1       -0.925  -1.365   1.812  0.00  0.00    -0.050 A 
ATOM     16  C   LIG    1       -2.216  -0.957   2.089  0.00  0.00    +0.060 A 
ATOM     17  C   LIG    1       -3.047  -1.759   2.850  0.00  0.00    -0.070 A 
ATOM     18  C   LIG    1       -2.584  -2.966   3.346  0.00  0.00    +0.070 A 
ATOM     19 CL   LIG    1       -4.671  -1.248   3.191  0.00  0.00    -0.070 Cl
ATOM     20  C   LIG    1       -1.292  -3.374   3.076  0.00  0.00    -0.090 A 
ATOM     21  C   LIG    1       -0.789  -4.688   3.616  0.00  0.00    +0.110 C 
ENDBRANCH  13  14
ENDBRANCH  12  13
ENDBRANCH  10  12
ENDBRANCH   3   8
BRANCH   1  22
ATOM     22  S   LIG    1        6.974  -6.173   0.078  0.00  0.00    +2.690 S 
ATOM     23  O   LIG    1        5.688  -6.775   0.054  0.00  0.00    -0.940 OA
ATOM     24  O   LIG    1        7.947  -6.456   1.075  0.00  0.00    -0.940 OA
BRANCH  22  25
ATOM     25  N   LIG    1        7.682  -6.523  -1.377  0.00  0.00    -1.060 N 
ATOM     26  H   LIG    1        8.578  -6.893  -1.405  0.00  0.00    +0.430 HD
BRANCH  25  32
ATOM     27  C   LIG    1        7.624  -4.751  -5.961  0.00  0.00    +0.090 C 
ATOM     28  C   LIG    1        6.935  -5.429  -4.805  0.00  0.00    -0.070 A 
ATOM     29  C   LIG    1        5.613  -5.818  -4.921  0.00  0.00    +0.000 A 
ATOM     30  C   LIG    1        4.976  -6.440  -3.863  0.00  0.00    +0.040 A 
ATOM     31  C   LIG    1        5.661  -6.680  -2.688  0.00  0.00    +0.010 A 
ATOM     32  C   LIG    1        6.988  -6.286  -2.566  0.00  0.00    +0.150 A 
ATOM     33  C   LIG    1        7.624  -5.661  -3.631  0.00  0.00    +0.000 A 
ENDBRANCH  25  32
ENDBRANCH  22  25
ENDBRANCH   1  22
TORSDOF 7
