REMARK  Name = ZINCrH000004pqey.0
REMARK                            x       y       z     vdW  Elec       q    Type
REMARK                         _______ _______ _______ _____ _____    ______ ____
ROOT
ATOM      1  N   LIG    1        2.902   4.112   0.156  0.00  0.00    -0.720 N 
ATOM      2  H   LIG    1        3.363   3.264   0.249  0.00  0.00    +0.390 HD
ATOM      3  C   LIG    1        1.556   4.155   0.195  0.00  0.00    +0.590 C 
ATOM      4  O   LIG    1        0.978   5.219   0.078  0.00  0.00    -0.530 OA
ENDROOT
BRANCH   3   5
ATOM      5  C   LIG    1        0.784   2.914   0.379  0.00  0.00    -0.280 A 
ATOM      6  C   LIG    1        1.291   1.640   0.525  0.00  0.00    +0.300 A 
ATOM      7  N   LIG    1        0.256   0.798   0.668  0.00  0.00    -0.460 N 
ATOM      8  H   LIG    1        0.329  -0.161   0.789  0.00  0.00    +0.450 HD
ATOM      9  N   LIG    1       -0.943   1.514   0.610  0.00  0.00    -0.280 NA
ATOM     10  C   LIG    1       -0.675   2.789   0.444  0.00  0.00    +0.180 A 
BRANCH  10  11
ATOM     11  C   LIG    1       -1.661   3.891   0.335  0.00  0.00    -0.020 A 
ATOM     12  C   LIG    1       -2.886   3.674  -0.294  0.00  0.00    +0.050 A 
ATOM     13  C   LIG    1       -3.801   4.703  -0.392  0.00  0.00    +0.020 A 
ATOM     14  C   LIG    1       -3.504   5.948   0.132  0.00  0.00    +0.030 A 
ATOM     15  C   LIG    1       -2.289   6.170   0.758  0.00  0.00    -0.040 A 
ATOM     16 CL   LIG    1       -1.925   7.735   1.414  0.00  0.00    -0.070 Cl
ATOM     17  C   LIG    1       -1.369   5.146   0.867  0.00  0.00    +0.110 A 
ENDBRANCH  10  11
ENDBRANCH   3   5
BRANCH   1  19
ATOM     18  C   LIG    1        3.877   6.024   1.329  0.00  0.00    +0.040 C 
ATOM     19  C   LIG    1        3.669   5.347  -0.027  0.00  0.00    +0.290 C 
BRANCH  19  20
ATOM     20  C   LIG    1        5.009   5.020  -0.636  0.00  0.00    -0.110 A 
ATOM     21  C   LIG    1        5.703   3.901  -0.215  0.00  0.00    +0.030 A 
ATOM     22  C   LIG    1        6.929   3.596  -0.773  0.00  0.00    -0.010 A 
ATOM     23  C   LIG    1        7.468   4.420  -1.752  0.00  0.00    +0.170 A 
ATOM     24  C   LIG    1        6.771   5.546  -2.169  0.00  0.00    +0.030 A 
ATOM     25  C   LIG    1        5.544   5.843  -1.609  0.00  0.00    +0.050 A 
BRANCH  23  26
ATOM     26  N   LIG    1        8.713   4.117  -2.317  0.00  0.00    -0.690 N 
ATOM     27  H   LIG    1        8.981   3.192  -2.431  0.00  0.00    +0.410 HD
ATOM     28  C   LIG    1        9.538   5.110  -2.702  0.00  0.00    +0.700 C 
ATOM     29  O   LIG    1        9.245   6.268  -2.472  0.00  0.00    -0.570 OA
ATOM     30  N   LIG    1       10.688   4.821  -3.343  0.00  0.00    -0.860 N 
ATOM     31  H   LIG    1       11.282   5.536  -3.620  0.00  0.00    +0.420 HD
ATOM     32  H   LIG    1       10.921   3.897  -3.526  0.00  0.00    +0.400 HD
ENDBRANCH  23  26
ENDBRANCH  19  20
ENDBRANCH   1  19
TORSDOF 5
