REMARK  Name = ZINCpk00000y6xcK.0
REMARK                            x       y       z     vdW  Elec       q    Type
REMARK                         _______ _______ _______ _____ _____    ______ ____
ROOT
ATOM      1  C   LIG    1        1.835   8.049   1.506  0.00  0.00    +0.610 C 
ATOM      2  N   LIG    1        1.426   7.042   0.708  0.00  0.00    -0.620 N 
ATOM      3  C   LIG    1        1.344   7.091  -0.759  0.00  0.00    +0.230 C 
ATOM      4  C   LIG    1        0.800   5.727  -1.233  0.00  0.00    +0.060 C 
ATOM      5  C   LIG    1        0.072   5.186   0.026  0.00  0.00    +0.050 C 
ATOM      6  C   LIG    1        0.985   5.711   1.162  0.00  0.00    +0.280 C 
ATOM      7  O   LIG    1        1.863   7.896   2.712  0.00  0.00    -0.540 OA
ENDROOT
BRANCH   5   8
ATOM      8  C   LIG    1        0.029   3.680   0.020  0.00  0.00    +0.240 A 
ATOM      9  C   LIG    1       -1.173   3.033   0.029  0.00  0.00    -0.190 A 
ATOM     10  C   LIG    1       -1.188   1.627   0.017  0.00  0.00    +0.550 A 
ATOM     11  N   LIG    1       -0.011   0.966   0.007  0.00  0.00    -0.650 N 
ATOM     12  H   LIG    1        0.002  -0.004   0.002  0.00  0.00    +0.410 HD
ATOM     13  C   LIG    1        1.156   1.664   0.000  0.00  0.00    +0.660 A 
ATOM     14  O   LIG    1       -2.244   1.017   0.018  0.00  0.00    -0.540 OA
ATOM     15  N   LIG    1        1.162   2.982   0.006  0.00  0.00    -0.590 NA
BRANCH  13  16
ATOM     16  N   LIG    1        2.346   0.987  -0.015  0.00  0.00    -0.600 N 
ATOM     17  C   LIG    1        3.682   1.600  -0.030  0.00  0.00    +0.290 C 
ATOM     18  C   LIG    1        4.713   0.453  -0.068  0.00  0.00    +0.030 C 
ATOM     19  C   LIG    1        3.893  -0.729  -0.651  0.00  0.00    +0.040 C 
ATOM     20  C   LIG    1        2.499  -0.480  -0.023  0.00  0.00    +0.260 C 
ENDBRANCH  13  16
ENDBRANCH   5   8
BRANCH   1  27
ATOM     21  C   LIG    1        2.842  10.592   3.116  0.00  0.00    +0.170 C 
ATOM     22  C   LIG    1        2.700  10.474   1.620  0.00  0.00    +0.140 A 
ATOM     23  N   LIG    1        2.971  11.406   0.749  0.00  0.00    -0.300 NA
ATOM     24  N   LIG    1        2.712  10.915  -0.535  0.00  0.00    -0.460 N 
ATOM     25  H   LIG    1        2.830  11.405  -1.364  0.00  0.00    +0.450 HD
ATOM     26  C   LIG    1        2.277   9.649  -0.428  0.00  0.00    +0.280 A 
ATOM     27  C   LIG    1        2.250   9.335   0.916  0.00  0.00    -0.290 A 
ENDBRANCH   1  27
TORSDOF 3
