REMARK  Name = ZINCpk00000y6vFk.0
REMARK                            x       y       z     vdW  Elec       q    Type
REMARK                         _______ _______ _______ _____ _____    ______ ____
ROOT
ATOM      1  S   LIG    1       -5.034   2.262   1.157  0.00  0.00    +2.740 S 
ATOM      2  O   LIG    1       -4.296   3.434   0.838  0.00  0.00    -0.950 OA
ATOM      3  O   LIG    1       -6.386   2.291   1.593  0.00  0.00    -0.950 OA
ENDROOT
BRANCH   1  10
ATOM      4  C   LIG    1       -2.740   1.623   2.581  0.00  0.00    +0.290 C 
ATOM      5  C   LIG    1       -2.370   0.741   3.783  0.00  0.00    +0.030 C 
ATOM      6  C   LIG    1       -2.270  -0.755   3.448  0.00  0.00    +0.030 C 
ATOM      7  C   LIG    1       -3.190  -1.013   4.653  0.00  0.00    +0.040 C 
ATOM      8  C   LIG    1       -3.726   0.415   4.458  0.00  0.00    +0.000 C 
ATOM      9  C   LIG    1       -4.741   0.528   3.305  0.00  0.00    +0.290 C 
ATOM     10  N   LIG    1       -4.178   1.478   2.338  0.00  0.00    -0.990 NA
BRANCH   4  11
ATOM     11  C   LIG    1       -1.970   1.175   1.365  0.00  0.00    +0.440 C 
ATOM     12  O   LIG    1       -2.502   0.475   0.537  0.00  0.00    -0.490 OA
BRANCH  11  14
ATOM     13  C   LIG    1       -0.013   1.086   0.008  0.00  0.00    +0.250 C 
ATOM     14  O   LIG    1       -0.692   1.554   1.203  0.00  0.00    -0.350 OA
ENDBRANCH  11  14
ENDBRANCH   4  11
ENDBRANCH   1  10
BRANCH   1  15
ATOM     15  C   LIG    1       -4.996   1.243  -0.280  0.00  0.00    -0.790 A 
ATOM     16  C   LIG    1       -5.894   0.282  -0.598  0.00  0.00    +0.370 A 
ATOM     17  N   LIG    1       -5.511  -0.266  -1.773  0.00  0.00    -0.310 N 
ATOM     18  N   LIG    1       -4.340   0.381  -2.188  0.00  0.00    -0.290 NA
ATOM     19  C   LIG    1       -4.035   1.288  -1.296  0.00  0.00    +0.360 A 
BRANCH  17  20
ATOM     20  C   LIG    1       -6.170  -1.298  -2.456  0.00  0.00    +0.140 A 
ATOM     21  C   LIG    1       -7.325  -1.856  -1.926  0.00  0.00    -0.010 A 
ATOM     22  C   LIG    1       -7.975  -2.869  -2.603  0.00  0.00    +0.050 A 
ATOM     23  C   LIG    1       -7.469  -3.336  -3.803  0.00  0.00    +0.010 A 
ATOM     24  C   LIG    1       -6.315  -2.786  -4.330  0.00  0.00    +0.040 A 
ATOM     25  C   LIG    1       -5.664  -1.769  -3.660  0.00  0.00    +0.030 A 
ENDBRANCH  17  20
ENDBRANCH   1  15
TORSDOF 5
