REMARK  Name = ZINCvU0000000DNX.0
REMARK                            x       y       z     vdW  Elec       q    Type
REMARK                         _______ _______ _______ _____ _____    ______ ____
ROOT
ATOM      1  C   LIG    1       -1.128   3.319   0.059  0.00  0.00    -0.220 A 
ATOM      2  C   LIG    1        0.167   3.844   0.026  0.00  0.00    +0.230 A 
ATOM      3  C   LIG    1        1.252   2.995  -0.017  0.00  0.00    -0.120 A 
ATOM      4  C   LIG    1        1.066   1.622  -0.029  0.00  0.00    +0.190 A 
ATOM      5  C   LIG    1       -0.206   1.088   0.002  0.00  0.00    -0.050 A 
ATOM      6  C   LIG    1       -1.312   1.927   0.041  0.00  0.00    +0.330 A 
ENDROOT
BRANCH   3   7
ATOM      7  N   LIG    1        2.622   3.553  -0.051  0.00  0.00    +0.040 N 
ATOM      8  O   LIG    1        2.789   4.760  -0.040  0.00  0.00    -0.170 OA
ATOM      9  O   LIG    1        3.583   2.806  -0.089  0.00  0.00    -0.170 OA
ENDBRANCH   3   7
BRANCH   1  11
ATOM     10  O   LIG    1       -3.416   3.766   0.026  0.00  0.00    -0.510 OA
ATOM     11  C   LIG    1       -2.292   4.221   0.105  0.00  0.00    +0.530 C 
BRANCH  11  12
ATOM     12  O   LIG    1       -2.110   5.550   0.235  0.00  0.00    -0.340 OA
BRANCH  12  13
ATOM     13  C   LIG    1       -3.302   6.377   0.273  0.00  0.00    +0.260 C 
BRANCH  13  14
ATOM     14  C   LIG    1       -2.899   7.846   0.423  0.00  0.00    +0.230 C 
BRANCH  14  15
ATOM     15  O   LIG    1       -2.186   8.265  -0.742  0.00  0.00    -0.310 OA
BRANCH  15  16
ATOM     16  C   LIG    1       -1.753   9.553  -0.770  0.00  0.00    +0.120 A 
ATOM     17  C   LIG    1       -2.015  10.397   0.299  0.00  0.00    -0.040 A 
ATOM     18  C   LIG    1       -1.571  11.705   0.271  0.00  0.00    +0.030 A 
ATOM     19  C   LIG    1       -0.873  12.176  -0.828  0.00  0.00    +0.060 A 
ATOM     20  C   LIG    1       -0.615  11.336  -1.898  0.00  0.00    +0.030 A 
ATOM     21  F   LIG    1       -0.443  13.457  -0.856  0.00  0.00    -0.140 F 
ATOM     22  C   LIG    1       -1.053  10.027  -1.870  0.00  0.00    +0.020 A 
ENDBRANCH  15  16
ENDBRANCH  14  15
ENDBRANCH  13  14
ENDBRANCH  12  13
ENDBRANCH  11  12
ENDBRANCH   1  11
BRANCH   6  23
ATOM     23  N   LIG    1       -2.593   1.392   0.067  0.00  0.00    -0.690 N 
ATOM     24  H   LIG    1       -3.364   1.978   0.011  0.00  0.00    +0.430 HD
BRANCH  23  25
ATOM     25  C   LIG    1       -2.780  -0.057   0.180  0.00  0.00    +0.330 C 
BRANCH  25  26
ATOM     26  C   LIG    1       -4.253  -0.374   0.186  0.00  0.00    -0.110 A 
ATOM     27  C   LIG    1       -4.849  -0.913  -0.938  0.00  0.00    +0.050 A 
ATOM     28  C   LIG    1       -6.200  -1.204  -0.933  0.00  0.00    +0.010 A 
ATOM     29  C   LIG    1       -6.957  -0.956   0.197  0.00  0.00    +0.050 A 
ATOM     30  C   LIG    1       -6.362  -0.416   1.323  0.00  0.00    +0.030 A 
ATOM     31  C   LIG    1       -5.009  -0.131   1.320  0.00  0.00    -0.020 A 
ATOM     32 CL   LIG    1       -4.260   0.539   2.735  0.00  0.00    -0.060 Cl
ENDBRANCH  25  26
ENDBRANCH  23  25
ENDBRANCH   6  23
TORSDOF 10
