REMARK  Name = ZINCrg000000rhY0.0
REMARK                            x       y       z     vdW  Elec       q    Type
REMARK                         _______ _______ _______ _____ _____    ______ ____
ROOT
ATOM      1  C   LIG    1       -7.904   3.955   1.407  0.00  0.00    +0.150 A 
ATOM      2  C   LIG    1       -7.268   5.110   1.842  0.00  0.00    +0.030 A 
ATOM      3  C   LIG    1       -7.993   6.096   2.484  0.00  0.00    +0.030 A 
ATOM      4  C   LIG    1       -9.348   5.927   2.703  0.00  0.00    +0.020 A 
ATOM      5  C   LIG    1       -9.982   4.775   2.276  0.00  0.00    -0.080 A 
ATOM      6  C   LIG    1       -9.264   3.789   1.629  0.00  0.00    +0.020 A 
ENDROOT
BRANCH   5   7
ATOM      7  C   LIG    1      -11.459   4.596   2.517  0.00  0.00    +0.170 C 
ATOM      8  N   LIG    1      -12.015   5.766   3.219  0.00  0.00    -0.720 N 
ATOM      9  H   LIG    1      -11.764   6.087   4.099  0.00  0.00    +0.440 HD
ATOM     10  C   LIG    1      -12.940   6.301   2.401  0.00  0.00    +0.710 C 
ATOM     11  N   LIG    1      -13.057   5.626   1.252  0.00  0.00    -0.680 N 
ATOM     12  H   LIG    1      -13.673   5.865   0.540  0.00  0.00    +0.440 HD
ATOM     13  O   LIG    1      -13.595   7.287   2.676  0.00  0.00    -0.540 OA
ATOM     14  C   LIG    1      -11.722   3.316   3.313  0.00  0.00    +0.100 C 
ATOM     15  C   LIG    1      -12.215   4.575   1.204  0.00  0.00    +0.540 C 
ATOM     16  O   LIG    1      -12.088   3.780   0.298  0.00  0.00    -0.450 OA
ENDBRANCH   5   7
BRANCH   1  18
ATOM     17  C   LIG    1       -6.136   3.292  -0.041  0.00  0.00    +0.520 C 
ATOM     18  N   LIG    1       -7.173   2.957   0.752  0.00  0.00    -0.670 N 
ATOM     19  H   LIG    1       -7.413   2.025   0.868  0.00  0.00    +0.420 HD
ATOM     20  O   LIG    1       -5.895   4.460  -0.263  0.00  0.00    -0.510 OA
BRANCH  17  22
ATOM     21  C   LIG    1       -6.140   1.313  -1.535  0.00  0.00    +0.060 C 
ATOM     22  C   LIG    1       -5.276   2.216  -0.652  0.00  0.00    +0.250 C 
BRANCH  22  23
ATOM     23  N   LIG    1       -4.225   2.833  -1.465  0.00  0.00    -0.710 N 
ATOM     24  H   LIG    1       -4.359   3.718  -1.839  0.00  0.00    +0.410 HD
ATOM     25  C   LIG    1       -3.073   2.172  -1.692  0.00  0.00    +0.600 C 
ATOM     26  O   LIG    1       -2.906   1.062  -1.223  0.00  0.00    -0.530 OA
BRANCH  25  27
ATOM     27  C   LIG    1       -2.016   2.792  -2.510  0.00  0.00    -0.240 A 
ATOM     28  C   LIG    1       -2.046   4.021  -3.102  0.00  0.00    +0.240 A 
ATOM     29  O   LIG    1       -0.894   4.203  -3.756  0.00  0.00    -0.170 OA
ATOM     30  C   LIG    1       -0.091   3.136  -3.616  0.00  0.00    +0.170 A 
ATOM     31  C   LIG    1       -0.708   2.218  -2.856  0.00  0.00    +0.000 A 
ENDBRANCH  25  27
ENDBRANCH  22  23
ENDBRANCH  17  22
ENDBRANCH   1  18
TORSDOF 5
