REMARK  Name = ZINCrD00000hQ5bb.0
REMARK                            x       y       z     vdW  Elec       q    Type
REMARK                         _______ _______ _______ _____ _____    ______ ____
ROOT
ATOM      1  N   LIG    1       -1.664   0.594   1.693  0.00  0.00    -0.510 N 
ATOM      2  C   LIG    1       -0.699   1.595   1.245  0.00  0.00    +0.210 C 
ATOM      3  C   LIG    1       -0.005   1.092  -0.002  0.00  0.00    +0.050 C 
ATOM      4  C   LIG    1       -0.757   1.589  -1.248  0.00  0.00    +0.270 C 
ATOM      5  N   LIG    1       -2.218   1.529  -1.052  0.00  0.00    -0.610 N 
ATOM      6  C   LIG    1       -2.872   0.410  -0.404  0.00  0.00    +0.300 C 
ATOM      7  C   LIG    1       -2.974   2.555  -1.492  0.00  0.00    +0.570 C 
ATOM      8  O   LIG    1       -2.443   3.551  -1.945  0.00  0.00    -0.510 OA
ATOM      9  C   LIG    1       -2.955   0.665   1.120  0.00  0.00    +0.190 C 
ENDROOT
BRANCH   7  10
ATOM     10  C   LIG    1       -4.444   2.469  -1.425  0.00  0.00    -0.100 A 
ATOM     11  C   LIG    1       -5.111   1.406  -2.017  0.00  0.00    +0.090 A 
ATOM     12  C   LIG    1       -6.495   1.312  -1.952  0.00  0.00    +0.040 A 
ATOM     13  C   LIG    1       -7.236   2.268  -1.319  0.00  0.00    +0.000 A 
ATOM     14  C   LIG    1       -6.600   3.365  -0.712  0.00  0.00    -0.100 A 
ATOM     15  C   LIG    1       -7.339   4.364  -0.051  0.00  0.00    +0.100 A 
ATOM     16  C   LIG    1       -6.656   5.402   0.517  0.00  0.00    -0.020 A 
ATOM     17  C   LIG    1       -5.268   5.449   0.432  0.00  0.00    +0.310 A 
ATOM     18  N   LIG    1       -4.583   4.514  -0.185  0.00  0.00    -0.460 NA
ATOM     19 CL   LIG    1       -8.966   2.128  -1.263  0.00  0.00    -0.050 Cl
ATOM     20  C   LIG    1       -5.190   3.475  -0.759  0.00  0.00    +0.170 A 
ENDBRANCH   7  10
BRANCH   1  25
ATOM     21  C   LIG    1       -1.846   0.270   7.268  0.00  0.00    +0.150 C 
ATOM     22  C   LIG    1       -1.825   0.403   5.767  0.00  0.00    +0.060 A 
ATOM     23  C   LIG    1       -2.445   1.485   5.158  0.00  0.00    +0.040 A 
ATOM     24  C   LIG    1       -2.402   1.568   3.775  0.00  0.00    +0.000 A 
ATOM     25  C   LIG    1       -1.736   0.557   3.082  0.00  0.00    +0.250 A 
ATOM     26  N   LIG    1       -1.178  -0.441   3.751  0.00  0.00    -0.220 NA
ATOM     27  N   LIG    1       -1.218  -0.508   5.032  0.00  0.00    -0.230 NA
ENDBRANCH   1  25
TORSDOF 2
