REMARK  Name = ZINCkj000005jyar.0
REMARK                            x       y       z     vdW  Elec       q    Type
REMARK                         _______ _______ _______ _____ _____    ______ ____
ROOT
ATOM      1  C   LIG    1        2.287   2.047  -0.613  0.00  0.00    +0.510 C 
ATOM      2  N   LIG    1        1.280   2.264   0.257  0.00  0.00    -0.720 N 
ATOM      3  H   LIG    1        1.353   2.972   0.916  0.00  0.00    +0.410 HD
ATOM      4  O   LIG    1        2.196   1.162  -1.437  0.00  0.00    -0.500 OA
ENDROOT
BRANCH   1   6
ATOM      5  C   LIG    1        4.186   2.764   0.811  0.00  0.00    +0.090 C 
ATOM      6  C   LIG    1        3.525   2.905  -0.562  0.00  0.00    +0.290 C 
BRANCH   6   7
ATOM      7  N   LIG    1        4.462   2.472  -1.602  0.00  0.00    -0.380 N 
ATOM      8  C   LIG    1        5.368   1.484  -1.509  0.00  0.00    +0.490 A 
ATOM      9  N   LIG    1        6.006   1.410  -2.649  0.00  0.00    -0.540 NA
ATOM     10  C   LIG    1        5.543   2.336  -3.487  0.00  0.00    +0.430 A 
ATOM     11  N   LIG    1        4.596   3.012  -2.892  0.00  0.00    -0.310 NA
ENDBRANCH   6   7
ENDBRANCH   1   6
BRANCH   2  12
ATOM     12  C   LIG    1        0.077   1.430   0.207  0.00  0.00    +0.290 C 
BRANCH  12  13
ATOM     13  C   LIG    1       -0.845   1.794   1.372  0.00  0.00    +0.240 C 
BRANCH  13  14
ATOM     14  C   LIG    1       -0.173   1.440   2.674  0.00  0.00    -0.150 A 
ATOM     15  C   LIG    1       -0.149   0.195   3.153  0.00  0.00    -0.060 A 
ATOM     16  S   LIG    1        0.719   0.169   4.683  0.00  0.00    +0.210 S 
ATOM     17  C   LIG    1        1.009   1.901   4.582  0.00  0.00    -0.010 A 
ATOM     18  C   LIG    1        0.471   2.380   3.459  0.00  0.00    +0.010 A 
ENDBRANCH  13  14
BRANCH  13  19
ATOM     19  N   LIG    1       -2.105   1.048   1.252  0.00  0.00    -0.380 N 
ATOM     20  C   LIG    1       -2.783   1.431   0.007  0.00  0.00    +0.330 C 
ATOM     21  C   LIG    1       -2.970   1.361   2.397  0.00  0.00    +0.330 C 
ATOM     22  H   LIG    1       -1.909   0.059   1.239  0.00  0.00    +0.430 HD
ENDBRANCH  13  19
ENDBRANCH  12  13
ENDBRANCH   2  12
TORSDOF 6
