REMARK  Name = ZINCvU00000006HX.0
REMARK                            x       y       z     vdW  Elec       q    Type
REMARK                         _______ _______ _______ _____ _____    ______ ____
ROOT
ATOM      1  C   LIG    1       -1.230   3.139   0.094  0.00  0.00    -0.140 A 
ATOM      2  C   LIG    1       -1.091   2.015   0.916  0.00  0.00    +0.070 A 
ATOM      3  C   LIG    1        0.104   1.346   0.962  0.00  0.00    +0.030 A 
ATOM      4  C   LIG    1        1.176   1.777   0.184  0.00  0.00    -0.060 A 
ATOM      5  C   LIG    1        1.039   2.892  -0.640  0.00  0.00    -0.010 A 
ATOM      6  C   LIG    1       -0.153   3.569  -0.686  0.00  0.00    +0.100 A 
ENDROOT
BRANCH   1  16
ATOM      7  C   LIG    1       -7.286   5.245  -0.310  0.00  0.00    +0.110 A 
ATOM      8  C   LIG    1       -6.128   5.912   0.060  0.00  0.00    -0.060 A 
ATOM      9  C   LIG    1       -4.935   5.221   0.147  0.00  0.00    +0.070 A 
ATOM     10  C   LIG    1       -4.896   3.861  -0.132  0.00  0.00    +0.110 A 
ATOM     11  C   LIG    1       -6.052   3.193  -0.505  0.00  0.00    -0.070 A 
ATOM     12  C   LIG    1       -6.045   1.719  -0.815  0.00  0.00    +0.080 C 
ATOM     13  C   LIG    1       -4.632   1.251  -1.161  0.00  0.00    +0.020 C 
ATOM     14  C   LIG    1       -3.673   1.712  -0.056  0.00  0.00    +0.270 C 
ATOM     15  N   LIG    1       -3.671   3.181  -0.047  0.00  0.00    -0.540 N 
ATOM     16  C   LIG    1       -2.513   3.865   0.047  0.00  0.00    +0.560 C 
ATOM     17  O   LIG    1       -2.526   5.080   0.092  0.00  0.00    -0.510 OA
ATOM     18  C   LIG    1       -7.246   3.888  -0.591  0.00  0.00    +0.000 A 
BRANCH   7  20
ATOM     19  C   LIG    1       -8.430   7.318  -0.092  0.00  0.00    +0.250 C 
ATOM     20  O   LIG    1       -8.462   5.923  -0.396  0.00  0.00    -0.320 OA
ENDBRANCH   7  20
ENDBRANCH   1  16
BRANCH   4  21
ATOM     21  S   LIG    1        2.709   0.910   0.240  0.00  0.00    -0.080 S 
BRANCH  21  22
ATOM     22  C   LIG    1        3.748   1.841  -0.919  0.00  0.00    +0.190 C 
BRANCH  22  23
ATOM     23  C   LIG    1        5.116   1.213  -0.983  0.00  0.00    +0.060 A 
ATOM     24  C   LIG    1        5.496   0.237  -1.837  0.00  0.00    +0.120 A 
ATOM     25  N   LIG    1        6.807  -0.048  -1.568  0.00  0.00    -0.360 N 
ATOM     26  C   LIG    1        7.690  -0.934  -2.113  0.00  0.00    +0.220 A 
ATOM     27  C   LIG    1        8.956  -1.016  -1.651  0.00  0.00    +0.010 A 
ATOM     28  C   LIG    1        9.381  -0.186  -0.601  0.00  0.00    +0.050 A 
ATOM     29  C   LIG    1        8.512   0.702  -0.049  0.00  0.00    +0.070 A 
ATOM     30  C   LIG    1        7.194   0.775  -0.542  0.00  0.00    +0.230 A 
ATOM     31  N   LIG    1        6.157   1.531  -0.210  0.00  0.00    -0.480 NA
ENDBRANCH  22  23
ENDBRANCH  21  22
ENDBRANCH   4  21
TORSDOF 5
