REMARK  Name = ZINCrD00000F5LtU.0
REMARK                            x       y       z     vdW  Elec       q    Type
REMARK                         _______ _______ _______ _____ _____    ______ ____
ROOT
ATOM      1  N   LIG    1        4.399   1.305  -1.178  0.00  0.00    -0.980 NA
ENDROOT
BRANCH   1   2
ATOM      2  C   LIG    1        4.544   0.304  -2.238  0.00  0.00    +0.310 C 
ATOM      3  C   LIG    1        3.216  -0.455  -2.443  0.00  0.00    +0.050 C 
ATOM      4  C   LIG    1        3.699  -1.876  -2.802  0.00  0.00    +0.090 C 
ATOM      5  C   LIG    1        5.060  -2.008  -2.153  0.00  0.00    -0.080 A 
ATOM      6  C   LIG    1        5.810  -3.134  -1.870  0.00  0.00    +0.070 A 
ATOM      7  C   LIG    1        7.057  -3.009  -1.258  0.00  0.00    -0.020 A 
ATOM      8  C   LIG    1        7.542  -1.740  -0.933  0.00  0.00    +0.070 A 
ATOM      9  C   LIG    1        6.786  -0.624  -1.220  0.00  0.00    +0.030 A 
ATOM     10  C   LIG    1        5.547  -0.753  -1.828  0.00  0.00    -0.080 A 
BRANCH   7  11
ATOM     11  C   LIG    1        7.835  -4.174  -0.964  0.00  0.00    +0.250 C 
ATOM     12  N   LIG    1        8.453  -5.099  -0.730  0.00  0.00    -0.410 NA
ENDBRANCH   7  11
ENDBRANCH   1   2
BRANCH   1  13
ATOM     13  S   LIG    1        4.555   2.915  -1.532  0.00  0.00    +2.670 S 
ATOM     14  O   LIG    1        3.932   3.622  -0.469  0.00  0.00    -0.940 OA
ATOM     15  O   LIG    1        4.174   3.066  -2.893  0.00  0.00    -0.950 OA
BRANCH  13  17
ATOM     16  C   LIG    1        6.695   4.226  -0.622  0.00  0.00    +0.240 C 
ATOM     17  C   LIG    1        6.271   3.304  -1.450  0.00  0.00    -0.590 C 
ENDBRANCH  13  17
ENDBRANCH   1  13
BRANCH   1  18
ATOM     18  C   LIG    1        4.116   0.881   0.195  0.00  0.00    +0.390 C 
BRANCH  18  19
ATOM     19  C   LIG    1        2.627   0.746   0.383  0.00  0.00    +0.070 A 
ATOM     20  C   LIG    1        1.671   1.341  -0.368  0.00  0.00    -0.110 A 
ATOM     21  C   LIG    1        0.425   0.956   0.137  0.00  0.00    +0.230 A 
ATOM     22  N   LIG    1        0.625   0.159   1.155  0.00  0.00    -0.290 NA
ATOM     23  N   LIG    1        2.007   0.011   1.329  0.00  0.00    -0.360 N 
BRANCH  23  24
ATOM     24  C   LIG    1        2.664  -0.799   2.358  0.00  0.00    +0.320 C 
BRANCH  24  25
ATOM     25  C   LIG    1        2.715  -2.259   1.902  0.00  0.00    -0.030 C 
ATOM     26  C   LIG    1        3.288  -3.125   3.026  0.00  0.00    +0.030 C 
ATOM     27  C   LIG    1        3.607  -2.376   0.664  0.00  0.00    +0.020 C 
ENDBRANCH  24  25
ENDBRANCH  23  24
ENDBRANCH  18  19
ENDBRANCH   1  18
TORSDOF 8
