REMARK  Name = ZINCtV00000L6jBl.0
REMARK                            x       y       z     vdW  Elec       q    Type
REMARK                         _______ _______ _______ _____ _____    ______ ____
ROOT
ATOM      1  C   LIG    1       -3.253  -5.076  -0.413  0.00  0.00    +0.520 C 
ATOM      2  O   LIG    1       -4.381  -4.624  -0.413  0.00  0.00    -0.500 OA
ENDROOT
BRANCH   1   5
ATOM      3  C   LIG    1       -3.932  -8.755  -0.736  0.00  0.00    -0.080 A 
ATOM      4  C   LIG    1       -4.136  -7.395  -0.631  0.00  0.00    +0.080 A 
ATOM      5  C   LIG    1       -3.042  -6.534  -0.525  0.00  0.00    -0.120 A 
ATOM      6  C   LIG    1       -1.748  -7.056  -0.531  0.00  0.00    +0.070 A 
ATOM      7  C   LIG    1       -1.558  -8.419  -0.630  0.00  0.00    -0.080 A 
ATOM      8  C   LIG    1       -2.646  -9.267  -0.735  0.00  0.00    +0.060 A 
BRANCH   3  10
ATOM      9  C   LIG    1       -6.407  -8.873  -0.826  0.00  0.00    +0.030 C 
ATOM     10  C   LIG    1       -5.112  -9.686  -0.850  0.00  0.00    -0.030 C 
ATOM     11  C   LIG    1       -5.103 -10.667   0.324  0.00  0.00    +0.040 C 
ATOM     12  C   LIG    1       -5.022 -10.463  -2.165  0.00  0.00    +0.040 C 
ENDBRANCH   3  10
BRANCH   7  13
ATOM     13  C   LIG    1       -0.161  -8.986  -0.631  0.00  0.00    -0.030 C 
ATOM     14  C   LIG    1        0.001  -9.945   0.550  0.00  0.00    +0.040 C 
ATOM     15  C   LIG    1        0.852  -7.846  -0.505  0.00  0.00    +0.030 C 
ATOM     16  C   LIG    1        0.082  -9.741  -1.939  0.00  0.00    +0.040 C 
ENDBRANCH   7  13
ENDBRANCH   1   5
BRANCH   1  17
ATOM     17  O   LIG    1       -2.196  -4.248  -0.310  0.00  0.00    -0.330 OA
BRANCH  17  18
ATOM     18  C   LIG    1       -2.478  -2.828  -0.204  0.00  0.00    +0.270 C 
BRANCH  18  19
ATOM     19  C   LIG    1       -1.183  -2.064  -0.099  0.00  0.00    +0.520 C 
ATOM     20  N   LIG    1       -1.199  -0.721   0.010  0.00  0.00    -0.670 N 
ATOM     21  H   LIG    1       -2.044  -0.252   0.098  0.00  0.00    +0.420 HD
ATOM     22  O   LIG    1       -0.126  -2.659  -0.113  0.00  0.00    -0.490 OA
BRANCH  20  23
ATOM     23  C   LIG    1        0.002  -0.004  -0.004  0.00  0.00    +0.170 A 
ATOM     24  C   LIG    1        1.071  -0.452  -0.768  0.00  0.00    +0.040 A 
ATOM     25  C   LIG    1        2.256   0.259  -0.780  0.00  0.00    -0.000 A 
ATOM     26  C   LIG    1        2.378   1.417  -0.032  0.00  0.00    +0.030 A 
ATOM     27  C   LIG    1        1.314   1.866   0.730  0.00  0.00    -0.000 A 
ATOM     28 CL   LIG    1        1.470   3.319   1.668  0.00  0.00    -0.050 Cl
ATOM     29 CL   LIG    1        3.594  -0.301  -1.735  0.00  0.00    -0.050 Cl
ATOM     30  C   LIG    1        0.126   1.159   0.746  0.00  0.00    +0.020 A 
ENDBRANCH  20  23
ENDBRANCH  18  19
ENDBRANCH  17  18
ENDBRANCH   1  17
TORSDOF 7
