REMARK  Name = ZINCtV000002JEDS.0
REMARK                            x       y       z     vdW  Elec       q    Type
REMARK                         _______ _______ _______ _____ _____    ______ ____
ROOT
ATOM      1  N   LIG    1       -4.146   1.394  -0.510  0.00  0.00    -0.480 N 
ATOM      2  C   LIG    1       -2.935   0.904  -0.180  0.00  0.00    +0.510 C 
ATOM      3  O   LIG    1       -2.735   0.483   0.940  0.00  0.00    -0.450 OA
ENDROOT
BRANCH   1   8
ATOM      4  C   LIG    1       -6.213   0.455   3.791  0.00  0.00    +0.160 C 
ATOM      5  C   LIG    1       -6.182   0.937   2.364  0.00  0.00    +0.100 A 
ATOM      6  C   LIG    1       -7.257   1.429   1.745  0.00  0.00    -0.100 A 
ATOM      7  S   LIG    1       -6.788   1.870   0.105  0.00  0.00    +0.130 S 
ATOM      8  C   LIG    1       -5.189   1.349   0.410  0.00  0.00    +0.270 A 
ATOM      9  N   LIG    1       -5.090   0.901   1.623  0.00  0.00    -0.470 NA
ENDBRANCH   1   8
BRANCH   1  10
ATOM     10  C   LIG    1       -4.356   1.948  -1.779  0.00  0.00    +0.100 A 
ATOM     11  C   LIG    1       -4.016   3.271  -2.026  0.00  0.00    +0.030 A 
ATOM     12  C   LIG    1       -4.220   3.813  -3.279  0.00  0.00    +0.020 A 
ATOM     13  C   LIG    1       -4.772   3.042  -4.286  0.00  0.00    +0.030 A 
ATOM     14  C   LIG    1       -5.116   1.725  -4.043  0.00  0.00    +0.020 A 
ATOM     15  C   LIG    1       -4.910   1.176  -2.792  0.00  0.00    +0.030 A 
ENDBRANCH   1  10
BRANCH   2  16
ATOM     16  C   LIG    1       -1.828   0.880  -1.203  0.00  0.00    +0.080 C 
BRANCH  16  17
ATOM     17  C   LIG    1       -0.609   0.163  -0.618  0.00  0.00    +0.110 C 
BRANCH  17  18
ATOM     18  C   LIG    1        0.537   0.246  -1.593  0.00  0.00    -0.070 A 
ATOM     19  C   LIG    1        0.359  -0.149  -2.905  0.00  0.00    +0.010 A 
ATOM     20  C   LIG    1        1.409  -0.069  -3.800  0.00  0.00    +0.000 A 
ATOM     21  C   LIG    1        2.641   0.398  -3.380  0.00  0.00    +0.000 A 
ATOM     22  C   LIG    1        2.821   0.788  -2.066  0.00  0.00    +0.000 A 
ATOM     23  C   LIG    1        1.769   0.713  -1.173  0.00  0.00    +0.010 A 
ENDBRANCH  17  18
BRANCH  17  24
ATOM     24  C   LIG    1       -0.950  -1.283  -0.365  0.00  0.00    -0.070 A 
ATOM     25  C   LIG    1       -0.700  -1.845   0.873  0.00  0.00    +0.030 A 
ATOM     26  C   LIG    1       -1.017  -3.170   1.106  0.00  0.00    +0.000 A 
ATOM     27  C   LIG    1       -1.574  -3.936   0.099  0.00  0.00    +0.000 A 
ATOM     28  C   LIG    1       -1.819  -3.374  -1.141  0.00  0.00    +0.000 A 
ATOM     29  C   LIG    1       -1.507  -2.048  -1.373  0.00  0.00    +0.000 A 
ENDBRANCH  17  24
ENDBRANCH  16  17
ENDBRANCH   2  16
TORSDOF 6
