REMARK  Name = ZINCvU0000000GW8.0
REMARK                            x       y       z     vdW  Elec       q    Type
REMARK                         _______ _______ _______ _____ _____    ______ ____
ROOT
ATOM      1  C   LIG    1       -5.957   1.978   0.614  0.00  0.00    +0.470 C 
ATOM      2  O   LIG    1       -5.963   3.183   0.522  0.00  0.00    -0.490 OA
ENDROOT
BRANCH   1   8
ATOM      3  C   LIG    1       -8.077  -1.438   3.232  0.00  0.00    +0.560 C 
ATOM      4  N   LIG    1       -8.011  -0.117   2.973  0.00  0.00    -0.610 N 
ATOM      5  C   LIG    1       -9.155   0.760   3.258  0.00  0.00    +0.270 C 
ATOM      6  C   LIG    1       -9.506   1.540   1.987  0.00  0.00    +0.030 C 
ATOM      7  C   LIG    1       -8.261   2.274   1.483  0.00  0.00    +0.050 C 
ATOM      8  C   LIG    1       -7.171   1.257   1.140  0.00  0.00    +0.030 C 
ATOM      9  C   LIG    1       -6.793   0.473   2.401  0.00  0.00    +0.310 C 
ATOM     10  O   LIG    1       -7.167  -2.170   2.896  0.00  0.00    -0.520 OA
BRANCH   3  15
ATOM     11  C   LIG    1      -12.669  -3.615   5.933  0.00  0.00    +0.100 C 
ATOM     12  C   LIG    1      -11.467  -3.045   5.225  0.00  0.00    -0.060 A 
ATOM     13  C   LIG    1      -10.905  -3.729   4.162  0.00  0.00    +0.000 A 
ATOM     14  C   LIG    1       -9.804  -3.213   3.511  0.00  0.00    +0.070 A 
ATOM     15  C   LIG    1       -9.258  -1.997   3.926  0.00  0.00    -0.140 A 
ATOM     16  C   LIG    1       -9.827  -1.315   5.002  0.00  0.00    +0.040 A 
ATOM     17  C   LIG    1      -10.931  -1.839   5.641  0.00  0.00    +0.000 A 
ENDBRANCH   3  15
ENDBRANCH   1   8
BRANCH   1  18
ATOM     18  O   LIG    1       -4.869   1.283   0.249  0.00  0.00    -0.320 OA
BRANCH  18  19
ATOM     19  C   LIG    1       -3.736   2.044  -0.249  0.00  0.00    +0.240 C 
BRANCH  19  20
ATOM     20  C   LIG    1       -3.855   2.203  -1.743  0.00  0.00    -0.220 A 
ATOM     21  C   LIG    1       -3.478   3.280  -2.433  0.00  0.00    +0.040 A 
ATOM     22  C   LIG    1       -3.682   3.197  -3.800  0.00  0.00    +0.010 A 
ATOM     23  C   LIG    1       -4.234   2.057  -4.218  0.00  0.00    -0.030 A 
ATOM     24  S   LIG    1       -4.520   1.001  -2.841  0.00  0.00    +0.150 S 
ENDBRANCH  19  20
BRANCH  19  25
ATOM     25  C   LIG    1       -2.459   1.315   0.079  0.00  0.00    +0.430 C 
ATOM     26  O   LIG    1       -2.485   0.128   0.332  0.00  0.00    -0.410 OA
BRANCH  25  27
ATOM     27  C   LIG    1       -1.231   2.013   0.090  0.00  0.00    -0.310 A 
ATOM     28  C   LIG    1       -0.005   1.464   0.372  0.00  0.00    +0.130 A 
ATOM     29  C   LIG    1        1.022   2.370   0.306  0.00  0.00    -0.010 A 
ATOM     30  C   LIG    1        0.659   3.621  -0.011  0.00  0.00    -0.040 A 
ATOM     31  S   LIG    1       -1.027   3.726  -0.249  0.00  0.00    +0.230 S 
ENDBRANCH  25  27
ENDBRANCH  19  25
ENDBRANCH  18  19
ENDBRANCH   1  18
TORSDOF 7
