REMARK  Name = ZINCkj00000SqVty.0
REMARK                            x       y       z     vdW  Elec       q    Type
REMARK                         _______ _______ _______ _____ _____    ______ ____
ROOT
ATOM      1  C   LIG    1        2.712   1.873   3.943  0.00  0.00    +0.490 C 
ATOM      2  N   LIG    1        2.130   2.211   5.080  0.00  0.00    -0.570 NA
ATOM      3  C   LIG    1        0.902   1.778   5.355  0.00  0.00    +0.680 C 
ATOM      4  N   LIG    1        0.262   1.004   4.485  0.00  0.00    -0.620 N 
ATOM      5  C   LIG    1        0.851   0.666   3.343  0.00  0.00    +0.680 C 
ATOM      6  N   LIG    1        0.191  -0.137   2.437  0.00  0.00    -0.650 N 
ATOM      7  H   LIG    1       -0.704  -0.456   2.633  0.00  0.00    +0.430 HD
ATOM      8  H   LIG    1       -0.633   0.687   4.683  0.00  0.00    +0.440 HD
ATOM      9  N   LIG    1        2.081   1.100   3.077  0.00  0.00    -0.560 NA
ENDROOT
BRANCH   3  10
ATOM     10  N   LIG    1        0.294   2.132   6.543  0.00  0.00    -0.770 NA
ATOM     11  H   LIG    1        0.762   2.697   7.177  0.00  0.00    +0.450 HD
ATOM     12  H   LIG    1       -0.601   1.816   6.742  0.00  0.00    +0.430 HD
ENDBRANCH   3  10
BRANCH   1  14
ATOM     13  C   LIG    1        4.606   3.231   4.793  0.00  0.00    +0.070 C 
ATOM     14  C   LIG    1        4.103   2.366   3.635  0.00  0.00    +0.170 C 
ENDBRANCH   1  14
BRANCH   6  15
ATOM     15  C   LIG    1        0.841  -0.509   1.178  0.00  0.00    +0.260 C 
BRANCH  15  16
ATOM     16  C   LIG    1        0.965  -2.032   1.098  0.00  0.00    +0.390 C 
ATOM     17  F   LIG    1       -0.309  -2.607   1.153  0.00  0.00    -0.200 F 
ATOM     18  F   LIG    1        1.732  -2.494   2.174  0.00  0.00    -0.190 F 
ENDBRANCH  15  16
BRANCH  15  19
ATOM     19  C   LIG    1        0.002  -0.004   0.002  0.00  0.00    +0.100 C 
BRANCH  19  20
ATOM     20  C   LIG    1       -0.019   1.526   0.010  0.00  0.00    +0.120 C 
ATOM     21  C   LIG    1       -0.945   2.123   1.083  0.00  0.00    -0.030 C 
ATOM     22  C   LIG    1       -1.355   3.170   0.031  0.00  0.00    +0.010 C 
ATOM     23  C   LIG    1       -0.965   2.135  -1.038  0.00  0.00    +0.010 C 
BRANCH  20  24
ATOM     24  O   LIG    1        1.290   2.099   0.001  0.00  0.00    -0.530 OA
ATOM     25  H   LIG    1        1.297   3.066   0.006  0.00  0.00    +0.380 HD
ENDBRANCH  20  24
ENDBRANCH  19  20
ENDBRANCH  15  19
ENDBRANCH   6  15
TORSDOF 7
