REMARK  Name = ZINCAx00000009ES.0
REMARK                            x       y       z     vdW  Elec       q    Type
REMARK                         _______ _______ _______ _____ _____    ______ ____
ROOT
ATOM      1  O   LIG    1        5.259  -0.573  -4.281  0.00  0.00    -0.500 OA
ATOM      2  C   LIG    1        5.028   0.123  -5.247  0.00  0.00    +0.530 C 
ATOM      3  N   LIG    1        4.098   1.096  -5.170  0.00  0.00    -0.670 N 
ATOM      4  H   LIG    1        3.858   1.601  -5.962  0.00  0.00    +0.420 HD
ENDROOT
BRANCH   2   5
ATOM      5  C   LIG    1        5.780  -0.100  -6.533  0.00  0.00    +0.010 C 
ATOM      6  C   LIG    1        4.840  -0.634  -7.639  0.00  0.00    +0.100 C 
ATOM      7  C   LIG    1        5.693  -1.622  -8.405  0.00  0.00    +0.520 C 
ATOM      8  N   LIG    1        6.779  -1.950  -7.685  0.00  0.00    -0.550 N 
ATOM      9  O   LIG    1        5.433  -2.054  -9.508  0.00  0.00    -0.500 OA
ATOM     10  C   LIG    1        6.790  -1.260  -6.390  0.00  0.00    +0.310 C 
BRANCH   8  11
ATOM     11  C   LIG    1        7.773  -2.839  -8.116  0.00  0.00    +0.170 A 
ATOM     12  C   LIG    1        8.796  -3.208  -7.252  0.00  0.00    -0.010 A 
ATOM     13  C   LIG    1        9.777  -4.083  -7.677  0.00  0.00    +0.060 A 
ATOM     14  C   LIG    1        9.743  -4.596  -8.964  0.00  0.00    +0.030 A 
ATOM     15  O   LIG    1       10.721  -5.455  -9.366  0.00  0.00    -0.310 OA
ATOM     16  C   LIG    1       10.452  -6.236 -10.535  0.00  0.00    +0.220 C 
ATOM     17  C   LIG    1        9.871  -5.308 -11.610  0.00  0.00    +0.220 C 
ATOM     18  O   LIG    1        8.668  -4.726 -11.097  0.00  0.00    -0.300 OA
ATOM     19  C   LIG    1        8.720  -4.230  -9.831  0.00  0.00    +0.080 A 
ATOM     20  C   LIG    1        7.733  -3.355  -9.403  0.00  0.00    +0.020 A 
ENDBRANCH   8  11
ENDBRANCH   2   5
BRANCH   3  21
ATOM     21  C   LIG    1        3.479   1.376  -3.946  0.00  0.00    +0.200 A 
ATOM     22  C   LIG    1        4.185   1.231  -2.760  0.00  0.00    -0.010 A 
ATOM     23  C   LIG    1        3.571   1.509  -1.554  0.00  0.00    +0.140 A 
ATOM     24  C   LIG    1        2.254   1.931  -1.528  0.00  0.00    -0.690 A 
ATOM     25  C   LIG    1        1.546   2.071  -2.708  0.00  0.00    +0.190 A 
ATOM     26  C   LIG    1        2.156   1.799  -3.917  0.00  0.00    -0.030 A 
BRANCH  24  27
ATOM     27  S   LIG    1        1.474   2.284   0.012  0.00  0.00    +2.690 S 
ATOM     28  O   LIG    1        0.077   2.143  -0.204  0.00  0.00    -0.930 OA
ATOM     29  O   LIG    1        2.186   1.551   1.000  0.00  0.00    -0.950 OA
BRANCH  27  30
ATOM     30  N   LIG    1        1.737   3.886   0.338  0.00  0.00    -1.030 N 
ATOM     31  H   LIG    1        2.278   4.143   1.101  0.00  0.00    +0.430 HD
BRANCH  30  32
ATOM     32  C   LIG    1        1.195   4.848  -0.473  0.00  0.00    +0.400 C 
ATOM     33  N   LIG    1        0.488   4.505  -1.480  0.00  0.00    -0.580 NA
ATOM     34  C   LIG    1       -0.104   5.523  -2.361  0.00  0.00    +0.220 C 
ATOM     35  C   LIG    1        1.007   6.152  -3.203  0.00  0.00    +0.010 C 
ATOM     36  C   LIG    1        1.657   7.307  -2.460  0.00  0.00    +0.000 C 
ATOM     37  C   LIG    1        2.408   6.871  -1.213  0.00  0.00    +0.040 C 
ATOM     38  C   LIG    1        1.434   6.311  -0.166  0.00  0.00    +0.070 C 
ENDBRANCH  30  32
ENDBRANCH  27  30
ENDBRANCH  24  27
ENDBRANCH   3  21
TORSDOF 6
