REMARK  Name = ZINCrH00000No4DG.0
REMARK                            x       y       z     vdW  Elec       q    Type
REMARK                         _______ _______ _______ _____ _____    ______ ____
ROOT
ATOM      1  C   LIG    1       -0.578   1.467  -6.134  0.00  0.00    +0.020 C 
ENDROOT
BRANCH   1   2
ATOM      2  C   LIG    1        0.138   0.974  -7.393  0.00  0.00    +0.260 C 
BRANCH   2   4
ATOM      3  C   LIG    1       -0.117   1.146  -9.810  0.00  0.00    +0.510 C 
ATOM      4  N   LIG    1       -0.571   1.459  -8.580  0.00  0.00    -0.740 N 
ATOM      5  H   LIG    1       -1.366   2.005  -8.480  0.00  0.00    +0.400 HD
ATOM      6  O   LIG    1        0.877   0.463  -9.934  0.00  0.00    -0.530 OA
BRANCH   3   7
ATOM      7  C   LIG    1       -0.846   1.645 -11.031  0.00  0.00    +0.040 C 
BRANCH   7  12
ATOM      8  C   LIG    1        1.887   1.195 -16.118  0.00  0.00    +0.010 C 
ATOM      9  C   LIG    1        1.171   1.688 -14.859  0.00  0.00    -0.020 C 
ATOM     10  C   LIG    1        1.979   1.288 -13.623  0.00  0.00    +0.010 C 
ATOM     11  C   LIG    1        1.262   1.781 -12.364  0.00  0.00    +0.010 C 
ATOM     12  C   LIG    1       -0.130   1.152 -12.290  0.00  0.00    +0.010 C 
ATOM     13  C   LIG    1       -0.938   1.552 -13.526  0.00  0.00    +0.010 C 
ATOM     14  C   LIG    1       -0.221   1.059 -14.785  0.00  0.00    -0.020 C 
ATOM     15  C   LIG    1       -1.029   1.460 -16.021  0.00  0.00    +0.010 C 
ENDBRANCH   7  12
ENDBRANCH   3   7
ENDBRANCH   2   4
ENDBRANCH   1   2
BRANCH   1  16
ATOM     16  C   LIG    1        0.162   0.960  -4.895  0.00  0.00    +0.260 C 
BRANCH  16  17
ATOM     17  N   LIG    1       -0.524   1.433  -3.689  0.00  0.00    -0.730 N 
ATOM     18  H   LIG    1       -1.321   1.980  -3.768  0.00  0.00    +0.400 HD
ATOM     19  C   LIG    1       -0.047   1.107  -2.471  0.00  0.00    +0.510 C 
ATOM     20  O   LIG    1        0.949   0.422  -2.373  0.00  0.00    -0.540 OA
BRANCH  19  21
ATOM     21  C   LIG    1       -0.753   1.593  -1.232  0.00  0.00    +0.070 C 
BRANCH  21  22
ATOM     22  C   LIG    1       -0.013   1.086   0.008  0.00  0.00    +0.060 C 
BRANCH  22  23
ATOM     23  C   LIG    1       -0.718   1.572   1.248  0.00  0.00    +0.430 C 
ATOM     24  O   LIG    1       -1.716   2.257   1.150  0.00  0.00    -0.450 OA
BRANCH  23  25
ATOM     25  C   LIG    1       -0.219   1.230   2.524  0.00  0.00    -0.310 A 
ATOM     26  C   LIG    1       -0.769   1.610   3.722  0.00  0.00    +0.110 A 
ATOM     27  C   LIG    1       -0.078   1.137   4.809  0.00  0.00    -0.010 A 
ATOM     28  C   LIG    1        1.000   0.396   4.520  0.00  0.00    -0.050 A 
ATOM     29  S   LIG    1        1.204   0.244   2.833  0.00  0.00    +0.240 S 
ENDBRANCH  23  25
ENDBRANCH  22  23
ENDBRANCH  21  22
ENDBRANCH  19  21
ENDBRANCH  16  17
ENDBRANCH   1  16
TORSDOF 10
