REMARK  Name = ZINCrH000004tpKQ.0
REMARK                            x       y       z     vdW  Elec       q    Type
REMARK                         _______ _______ _______ _____ _____    ______ ____
ROOT
ATOM      1  C   LIG    1        6.038   1.632   0.285  0.00  0.00    +0.170 C 
ENDROOT
BRANCH   1   6
ATOM      2  C   LIG    1       10.341  -0.137  -1.586  0.00  0.00    -0.190 A 
ATOM      3  C   LIG    1        9.357   0.140  -0.642  0.00  0.00    +0.370 A 
ATOM      4  N   LIG    1        8.149   0.787  -0.725  0.00  0.00    -0.590 N 
ATOM      5  H   LIG    1        7.853   1.150  -1.575  0.00  0.00    +0.440 HD
ATOM      6  C   LIG    1        7.363   0.921   0.381  0.00  0.00    +0.210 A 
ATOM      7  C   LIG    1        7.779   0.418   1.566  0.00  0.00    -0.060 A 
ATOM      8  C   LIG    1        9.018  -0.250   1.646  0.00  0.00    +0.570 A 
ATOM      9  O   LIG    1        9.397  -0.709   2.709  0.00  0.00    -0.460 OA
ATOM     10  N   LIG    1        9.784  -0.375   0.543  0.00  0.00    -0.350 N 
ATOM     11  N   LIG    1       11.033  -0.971   0.334  0.00  0.00    -0.250 NA
ATOM     12  C   LIG    1       11.370  -0.836  -0.918  0.00  0.00    +0.370 A 
BRANCH   2  14
ATOM     13  N   LIG    1       10.294   0.502  -4.073  0.00  0.00    -0.410 NA
ATOM     14  C   LIG    1       10.315   0.220  -2.973  0.00  0.00    +0.280 C 
ENDBRANCH   2  14
ENDBRANCH   1   6
BRANCH   1  15
ATOM     15  S   LIG    1        6.318   3.416   0.170  0.00  0.00    +0.120 S 
BRANCH  15  16
ATOM     16  C   LIG    1        4.652   3.982   0.073  0.00  0.00    +0.030 A 
ATOM     17  N   LIG    1        3.576   3.256   0.086  0.00  0.00    -0.250 NA
ATOM     18  N   LIG    1        2.356   3.889  -0.001  0.00  0.00    -0.300 N 
ATOM     19  C   LIG    1        2.376   5.231  -0.099  0.00  0.00    +0.210 A 
ATOM     20  S   LIG    1        1.036   6.290  -0.227  0.00  0.00    -0.380 S 
ATOM     21  S   LIG    1        4.097   5.660  -0.064  0.00  0.00    +0.160 S 
BRANCH  18  22
ATOM     22  C   LIG    1        1.155   3.171   0.008  0.00  0.00    +0.100 A 
ATOM     23  C   LIG    1        0.118   3.559   0.846  0.00  0.00    +0.100 A 
ATOM     24  C   LIG    1       -1.067   2.849   0.853  0.00  0.00    +0.010 A 
ATOM     25  C   LIG    1       -1.219   1.748   0.028  0.00  0.00    +0.130 A 
ATOM     26  C   LIG    1       -0.189   1.362  -0.813  0.00  0.00    +0.000 A 
ATOM     27  F   LIG    1       -2.377   1.051   0.040  0.00  0.00    -0.130 F 
ATOM     28  C   LIG    1        0.997   2.069  -0.823  0.00  0.00    +0.080 A 
ENDBRANCH  18  22
ENDBRANCH  15  16
ENDBRANCH   1  15
TORSDOF 5
