REMARK  Name = ZINCrH00000No4xo.0
REMARK                            x       y       z     vdW  Elec       q    Type
REMARK                         _______ _______ _______ _____ _____    ______ ____
ROOT
ATOM      1  C   LIG    1       -0.832   1.695   3.726  0.00  0.00    +0.290 C 
ENDROOT
BRANCH   1   2
ATOM      2  C   LIG    1        0.157   1.887   4.847  0.00  0.00    -0.100 A 
ATOM      3  C   LIG    1        0.068   2.990   5.638  0.00  0.00    +0.050 A 
ATOM      4  C   LIG    1        0.986   3.169   6.688  0.00  0.00    -0.050 A 
ATOM      5  C   LIG    1        0.923   4.293   7.528  0.00  0.00    +0.030 A 
ATOM      6  C   LIG    1        1.832   4.436   8.531  0.00  0.00    +0.000 A 
ATOM      7  C   LIG    1        2.827   3.483   8.739  0.00  0.00    +0.010 A 
ATOM      8  C   LIG    1        2.918   2.381   7.944  0.00  0.00    +0.020 A 
ATOM      9  C   LIG    1        1.997   2.199   6.899  0.00  0.00    -0.050 A 
ATOM     10  C   LIG    1        2.060   1.075   6.058  0.00  0.00    +0.030 A 
ATOM     11  C   LIG    1        1.151   0.933   5.055  0.00  0.00    +0.020 A 
ENDBRANCH   1   2
BRANCH   1  13
ATOM     12  C   LIG    1        0.455   2.011   1.682  0.00  0.00    +0.520 C 
ATOM     13  N   LIG    1       -0.140   1.167   2.548  0.00  0.00    -0.730 N 
ATOM     14  H   LIG    1       -0.109   0.210   2.392  0.00  0.00    +0.400 HD
ATOM     15  O   LIG    1        0.339   3.210   1.826  0.00  0.00    -0.530 OA
BRANCH  12  16
ATOM     16  C   LIG    1        1.264   1.465   0.533  0.00  0.00    -0.010 C 
ATOM     17  C   LIG    1        2.418   0.621   1.079  0.00  0.00    +0.040 C 
BRANCH  16  18
ATOM     18  C   LIG    1        1.826   2.625  -0.291  0.00  0.00    +0.040 C 
BRANCH  18  19
ATOM     19  C   LIG    1        2.542   2.073  -1.526  0.00  0.00    +0.020 C 
BRANCH  19  20
ATOM     20  C   LIG    1        3.103   3.233  -2.351  0.00  0.00    +0.170 C 
BRANCH  20  22
ATOM     21  C   LIG    1        4.341   2.278  -4.486  0.00  0.00    +0.010 C 
ATOM     22  C   LIG    1        3.792   2.702  -3.538  0.00  0.00    -0.190 C 
ENDBRANCH  20  22
ENDBRANCH  19  20
ENDBRANCH  18  19
ENDBRANCH  16  18
ENDBRANCH  12  16
ENDBRANCH   1  13
BRANCH   1  23
ATOM     23  C   LIG    1       -1.916   0.709   4.165  0.00  0.00    +0.290 C 
BRANCH  23  24
ATOM     24  N   LIG    1       -2.826   0.453   3.046  0.00  0.00    -0.730 N 
ATOM     25  H   LIG    1       -2.726   0.947   2.217  0.00  0.00    +0.400 HD
ATOM     26  C   LIG    1       -3.803  -0.467   3.168  0.00  0.00    +0.540 C 
ATOM     27  O   LIG    1       -3.929  -1.085   4.208  0.00  0.00    -0.540 OA
BRANCH  26  28
ATOM     28  C   LIG    1       -4.717  -0.723   2.044  0.00  0.00    -0.090 C 
ATOM     29  C   LIG    1       -5.681  -1.631   2.165  0.00  0.00    +0.150 C 
ENDBRANCH  26  28
ENDBRANCH  23  24
ENDBRANCH   1  23
TORSDOF 10
