REMARK  Name = ZINCpk000000np3E.0
REMARK                            x       y       z     vdW  Elec       q    Type
REMARK                         _______ _______ _______ _____ _____    ______ ____
ROOT
ATOM      1  N   LIG    1       -6.204   1.119  -6.011  0.00  0.00    -0.530 NA
ATOM      2  C   LIG    1       -5.888   2.351  -6.745  0.00  0.00    +0.170 C 
ATOM      3  C   LIG    1       -4.377   2.421  -6.994  0.00  0.00    +0.300 C 
ATOM      4  N   LIG    1       -3.684   2.270  -5.706  0.00  0.00    -0.610 N 
ATOM      5  C   LIG    1       -4.044   1.127  -4.852  0.00  0.00    +0.280 C 
ATOM      6  C   LIG    1       -2.741   3.152  -5.320  0.00  0.00    +0.560 C 
ATOM      7  O   LIG    1       -2.515   4.135  -5.998  0.00  0.00    -0.530 OA
ATOM      8  C   LIG    1       -5.572   1.112  -4.685  0.00  0.00    +0.170 C 
ENDROOT
BRANCH   6   9
ATOM      9  C   LIG    1       -1.982   2.924  -4.072  0.00  0.00    -0.120 A 
ATOM     10  C   LIG    1       -1.583   4.006  -3.287  0.00  0.00    +0.060 A 
ATOM     11  C   LIG    1       -0.875   3.786  -2.123  0.00  0.00    +0.040 A 
ATOM     12  C   LIG    1       -0.560   2.496  -1.735  0.00  0.00    -0.090 A 
ATOM     13  C   LIG    1       -0.947   1.419  -2.512  0.00  0.00    +0.020 A 
ATOM     14  C   LIG    1       -1.661   1.625  -3.674  0.00  0.00    +0.040 A 
BRANCH  12  15
ATOM     15  C   LIG    1        0.215   2.264  -0.463  0.00  0.00    +0.380 C 
BRANCH  15  16
ATOM     16  N   LIG    1       -0.719   2.112   0.656  0.00  0.00    -0.370 N 
ATOM     17  C   LIG    1       -0.775   1.066   1.507  0.00  0.00    +0.220 A 
ATOM     18  C   LIG    1       -1.766   1.310   2.395  0.00  0.00    -0.120 A 
ATOM     19  C   LIG    1       -2.342   2.542   2.071  0.00  0.00    +0.220 A 
ATOM     20  N   LIG    1       -1.715   3.024   1.028  0.00  0.00    -0.290 NA
ENDBRANCH  15  16
ENDBRANCH  12  15
ENDBRANCH   6   9
BRANCH   1  21
ATOM     21  C   LIG    1       -7.656   0.928  -5.902  0.00  0.00    +0.150 C 
BRANCH  21  23
ATOM     22  C   LIG    1       -9.469  -0.756  -5.556  0.00  0.00    +0.020 C 
ATOM     23  C   LIG    1       -7.955  -0.533  -5.561  0.00  0.00    +0.130 C 
ATOM     24  C   LIG    1       -7.309  -1.443  -6.607  0.00  0.00    +0.070 C 
BRANCH  23  25
ATOM     25  O   LIG    1       -7.424  -0.839  -4.270  0.00  0.00    -0.550 OA
ATOM     26  H   LIG    1       -7.790  -0.298  -3.556  0.00  0.00    +0.370 HD
ENDBRANCH  23  25
ENDBRANCH  21  23
ENDBRANCH   1  21
TORSDOF 6
