REMARK  Name = ZINCvU0000000An2.0
REMARK                            x       y       z     vdW  Elec       q    Type
REMARK                         _______ _______ _______ _____ _____    ______ ____
ROOT
ATOM      1  C   LIG    1       -2.477   6.262  -4.432  0.00  0.00    -0.030 C 
ATOM      2  C   LIG    1       -1.136   6.976  -4.249  0.00  0.00    +0.040 C 
ATOM      3  C   LIG    1       -0.830   7.105  -2.754  0.00  0.00    +0.260 C 
ATOM      4  N   LIG    1       -0.892   5.771  -2.142  0.00  0.00    -0.630 N 
ATOM      5  C   LIG    1       -2.101   4.959  -2.337  0.00  0.00    +0.300 C 
ATOM      6  C   LIG    1        0.143   5.298  -1.419  0.00  0.00    +0.710 C 
ATOM      7  N   LIG    1        1.204   6.089  -1.164  0.00  0.00    -0.740 N 
ATOM      8  H   LIG    1        1.256   6.973  -1.560  0.00  0.00    +0.390 HD
ATOM      9  O   LIG    1        0.120   4.157  -0.998  0.00  0.00    -0.580 OA
ATOM     10  C   LIG    1       -2.395   4.856  -3.833  0.00  0.00    +0.040 C 
ENDROOT
BRANCH   1  11
ATOM     11  C   LIG    1       -2.798   6.164  -5.901  0.00  0.00    +0.400 C 
ATOM     12  O   LIG    1       -1.901   6.091  -6.714  0.00  0.00    -0.450 OA
BRANCH  11  17
ATOM     13  C   LIG    1       -8.274   6.132  -7.652  0.00  0.00    +0.100 C 
ATOM     14  C   LIG    1       -6.838   6.140  -7.193  0.00  0.00    -0.050 A 
ATOM     15  C   LIG    1       -5.817   6.058  -8.124  0.00  0.00    +0.000 A 
ATOM     16  C   LIG    1       -4.502   6.064  -7.712  0.00  0.00    +0.070 A 
ATOM     17  C   LIG    1       -4.200   6.156  -6.349  0.00  0.00    -0.180 A 
ATOM     18  C   LIG    1       -5.237   6.234  -5.414  0.00  0.00    +0.060 A 
ATOM     19  C   LIG    1       -6.548   6.231  -5.843  0.00  0.00    +0.000 A 
ENDBRANCH  11  17
ENDBRANCH   1  11
BRANCH   7  20
ATOM     20  C   LIG    1        2.279   5.614  -0.289  0.00  0.00    +0.300 C 
ATOM     21  C   LIG    1        3.276   4.790  -1.107  0.00  0.00    +0.040 C 
BRANCH  20  22
ATOM     22  C   LIG    1        2.987   6.795   0.324  0.00  0.00    -0.070 A 
ATOM     23  C   LIG    1        3.240   7.920  -0.439  0.00  0.00    +0.030 A 
ATOM     24  C   LIG    1        3.889   9.006   0.120  0.00  0.00    +0.050 A 
ATOM     25  C   LIG    1        4.286   8.970   1.441  0.00  0.00    +0.010 A 
ATOM     26  C   LIG    1        4.034   7.841   2.211  0.00  0.00    -0.100 A 
ATOM     27  C   LIG    1        3.382   6.751   1.646  0.00  0.00    +0.070 A 
BRANCH  26  28
ATOM     28  S   LIG    1        4.539   7.790   3.898  0.00  0.00    -0.020 S 
BRANCH  28  29
ATOM     29  C   LIG    1        5.321   9.409   4.138  0.00  0.00    +0.450 C 
ATOM     30  F   LIG    1        6.400   9.542   3.258  0.00  0.00    -0.160 F 
ATOM     31  F   LIG    1        5.779   9.515   5.456  0.00  0.00    -0.140 F 
ATOM     32  F   LIG    1        4.387  10.420   3.887  0.00  0.00    -0.160 F 
ENDBRANCH  28  29
ENDBRANCH  26  28
ENDBRANCH  20  22
ENDBRANCH   7  20
TORSDOF 6
