REMARK  Name = ZINCqH0000034K5W.0
REMARK                            x       y       z     vdW  Elec       q    Type
REMARK                         _______ _______ _______ _____ _____    ______ ____
ROOT
ATOM      1  N   LIG    1        2.907   0.801  -1.402  0.00  0.00    -0.750 N 
ATOM      2  H   LIG    1        2.351   1.114  -2.133  0.00  0.00    +0.400 HD
ENDROOT
BRANCH   1   8
ATOM      3  C   LIG    1        7.928  -2.029  -6.163  0.00  0.00    +0.310 C 
ATOM      4  N   LIG    1        7.409  -1.737  -4.825  0.00  0.00    -0.620 N 
ATOM      5  C   LIG    1        6.135  -1.018  -4.660  0.00  0.00    +0.310 C 
ATOM      6  C   LIG    1        5.673  -0.758  -3.244  0.00  0.00    -0.090 A 
ATOM      7  C   LIG    1        4.494  -0.099  -2.988  0.00  0.00    -0.010 A 
ATOM      8  C   LIG    1        4.104   0.127  -1.672  0.00  0.00    +0.200 A 
ATOM      9  C   LIG    1        4.901  -0.321  -0.627  0.00  0.00    -0.030 A 
ATOM     10  C   LIG    1        6.082  -0.987  -0.889  0.00  0.00    +0.030 A 
ATOM     11  C   LIG    1        6.475  -1.210  -2.202  0.00  0.00    +0.110 A 
ATOM     12  N   LIG    1        7.668  -1.882  -2.484  0.00  0.00    -0.660 N 
ATOM     13  H   LIG    1        8.213  -2.189  -1.742  0.00  0.00    +0.420 HD
ATOM     14  C   LIG    1        8.092  -2.121  -3.731  0.00  0.00    +0.710 C 
ATOM     15  O   LIG    1        9.143  -2.713  -3.883  0.00  0.00    -0.580 OA
ENDBRANCH   1   8
BRANCH   1  16
ATOM     16  C   LIG    1        2.495   1.033  -0.016  0.00  0.00    +0.320 C 
BRANCH  16  17
ATOM     17  C   LIG    1        1.182   1.773   0.000  0.00  0.00    -0.150 A 
ATOM     18  C   LIG    1       -0.013   1.076   0.008  0.00  0.00    +0.280 A 
ATOM     19  N   LIG    1       -1.170   1.709   0.017  0.00  0.00    -0.480 NA
ATOM     20  C   LIG    1       -1.242   3.025   0.030  0.00  0.00    +0.280 A 
ATOM     21  C   LIG    1       -0.083   3.799   0.023  0.00  0.00    -0.090 A 
ATOM     22  C   LIG    1        1.158   3.157   0.008  0.00  0.00    +0.090 A 
BRANCH  21  23
ATOM     23  C   LIG    1       -0.166   5.280   0.032  0.00  0.00    -0.100 A 
ATOM     24  C   LIG    1       -1.407   5.922   0.041  0.00  0.00    +0.070 A 
ATOM     25  C   LIG    1       -1.431   7.306   0.053  0.00  0.00    -0.030 A 
ATOM     26  C   LIG    1       -0.237   8.003   0.045  0.00  0.00    +0.260 A 
ATOM     27  N   LIG    1        0.920   7.369   0.031  0.00  0.00    -0.480 NA
ATOM     28  C   LIG    1        0.993   6.054   0.024  0.00  0.00    +0.270 A 
ENDBRANCH  21  23
ENDBRANCH  16  17
ENDBRANCH   1  16
TORSDOF 4
