REMARK  Name = ZINCrg00000fS9VG.0
REMARK                            x       y       z     vdW  Elec       q    Type
REMARK                         _______ _______ _______ _____ _____    ______ ____
ROOT
ATOM      1  C   LIG    1        3.005   0.831   1.410  0.00  0.00    +0.110 C 
ATOM      2  C   LIG    1        2.490   1.040  -0.015  0.00  0.00    +0.170 C 
ATOM      3  N   LIG    1        3.483   1.763  -0.828  0.00  0.00    -0.720 N 
ATOM      4  H   LIG    1        3.824   2.656  -0.667  0.00  0.00    +0.440 HD
ATOM      5  C   LIG    1        3.825   0.942  -1.837  0.00  0.00    +0.710 C 
ATOM      6  N   LIG    1        3.179  -0.228  -1.786  0.00  0.00    -0.560 N 
ATOM      7  O   LIG    1        4.632   1.231  -2.700  0.00  0.00    -0.530 OA
ATOM      8  C   LIG    1        2.344  -0.289  -0.730  0.00  0.00    +0.540 C 
ATOM      9  O   LIG    1        1.625  -1.214  -0.416  0.00  0.00    -0.460 OA
ENDROOT
BRANCH   2  10
ATOM     10  C   LIG    1        1.178   1.781   0.000  0.00  0.00    -0.100 A 
ATOM     11  C   LIG    1       -0.013   1.076   0.008  0.00  0.00    +0.070 A 
ATOM     12  C   LIG    1       -1.222   1.748   0.017  0.00  0.00    +0.020 A 
ATOM     13  C   LIG    1       -1.248   3.127   0.030  0.00  0.00    +0.050 A 
ATOM     14  C   LIG    1       -0.050   3.845   0.022  0.00  0.00    -0.140 A 
ATOM     15  C   LIG    1        1.166   3.160   0.007  0.00  0.00    +0.110 A 
BRANCH  14  16
ATOM     16  C   LIG    1       -0.070   5.323   0.029  0.00  0.00    +0.560 C 
ATOM     17  O   LIG    1        0.974   5.945   0.022  0.00  0.00    -0.540 OA
ATOM     18  N   LIG    1       -1.246   5.981   0.044  0.00  0.00    -0.850 N 
ATOM     19  H   LIG    1       -1.260   6.951   0.048  0.00  0.00    +0.410 HD
ATOM     20  H   LIG    1       -2.080   5.485   0.049  0.00  0.00    +0.400 HD
ENDBRANCH  14  16
ENDBRANCH   2  10
BRANCH   6  21
ATOM     21  C   LIG    1        3.357  -1.311  -2.757  0.00  0.00    +0.360 C 
BRANCH  21  22
ATOM     22  C   LIG    1        2.373  -1.140  -3.885  0.00  0.00    +0.500 C 
ATOM     23  N   LIG    1        2.353  -2.025  -4.902  0.00  0.00    -0.720 N 
ATOM     24  H   LIG    1        2.972  -2.772  -4.907  0.00  0.00    +0.400 HD
ATOM     25  O   LIG    1        1.599  -0.207  -3.879  0.00  0.00    -0.520 OA
BRANCH  23  26
ATOM     26  C   LIG    1        1.396  -1.860  -5.998  0.00  0.00    +0.240 C 
ATOM     27  C   LIG    1        0.060  -2.497  -5.611  0.00  0.00    +0.000 C 
ATOM     28  C   LIG    1       -0.939  -2.324  -6.756  0.00  0.00    +0.010 C 
ATOM     29  C   LIG    1       -0.395  -3.004  -8.014  0.00  0.00    +0.000 C 
ATOM     30  C   LIG    1        0.941  -2.367  -8.402  0.00  0.00    +0.020 C 
ATOM     31  C   LIG    1        1.940  -2.540  -7.256  0.00  0.00    +0.010 C 
ENDBRANCH  23  26
ENDBRANCH  21  22
ENDBRANCH   6  21
TORSDOF 5
