REMARK  Name = ZINC590000002Crx.0
REMARK                            x       y       z     vdW  Elec       q    Type
REMARK                         _______ _______ _______ _____ _____    ______ ____
ROOT
ATOM      1  N   LIG    1       -0.012   1.005   0.008  0.00  0.00    -0.640 N 
ATOM      2  H   LIG    1       -0.500   1.339  -0.810  0.00  0.00    +0.440 HD
ATOM      3  H   LIG    1        0.935   1.354   0.000  0.00  0.00    +0.440 HD
ATOM      4  H   LIG    1        0.002  -0.004   0.002  0.00  0.00    +0.440 HD
ENDROOT
BRANCH   1   5
ATOM      5  C   LIG    1       -0.699   1.479   1.216  0.00  0.00    +0.300 C 
BRANCH   5   6
ATOM      6  C   LIG    1       -2.135   0.949   1.227  0.00  0.00    -0.090 C 
ATOM      7  C   LIG    1       -3.267   1.976   1.155  0.00  0.00    +0.050 C 
ATOM      8  C   LIG    1       -2.985   1.238   2.466  0.00  0.00    +0.070 C 
ENDBRANCH   5   6
ENDBRANCH   1   5
TORSDOF 2
