REMARK  Name = ZINCrH000004ovZc.0
REMARK                            x       y       z     vdW  Elec       q    Type
REMARK                         _______ _______ _______ _____ _____    ______ ____
ROOT
ATOM      1  C   LIG    1       -0.138   9.397  -4.958  0.00  0.00    +0.070 C 
ATOM      2  C   LIG    1        0.102   7.886  -4.979  0.00  0.00    +0.220 C 
ENDROOT
BRANCH   2   3
ATOM      3  C   LIG    1        1.351   7.587  -5.768  0.00  0.00    +0.300 A 
ATOM      4  N   LIG    1        2.565   7.792  -5.347  0.00  0.00    -0.450 NA
ATOM      5  C   LIG    1        3.450   7.410  -6.303  0.00  0.00    +0.050 A 
ATOM      6  C   LIG    1        4.845   7.408  -6.379  0.00  0.00    +0.070 A 
ATOM      7  C   LIG    1        5.465   6.955  -7.510  0.00  0.00    +0.010 A 
ATOM      8  C   LIG    1        4.722   6.496  -8.588  0.00  0.00    +0.050 A 
ATOM      9  C   LIG    1        3.344   6.489  -8.535  0.00  0.00    +0.010 A 
ATOM     10  C   LIG    1        2.698   6.945  -7.395  0.00  0.00    +0.050 A 
ATOM     11  N   LIG    1        1.373   7.069  -7.026  0.00  0.00    -0.540 N 
BRANCH  11  12
ATOM     12  C   LIG    1        0.208   6.711  -7.837  0.00  0.00    +0.640 C 
ATOM     13  F   LIG    1       -0.584   7.845  -8.043  0.00  0.00    -0.180 F 
ATOM     14  F   LIG    1       -0.541   5.734  -7.173  0.00  0.00    -0.180 F 
ENDBRANCH  11  12
ENDBRANCH   2   3
BRANCH   2  15
ATOM     15  N   LIG    1        0.263   7.397  -3.603  0.00  0.00    -0.520 NA
ATOM     16  C   LIG    1       -0.938   7.672  -2.803  0.00  0.00    +0.200 C 
ATOM     17  C   LIG    1       -0.701   7.220  -1.360  0.00  0.00    +0.200 C 
ATOM     18  N   LIG    1       -0.378   5.787  -1.345  0.00  0.00    -0.530 NA
ATOM     19  C   LIG    1        0.824   5.512  -2.145  0.00  0.00    +0.190 C 
ATOM     20  C   LIG    1        0.586   5.964  -3.588  0.00  0.00    +0.180 C 
BRANCH  18  21
ATOM     21  C   LIG    1       -0.217   5.298   0.031  0.00  0.00    +0.260 C 
BRANCH  21  22
ATOM     22  C   LIG    1       -0.132   3.793   0.023  0.00  0.00    +0.140 A 
ATOM     23  C   LIG    1        1.106   3.179   0.008  0.00  0.00    -0.040 A 
ATOM     24  C   LIG    1        1.173   1.794   0.001  0.00  0.00    +0.060 A 
ATOM     25  C   LIG    1       -0.013   1.076   0.008  0.00  0.00    -0.040 A 
ATOM     26  C   LIG    1       -1.214   1.759   0.017  0.00  0.00    +0.260 A 
ATOM     27  N   LIG    1       -1.240   3.078   0.030  0.00  0.00    -0.470 NA
ENDBRANCH  21  22
ENDBRANCH  18  21
ENDBRANCH   2  15
TORSDOF 5
