REMARK  Name = ZINCpk00000y6yDS.0
REMARK                            x       y       z     vdW  Elec       q    Type
REMARK                         _______ _______ _______ _____ _____    ______ ____
ROOT
ATOM      1  N   LIG    1       -1.413  -3.828   0.087  0.00  0.00    -0.470 N 
ATOM      2  C   LIG    1       -0.888  -4.067   1.431  0.00  0.00    +0.230 C 
ATOM      3  C   LIG    1        0.374  -4.895   1.329  0.00  0.00    +0.050 C 
ATOM      4  C   LIG    1        1.603  -3.966   1.260  0.00  0.00    +0.250 C 
ATOM      5  N   LIG    1        1.330  -2.786   0.417  0.00  0.00    -0.610 N 
ATOM      6  C   LIG    1        0.618  -2.876  -0.842  0.00  0.00    +0.310 C 
ATOM      7  C   LIG    1        1.766  -1.579   0.831  0.00  0.00    +0.520 C 
ATOM      8  O   LIG    1        1.479  -0.583   0.201  0.00  0.00    -0.510 OA
ATOM      9  C   LIG    1       -0.900  -2.700  -0.595  0.00  0.00    +0.190 C 
ENDROOT
BRANCH   1  11
ATOM     10  C   LIG    1       -3.623  -3.751  -1.035  0.00  0.00    -0.070 A 
ATOM     11  C   LIG    1       -2.802  -3.819   0.090  0.00  0.00    +0.340 A 
ATOM     12  N   LIG    1       -3.582  -3.868   1.165  0.00  0.00    -0.520 NA
ATOM     13  C   LIG    1       -4.861  -3.841   0.798  0.00  0.00    +0.280 A 
ATOM     14  C   LIG    1       -6.051  -3.870   1.549  0.00  0.00    +0.070 A 
ATOM     15  C   LIG    1       -7.250  -3.830   0.904  0.00  0.00    +0.070 A 
ATOM     16  C   LIG    1       -7.283  -3.760  -0.496  0.00  0.00    +0.020 A 
ATOM     17  C   LIG    1       -6.130  -3.733  -1.201  0.00  0.00    +0.230 A 
ATOM     18  N   LIG    1       -4.927  -3.772  -0.566  0.00  0.00    -0.330 N 
BRANCH  10  20
ATOM     19  N   LIG    1       -2.870  -3.619  -3.486  0.00  0.00    -0.400 NA
ATOM     20  C   LIG    1       -3.204  -3.678  -2.402  0.00  0.00    +0.290 C 
ENDBRANCH  10  20
ENDBRANCH   1  11
BRANCH   7  21
ATOM     21  C   LIG    1        2.608  -1.468   2.075  0.00  0.00    +0.150 C 
ATOM     22  C   LIG    1        3.985  -2.132   1.854  0.00  0.00    +0.030 C 
ATOM     23  C   LIG    1        4.969  -1.220   2.620  0.00  0.00    +0.010 C 
ATOM     24  C   LIG    1        4.070  -0.113   3.214  0.00  0.00    +0.200 C 
ATOM     25  O   LIG    1        2.906  -0.084   2.358  0.00  0.00    -0.350 OA
ENDBRANCH   7  21
TORSDOF 3
