REMARK  Name = ZINCtV00000L6jpe.0
REMARK                            x       y       z     vdW  Elec       q    Type
REMARK                         _______ _______ _______ _____ _____    ______ ____
ROOT
ATOM      1  C   LIG    1        8.074  -2.270   1.732  0.00  0.00    +0.080 A 
ATOM      2  C   LIG    1        7.970  -3.468   1.038  0.00  0.00    +0.040 A 
ATOM      3  C   LIG    1        9.057  -3.959   0.342  0.00  0.00    -0.050 A 
ATOM      4  C   LIG    1       10.258  -3.261   0.347  0.00  0.00    +0.210 A 
ATOM      5  C   LIG    1       10.363  -2.066   1.046  0.00  0.00    -0.040 A 
ATOM      6  C   LIG    1        9.274  -1.572   1.736  0.00  0.00    +0.070 A 
ENDROOT
BRANCH   1   8
ATOM      7  C   LIG    1        6.758  -0.439   2.497  0.00  0.00    +0.510 C 
ATOM      8  N   LIG    1        6.969  -1.769   2.433  0.00  0.00    -0.670 N 
ATOM      9  H   LIG    1        6.356  -2.379   2.872  0.00  0.00    +0.410 HD
ATOM     10  O   LIG    1        7.568   0.327   2.018  0.00  0.00    -0.500 OA
BRANCH   7  11
ATOM     11  C   LIG    1        5.517   0.096   3.162  0.00  0.00    +0.240 C 
BRANCH  11  12
ATOM     12  O   LIG    1        5.522   1.523   3.103  0.00  0.00    -0.290 OA
BRANCH  12  16
ATOM     13  C   LIG    1        3.264   5.713   4.186  0.00  0.00    +0.120 C 
ATOM     14  C   LIG    1        3.329   4.207   4.210  0.00  0.00    -0.030 A 
ATOM     15  C   LIG    1        4.404   3.554   3.640  0.00  0.00    +0.000 A 
ATOM     16  C   LIG    1        4.464   2.168   3.662  0.00  0.00    +0.140 A 
ATOM     17  C   LIG    1        3.443   1.441   4.257  0.00  0.00    -0.070 A 
ATOM     18  C   LIG    1        2.369   2.098   4.825  0.00  0.00    +0.080 A 
ATOM     19  C   LIG    1        2.311   3.481   4.802  0.00  0.00    -0.080 A 
ATOM     20 CL   LIG    1        0.964   4.304   5.524  0.00  0.00    -0.070 Cl
ENDBRANCH  12  16
ENDBRANCH  11  12
ENDBRANCH   7  11
ENDBRANCH   1   8
BRANCH   4  21
ATOM     21  N   LIG    1       11.361  -3.762  -0.353  0.00  0.00    -0.580 N 
BRANCH  21  22
ATOM     22  C   LIG    1       12.593  -3.108  -0.276  0.00  0.00    +0.150 A 
ATOM     23  C   LIG    1       12.817  -1.956  -1.018  0.00  0.00    +0.000 A 
ATOM     24  C   LIG    1       14.035  -1.309  -0.935  0.00  0.00    +0.020 A 
ATOM     25  C   LIG    1       15.033  -1.812  -0.121  0.00  0.00    +0.000 A 
ATOM     26  C   LIG    1       14.815  -2.962   0.615  0.00  0.00    +0.020 A 
ATOM     27  C   LIG    1       13.598  -3.611   0.540  0.00  0.00    +0.000 A 
ENDBRANCH  21  22
BRANCH  21  28
ATOM     28  C   LIG    1       11.224  -4.972  -1.168  0.00  0.00    +0.230 C 
ATOM     29  C   LIG    1       12.067  -6.094  -0.559  0.00  0.00    +0.020 C 
ATOM     30  C   LIG    1       11.707  -4.686  -2.591  0.00  0.00    +0.030 C 
ENDBRANCH  21  28
ENDBRANCH   4  21
TORSDOF 7
