REMARK  Name = ZINCpe000000UiO8.0
REMARK                            x       y       z     vdW  Elec       q    Type
REMARK                         _______ _______ _______ _____ _____    ______ ____
ROOT
ATOM      1  C   LIG    1       -1.447   2.166   0.244  0.00  0.00    +0.360 C 
ATOM      2  C   LIG    1       -1.632   2.662  -1.194  0.00  0.00    -0.330 C 
ATOM      3  S   LIG    1       -3.006   3.851  -1.236  0.00  0.00    +2.420 S 
ATOM      4  C   LIG    1       -2.468   5.064   0.005  0.00  0.00    -0.340 C 
ATOM      5  C   LIG    1       -2.203   4.339   1.328  0.00  0.00    +0.320 C 
ATOM      6  O   LIG    1       -4.180   3.205  -0.763  0.00  0.00    -0.930 OA
ATOM      7  O   LIG    1       -3.023   4.480  -2.509  0.00  0.00    -0.930 OA
ATOM      8  N   LIG    1       -1.186   3.306   1.124  0.00  0.00    -0.640 N 
ATOM      9  C   LIG    1        0.002   3.405   1.754  0.00  0.00    +0.710 C 
ATOM     10  N   LIG    1        0.206   4.384   2.658  0.00  0.00    -0.740 N 
ATOM     11  H   LIG    1       -0.522   4.976   2.905  0.00  0.00    +0.400 HD
ATOM     12  O   LIG    1        0.889   2.612   1.506  0.00  0.00    -0.540 OA
ENDROOT
BRANCH   1  15
ATOM     13  N   LIG    1        0.975  -0.505   0.788  0.00  0.00    -0.370 N 
ATOM     14  C   LIG    1       -0.231   0.059   1.008  0.00  0.00    +0.220 A 
ATOM     15  C   LIG    1       -0.283   1.211   0.300  0.00  0.00    -0.200 A 
ATOM     16  C   LIG    1        0.933   1.356  -0.376  0.00  0.00    +0.290 A 
ATOM     17  N   LIG    1        1.688   0.328  -0.084  0.00  0.00    -0.290 NA
BRANCH  13  19
ATOM     18  C   LIG    1        1.895  -2.702   0.234  0.00  0.00    +0.040 C 
ATOM     19  C   LIG    1        1.454  -1.766   1.360  0.00  0.00    +0.310 C 
ENDBRANCH  13  19
ENDBRANCH   1  15
BRANCH  10  20
ATOM     20  C   LIG    1        1.527   4.554   3.267  0.00  0.00    +0.310 C 
BRANCH  20  21
ATOM     21  C   LIG    1        2.393   5.440   2.369  0.00  0.00    -0.050 C 
ATOM     22  C   LIG    1        1.698   6.174   1.221  0.00  0.00    +0.020 C 
ATOM     23  C   LIG    1        2.612   4.983   0.926  0.00  0.00    +0.020 C 
ENDBRANCH  20  21
BRANCH  20  24
ATOM     24  C   LIG    1        1.375   5.213   4.639  0.00  0.00    +0.180 C 
BRANCH  24  25
ATOM     25  O   LIG    1        0.860   6.536   4.478  0.00  0.00    -0.380 OA
ATOM     26  C   LIG    1        0.678   7.244   5.706  0.00  0.00    +0.200 C 
ENDBRANCH  24  25
ENDBRANCH  20  24
ENDBRANCH  10  20
TORSDOF 6
