REMARK  Name = ZINCpe000000YeIN.0
REMARK                            x       y       z     vdW  Elec       q    Type
REMARK                         _______ _______ _______ _____ _____    ______ ____
ROOT
ATOM      1  N   LIG    1        6.493   1.540  -2.486  0.00  0.00    -0.690 N 
ATOM      2  H   LIG    1        6.409   0.578  -2.580  0.00  0.00    +0.410 HD
ENDROOT
BRANCH   1   7
ATOM      3  C   LIG    1       10.631   4.160  -5.151  0.00  0.00    +0.350 C 
ATOM      4  N   LIG    1        9.535   3.500  -4.438  0.00  0.00    -0.560 N 
ATOM      5  C   LIG    1        8.732   4.225  -3.634  0.00  0.00    +0.580 A 
ATOM      6  C   LIG    1        7.668   3.579  -2.949  0.00  0.00    -0.320 A 
ATOM      7  C   LIG    1        7.498   2.202  -3.128  0.00  0.00    +0.540 A 
ATOM      8  N   LIG    1        8.352   1.530  -3.960  0.00  0.00    -0.540 N 
ATOM      9  C   LIG    1        8.183   0.088  -4.161  0.00  0.00    +0.350 C 
ATOM     10  O   LIG    1        8.915   5.421  -3.499  0.00  0.00    -0.510 OA
ATOM     11  C   LIG    1        9.344   2.179  -4.594  0.00  0.00    +0.710 A 
ATOM     12  O   LIG    1       10.086   1.555  -5.326  0.00  0.00    -0.520 OA
BRANCH   6  13
ATOM     13  C   LIG    1        6.792   4.320  -2.092  0.00  0.00    +0.300 C 
ATOM     14  N   LIG    1        6.097   4.908  -1.412  0.00  0.00    -0.440 NA
ENDBRANCH   6  13
ENDBRANCH   1   7
BRANCH   1  15
ATOM     15  C   LIG    1        5.541   2.282  -1.656  0.00  0.00    +0.290 C 
BRANCH  15  16
ATOM     16  C   LIG    1        4.497   1.316  -1.090  0.00  0.00    -0.010 C 
ATOM     17  C   LIG    1        3.610   0.732  -2.221  0.00  0.00    +0.020 C 
ATOM     18  C   LIG    1        2.296   0.389  -1.489  0.00  0.00    +0.210 C 
ATOM     19  N   LIG    1        2.245   1.218  -0.271  0.00  0.00    -0.470 N 
ATOM     20  C   LIG    1        3.452   2.070  -0.231  0.00  0.00    +0.210 C 
BRANCH  19  21
ATOM     21  C   LIG    1        1.083   1.993  -0.241  0.00  0.00    +0.110 A 
ATOM     22  C   LIG    1        1.120   3.282   0.277  0.00  0.00    -0.030 A 
ATOM     23  C   LIG    1       -0.031   4.044   0.310  0.00  0.00    +0.030 A 
ATOM     24  C   LIG    1       -1.217   3.529  -0.182  0.00  0.00    -0.030 A 
ATOM     25  C   LIG    1       -1.257   2.247  -0.699  0.00  0.00    +0.030 A 
ATOM     26  C   LIG    1       -0.111   1.478  -0.729  0.00  0.00    -0.040 A 
ENDBRANCH  19  21
ENDBRANCH  15  16
ENDBRANCH   1  15
TORSDOF 5
