REMARK  Name = ZINCpk00000xIh38.0
REMARK                            x       y       z     vdW  Elec       q    Type
REMARK                         _______ _______ _______ _____ _____    ______ ____
ROOT
ATOM      1  C   LIG    1        1.794   3.389  -0.351  0.00  0.00    -0.110 A 
ATOM      2  C   LIG    1        3.139   3.609  -0.288  0.00  0.00    +0.010 A 
ATOM      3  S   LIG    1        3.960   2.196   0.191  0.00  0.00    +0.240 S 
ATOM      4  C   LIG    1        2.471   1.274   0.315  0.00  0.00    -0.170 A 
ATOM      5  C   LIG    1        2.384  -0.184   0.721  0.00  0.00    +0.130 C 
ATOM      6  C   LIG    1        0.936  -0.501   1.109  0.00  0.00    +0.030 C 
ATOM      7  C   LIG    1        0.002  -0.004   0.002  0.00  0.00    +0.030 C 
ATOM      8  C   LIG    1       -0.019   1.526   0.010  0.00  0.00    +0.110 C 
ATOM      9  C   LIG    1        1.414   2.035  -0.001  0.00  0.00    -0.060 A 
ENDROOT
BRANCH   2  10
ATOM     10  N   LIG    1        3.757   4.824  -0.576  0.00  0.00    -0.310 N 
ATOM     11  C   LIG    1        5.079   5.105  -0.527  0.00  0.00    +0.470 A 
ATOM     12  N   LIG    1        5.222   6.357  -0.876  0.00  0.00    -0.320 NA
ATOM     13  N   LIG    1        4.081   6.889  -1.132  0.00  0.00    -0.030 NA
ATOM     14  N   LIG    1        3.139   6.023  -0.974  0.00  0.00    -0.060 NA
ENDBRANCH   2  10
BRANCH   1  17
ATOM     15  N   LIG    1        0.277   5.217   0.207  0.00  0.00    -0.720 N 
ATOM     16  H   LIG    1        0.522   5.104   1.139  0.00  0.00    +0.400 HD
ATOM     17  C   LIG    1        0.825   4.424  -0.735  0.00  0.00    +0.590 C 
ATOM     18  O   LIG    1        0.517   4.566  -1.903  0.00  0.00    -0.510 OA
BRANCH  15  19
ATOM     19  C   LIG    1       -0.690   6.249  -0.176  0.00  0.00    +0.280 C 
BRANCH  19  20
ATOM     20  C   LIG    1       -1.154   7.001   1.073  0.00  0.00    +0.080 C 
BRANCH  20  22
ATOM     21  C   LIG    1       -3.350   8.094   1.249  0.00  0.00    -0.050 C 
ATOM     22  C   LIG    1       -2.148   8.063   0.679  0.00  0.00    +0.090 C 
BRANCH  21  23
ATOM     23  C   LIG    1       -4.320   9.129   0.865  0.00  0.00    +0.490 C 
ATOM     24  O   LIG    1       -4.024   9.958   0.026  0.00  0.00    -0.510 OA
BRANCH  23  26
ATOM     25  C   LIG    1       -6.444  10.210   1.014  0.00  0.00    +0.260 C 
ATOM     26  O   LIG    1       -5.538   9.160   1.442  0.00  0.00    -0.360 OA
ENDBRANCH  23  26
ENDBRANCH  21  23
ENDBRANCH  20  22
ENDBRANCH  19  20
ENDBRANCH  15  19
ENDBRANCH   1  17
TORSDOF 7
