REMARK  Name = ZINCnE000001FJaI.1
REMARK                            x       y       z     vdW  Elec       q    Type
REMARK                         _______ _______ _______ _____ _____    ______ ____
ROOT
ATOM      1  C   LIG    1        2.741   4.950   2.869  0.00  0.00    +0.100 C 
ENDROOT
BRANCH   1   2
ATOM      2  C   LIG    1        4.030   5.444   3.475  0.00  0.00    +0.530 C 
ATOM      3  N   LIG    1        4.960   4.562   3.891  0.00  0.00    -0.670 N 
ATOM      4  H   LIG    1        4.769   3.611   3.875  0.00  0.00    +0.410 HD
ATOM      5  O   LIG    1        4.229   6.635   3.588  0.00  0.00    -0.500 OA
BRANCH   3   6
ATOM      6  C   LIG    1        6.202   5.019   4.346  0.00  0.00    +0.160 A 
ATOM      7  C   LIG    1        6.692   6.246   3.918  0.00  0.00    +0.020 A 
ATOM      8  C   LIG    1        7.918   6.693   4.369  0.00  0.00    -0.070 A 
ATOM      9  C   LIG    1        8.659   5.921   5.245  0.00  0.00    -0.020 A 
ATOM     10  C   LIG    1        8.174   4.698   5.673  0.00  0.00    +0.020 A 
ATOM     11  C   LIG    1        8.451   8.025   3.906  0.00  0.00    +0.090 C 
ATOM     12  C   LIG    1        6.946   4.248   5.231  0.00  0.00    -0.130 A 
ATOM     13  C   LIG    1        6.415   2.918   5.702  0.00  0.00    +0.090 C 
ENDBRANCH   3   6
ENDBRANCH   1   2
BRANCH   1  14
ATOM     14  S   LIG    1        1.707   6.364   2.414  0.00  0.00    +0.030 S 
BRANCH  14  19
ATOM     15  C   LIG    1       -0.735   3.525   1.234  0.00  0.00    +0.180 A 
ATOM     16  C   LIG    1       -1.819   4.194   0.744  0.00  0.00    -0.270 A 
ATOM     17  C   LIG    1       -1.819   5.600   0.767  0.00  0.00    +0.490 A 
ATOM     18  N   LIG    1       -0.744   6.240   1.276  0.00  0.00    -0.640 NA
ATOM     19  C   LIG    1        0.309   5.520   1.752  0.00  0.00    +0.320 A 
ATOM     20  O   LIG    1       -2.771   6.229   0.336  0.00  0.00    -0.620 OA
ATOM     21  N   LIG    1        0.298   4.201   1.730  0.00  0.00    -0.630 NA
BRANCH  15  22
ATOM     22  C   LIG    1       -0.712   2.018   1.221  0.00  0.00    +0.080 C 
BRANCH  22  24
ATOM     23  C   LIG    1        0.038   0.002  -0.049  0.00  0.00    +0.000 C 
ATOM     24  C   LIG    1        0.014   1.531  -0.035  0.00  0.00    +0.010 C 
ENDBRANCH  22  24
ENDBRANCH  15  22
ENDBRANCH  14  19
ENDBRANCH   1  14
TORSDOF 6
