REMARK  Name = ZINCpk000000mS3I.0
REMARK                            x       y       z     vdW  Elec       q    Type
REMARK                         _______ _______ _______ _____ _____    ______ ____
ROOT
ATOM      1  C   LIG    1        2.278   0.029   0.303  0.00  0.00    +0.440 A 
ATOM      2  N   LIG    1        1.143  -0.625   0.482  0.00  0.00    -0.600 NA
ATOM      3  C   LIG    1       -0.011   0.037   0.507  0.00  0.00    +0.620 A 
ATOM      4  N   LIG    1       -0.022   1.356   0.351  0.00  0.00    -0.640 NA
ATOM      5  C   LIG    1        1.120   2.010   0.172  0.00  0.00    +0.630 A 
ATOM      6  N   LIG    1        2.271   1.341   0.148  0.00  0.00    -0.630 NA
ENDROOT
BRANCH   3   7
ATOM      7  N   LIG    1       -1.195  -0.646   0.694  0.00  0.00    -0.800 N 
ATOM      8  H   LIG    1       -1.187  -1.610   0.807  0.00  0.00    +0.420 HD
ATOM      9  H   LIG    1       -2.037  -0.163   0.713  0.00  0.00    +0.420 HD
ENDBRANCH   3   7
BRANCH   1  10
ATOM     10  C   LIG    1        3.583  -0.724   0.275  0.00  0.00    +0.220 C 
ATOM     11  C   LIG    1        3.718  -1.463  -1.058  0.00  0.00    +0.070 C 
BRANCH  10  17
ATOM     12  C   LIG    1        4.731  -2.610   6.146  0.00  0.00    +0.090 C 
ATOM     13  C   LIG    1        5.132  -3.229   4.832  0.00  0.00    +0.510 C 
ATOM     14  N   LIG    1        4.416  -2.973   3.720  0.00  0.00    -0.620 N 
ATOM     15  C   LIG    1        4.790  -3.567   2.428  0.00  0.00    +0.300 C 
ATOM     16  C   LIG    1        4.872  -2.448   1.383  0.00  0.00    +0.180 C 
ATOM     17  N   LIG    1        3.612  -1.694   1.378  0.00  0.00    -0.520 NA
ATOM     18  C   LIG    1        3.382  -1.031   2.669  0.00  0.00    +0.160 C 
ATOM     19  C   LIG    1        3.239  -2.091   3.766  0.00  0.00    +0.290 C 
ATOM     20  O   LIG    1        6.100  -3.958   4.776  0.00  0.00    -0.550 OA
ENDBRANCH  10  17
ENDBRANCH   1  10
BRANCH   5  21
ATOM     21  N   LIG    1        1.114   3.382   0.009  0.00  0.00    -0.630 N 
ATOM     22  H   LIG    1        1.952   3.868  -0.042  0.00  0.00    +0.430 HD
BRANCH  21  23
ATOM     23  C   LIG    1       -0.100   4.070  -0.082  0.00  0.00    +0.160 A 
ATOM     24  C   LIG    1       -1.197   3.469  -0.686  0.00  0.00    +0.020 A 
ATOM     25  C   LIG    1       -2.396   4.149  -0.770  0.00  0.00    +0.020 A 
ATOM     26  C   LIG    1       -2.502   5.431  -0.262  0.00  0.00    -0.020 A 
ATOM     27  C   LIG    1       -1.410   6.034   0.335  0.00  0.00    +0.030 A 
ATOM     28  C   LIG    1       -0.210   5.357   0.427  0.00  0.00    -0.020 A 
ENDBRANCH  21  23
ENDBRANCH   5  21
TORSDOF 5
