REMARK  Name = ZINCrD000000CdTU.0
REMARK                            x       y       z     vdW  Elec       q    Type
REMARK                         _______ _______ _______ _____ _____    ______ ____
ROOT
ATOM      1  O   LIG    1        0.120  10.304  -0.464  0.00  0.00    -0.480 OA
ATOM      2  C   LIG    1        1.263   9.888  -0.485  0.00  0.00    +0.590 C 
ATOM      3  N   LIG    1        1.504   8.591  -0.760  0.00  0.00    -0.600 N 
ATOM      4  H   LIG    1        2.415   8.260  -0.777  0.00  0.00    +0.430 HD
ENDROOT
BRANCH   2   5
ATOM      5  C   LIG    1        2.379  10.799  -0.211  0.00  0.00    +0.080 C 
ATOM      6  N   LIG    1        3.595  10.345  -0.230  0.00  0.00    -0.190 NA
ATOM      7  N   LIG    1        4.684  11.185   0.023  0.00  0.00    -0.400 N 
ATOM      8  C   LIG    1        4.506  12.355   0.668  0.00  0.00    +0.500 C 
ATOM      9  C   LIG    1        3.123  12.764   1.108  0.00  0.00    +0.100 C 
ATOM     10  O   LIG    1        5.454  13.075   0.894  0.00  0.00    -0.490 OA
ATOM     11  C   LIG    1        2.099  12.246   0.096  0.00  0.00    +0.120 C 
BRANCH   7  12
ATOM     12  C   LIG    1        5.967  10.807  -0.390  0.00  0.00    +0.140 A 
ATOM     13  C   LIG    1        6.768  11.705  -1.084  0.00  0.00    +0.030 A 
ATOM     14  C   LIG    1        8.035  11.330  -1.486  0.00  0.00    +0.020 A 
ATOM     15  C   LIG    1        8.503  10.059  -1.207  0.00  0.00    +0.020 A 
ATOM     16  C   LIG    1        7.706   9.161  -0.520  0.00  0.00    +0.020 A 
ATOM     17  C   LIG    1        6.440   9.531  -0.111  0.00  0.00    +0.020 A 
ENDBRANCH   7  12
ENDBRANCH   2   5
BRANCH   3  18
ATOM     18  C   LIG    1        0.447   7.729  -1.020  0.00  0.00    +0.270 A 
ATOM     19  N   LIG    1        0.560   6.466  -1.291  0.00  0.00    -0.490 NA
ATOM     20  C   LIG    1       -0.562   5.797  -1.518  0.00  0.00    +0.120 A 
ATOM     21  C   LIG    1       -1.694   6.521  -1.427  0.00  0.00    -0.050 A 
ATOM     22  S   LIG    1       -1.255   8.180  -1.027  0.00  0.00    +0.220 S 
BRANCH  20  23
ATOM     23  C   LIG    1       -0.570   4.351  -1.842  0.00  0.00    +0.190 A 
ATOM     24  C   LIG    1        0.634   3.654  -1.922  0.00  0.00    +0.000 A 
ATOM     25  C   LIG    1        0.611   2.304  -2.225  0.00  0.00    +0.060 A 
ATOM     26  C   LIG    1       -0.618   1.694  -2.439  0.00  0.00    -0.030 A 
ATOM     27  C   LIG    1       -1.774   2.447  -2.350  0.00  0.00    +0.260 A 
ATOM     28  N   LIG    1       -1.724   3.730  -2.054  0.00  0.00    -0.480 NA
ENDBRANCH  20  23
ENDBRANCH   3  18
TORSDOF 4
