REMARK  Name = ZINCtV00000L6kME.0
REMARK                            x       y       z     vdW  Elec       q    Type
REMARK                         _______ _______ _______ _____ _____    ______ ____
ROOT
ATOM      1  C   LIG    1       -5.676   5.183   0.057  0.00  0.00    +0.200 C 
ATOM      2  C   LIG    1       -5.102   3.790   0.047  0.00  0.00    +0.150 A 
ATOM      3  N   LIG    1       -5.783   2.679   0.045  0.00  0.00    -0.220 NA
ATOM      4  N   LIG    1       -4.915   1.583   0.034  0.00  0.00    -0.320 N 
ATOM      5  C   LIG    1       -3.618   2.036   0.030  0.00  0.00    +0.350 A 
ATOM      6  N   LIG    1       -2.440   1.428   0.021  0.00  0.00    -0.440 NA
ATOM      7  C   LIG    1       -1.309   2.116   0.020  0.00  0.00    +0.250 A 
ATOM      8  C   LIG    1       -1.309   3.515   0.033  0.00  0.00    +0.030 A 
ATOM      9  C   LIG    1       -2.499   4.190   0.036  0.00  0.00    -0.060 A 
ATOM     10  C   LIG    1       -3.685   3.444   0.038  0.00  0.00    -0.190 A 
ENDROOT
BRANCH   4  11
ATOM     11  C   LIG    1       -5.302   0.250   0.029  0.00  0.00    +0.350 A 
ATOM     12  N   LIG    1       -4.492  -0.750   0.013  0.00  0.00    -0.470 NA
ATOM     13  C   LIG    1       -5.019  -1.990   0.012  0.00  0.00    +0.110 A 
ATOM     14  C   LIG    1       -4.353  -3.234   0.000  0.00  0.00    +0.080 A 
ATOM     15  C   LIG    1       -5.068  -4.405  -0.003  0.00  0.00    +0.040 A 
ATOM     16  C   LIG    1       -6.455  -4.386   0.005  0.00  0.00    +0.040 A 
ATOM     17  C   LIG    1       -7.127  -3.184   0.016  0.00  0.00    +0.060 A 
ATOM     18  C   LIG    1       -6.418  -1.985   0.020  0.00  0.00    -0.190 A 
ATOM     19  S   LIG    1       -6.968  -0.311   0.034  0.00  0.00    +0.130 S 
ENDBRANCH   4  11
BRANCH   7  20
ATOM     20  C   LIG    1       -0.017   1.390   0.010  0.00  0.00    -0.070 A 
ATOM     21  C   LIG    1        1.184   2.098   0.002  0.00  0.00    +0.040 A 
ATOM     22  C   LIG    1        2.384   1.416  -0.013  0.00  0.00    +0.010 A 
ATOM     23  C   LIG    1        2.396   0.033  -0.020  0.00  0.00    +0.030 A 
ATOM     24  C   LIG    1        1.208  -0.675  -0.013  0.00  0.00    +0.000 A 
ATOM     25  C   LIG    1        0.002  -0.004   0.002  0.00  0.00    +0.080 A 
ENDBRANCH   7  20
BRANCH   9  26
ATOM     26  C   LIG    1       -2.533   5.696   0.044  0.00  0.00    +0.510 C 
ATOM     27  F   LIG    1       -3.198   6.142   1.192  0.00  0.00    -0.160 F 
ATOM     28  F   LIG    1       -3.209   6.153  -1.093  0.00  0.00    -0.160 F 
ATOM     29  F   LIG    1       -1.225   6.192   0.040  0.00  0.00    -0.170 F 
ENDBRANCH   9  26
TORSDOF 3
