REMARK  Name = ZINCrD0000071wul.0
REMARK                            x       y       z     vdW  Elec       q    Type
REMARK                         _______ _______ _______ _____ _____    ______ ____
ROOT
ATOM      1  C   LIG    1       -0.020   1.216   0.012  0.00  0.00    +0.570 C 
ATOM      2  N   LIG    1       -1.202   1.831  -0.191  0.00  0.00    -0.610 N 
ATOM      3  C   LIG    1       -1.257   3.268  -0.493  0.00  0.00    +0.270 C 
ATOM      4  C   LIG    1       -2.030   3.459  -1.808  0.00  0.00    +0.270 C 
ATOM      5  N   LIG    1       -3.289   2.704  -1.725  0.00  0.00    -0.630 N 
ATOM      6  C   LIG    1       -3.235   1.268  -1.417  0.00  0.00    +0.300 C 
ATOM      7  C   LIG    1       -4.472   3.319  -1.926  0.00  0.00    +0.710 C 
ATOM      8  N   LIG    1       -4.503   4.611  -2.308  0.00  0.00    -0.740 N 
ATOM      9  H   LIG    1       -3.679   5.119  -2.369  0.00  0.00    +0.390 HD
ATOM     10  O   LIG    1       -5.510   2.707  -1.764  0.00  0.00    -0.580 OA
ATOM     11  C   LIG    1       -2.461   1.076  -0.107  0.00  0.00    +0.290 C 
ATOM     12  O   LIG    1        0.020   0.011   0.167  0.00  0.00    -0.530 OA
ENDROOT
BRANCH   1  19
ATOM     13  C   LIG    1        7.169   3.519  -0.711  0.00  0.00    +0.170 C 
ATOM     14  C   LIG    1        5.707   3.224  -0.497  0.00  0.00    +0.190 C 
ATOM     15  N   LIG    1        4.838   4.023   0.013  0.00  0.00    -0.480 NA
ATOM     16  C   LIG    1        3.579   3.501   0.093  0.00  0.00    +0.090 A 
ATOM     17  C   LIG    1        2.383   4.046   0.577  0.00  0.00    +0.050 A 
ATOM     18  C   LIG    1        1.224   3.307   0.550  0.00  0.00    +0.050 A 
ATOM     19  C   LIG    1        1.227   2.007   0.039  0.00  0.00    -0.130 A 
ATOM     20  C   LIG    1        2.421   1.455  -0.441  0.00  0.00    +0.100 A 
ATOM     21  C   LIG    1        3.570   2.197  -0.416  0.00  0.00    -0.140 A 
ATOM     22  C   LIG    1        4.996   1.931  -0.843  0.00  0.00    -0.050 C 
ATOM     23  C   LIG    1        5.069   1.661  -2.347  0.00  0.00    +0.080 C 
ATOM     24  C   LIG    1        5.587   0.761  -0.053  0.00  0.00    +0.070 C 
ENDBRANCH   1  19
BRANCH   8  25
ATOM     25  C   LIG    1       -5.782   5.248  -2.632  0.00  0.00    +0.180 C 
ATOM     26  C   LIG    1       -6.444   4.503  -3.793  0.00  0.00    +0.030 C 
ATOM     27  C   LIG    1       -5.540   6.704  -3.033  0.00  0.00    +0.040 C 
ATOM     28  C   LIG    1       -6.699   5.202  -1.408  0.00  0.00    +0.020 C 
ENDBRANCH   8  25
TORSDOF 2
