REMARK  Name = ZINCvU00000003Ka.0
REMARK                            x       y       z     vdW  Elec       q    Type
REMARK                         _______ _______ _______ _____ _____    ______ ____
ROOT
ATOM      1  C   LIG    1        3.038  -3.480  -1.656  0.00  0.00    +0.300 A 
ATOM      2  N   LIG    1        3.999  -4.126  -1.047  0.00  0.00    -0.520 NA
ATOM      3  C   LIG    1        3.753  -5.435  -1.075  0.00  0.00    +0.240 A 
ATOM      4  N   LIG    1        2.631  -5.644  -1.714  0.00  0.00    -0.290 NA
ATOM      5  N   LIG    1        2.145  -4.385  -2.103  0.00  0.00    -0.330 N 
ENDROOT
BRANCH   5   6
ATOM      6  C   LIG    1        0.966  -4.122  -2.816  0.00  0.00    +0.160 A 
ATOM      7  C   LIG    1        0.640  -4.889  -3.926  0.00  0.00    +0.070 A 
ATOM      8  C   LIG    1       -0.522  -4.629  -4.628  0.00  0.00    +0.050 A 
ATOM      9  C   LIG    1       -1.361  -3.605  -4.225  0.00  0.00    +0.080 A 
ATOM     10  C   LIG    1       -1.038  -2.838  -3.115  0.00  0.00    +0.100 A 
ATOM     11  F   LIG    1       -1.858  -1.838  -2.723  0.00  0.00    -0.110 F 
ATOM     12  F   LIG    1       -2.496  -3.353  -4.913  0.00  0.00    -0.120 F 
ATOM     13  C   LIG    1        0.121  -3.099  -2.408  0.00  0.00    +0.030 A 
ENDBRANCH   5   6
BRANCH   1  14
ATOM     14  C   LIG    1        2.948  -1.986  -1.833  0.00  0.00    +0.160 C 
BRANCH  14  15
ATOM     15  C   LIG    1        3.782  -1.565  -3.045  0.00  0.00    +0.280 C 
ATOM     16  C   LIG    1        3.175  -2.164  -4.315  0.00  0.00    +0.050 C 
BRANCH  15  23
ATOM     17  C   LIG    1        6.306   0.232  -2.943  0.00  0.00    +0.140 C 
ATOM     18  C   LIG    1        4.879   0.690  -3.106  0.00  0.00    +0.090 A 
ATOM     19  C   LIG    1        4.462   1.971  -3.235  0.00  0.00    -0.120 A 
ATOM     20  C   LIG    1        3.069   1.960  -3.361  0.00  0.00    +0.080 A 
ATOM     21  N   LIG    1        2.664   0.717  -3.309  0.00  0.00    -0.290 NA
ATOM     22  C   LIG    1        2.187   3.170  -3.527  0.00  0.00    +0.160 C 
ATOM     23  N   LIG    1        3.789  -0.104  -3.148  0.00  0.00    -0.370 N 
ENDBRANCH  15  23
ENDBRANCH  14  15
ENDBRANCH   1  14
BRANCH   3  24
ATOM     24  C   LIG    1        4.629  -6.503  -0.474  0.00  0.00    +0.220 C 
BRANCH  24  25
ATOM     25  C   LIG    1        5.637  -6.961  -1.496  0.00  0.00    -0.070 A 
ATOM     26  C   LIG    1        5.337  -8.014  -2.340  0.00  0.00    +0.030 A 
ATOM     27  C   LIG    1        6.259  -8.431  -3.281  0.00  0.00    +0.040 A 
ATOM     28  C   LIG    1        7.487  -7.800  -3.372  0.00  0.00    -0.090 A 
ATOM     29  C   LIG    1        7.789  -6.750  -2.525  0.00  0.00    +0.040 A 
ATOM     30 BR   LIG    1        8.752  -8.374  -4.655  0.00  0.00    -0.050 Br
ATOM     31  C   LIG    1        6.864  -6.330  -1.587  0.00  0.00    +0.040 A 
ENDBRANCH  24  25
ENDBRANCH   3  24
TORSDOF 6
