REMARK  Name = ZINC9p0000004T2n.0
REMARK                            x       y       z     vdW  Elec       q    Type
REMARK                         _______ _______ _______ _____ _____    ______ ____
ROOT
ATOM      1  C   LIG    1        2.133   1.562  -1.259  0.00  0.00    -0.020 C 
ATOM      2  C   LIG    1        2.154   0.032  -1.268  0.00  0.00    +0.050 C 
ATOM      3  C   LIG    1        0.718  -0.497  -1.257  0.00  0.00    +0.040 C 
ATOM      4  C   LIG    1        0.002  -0.004   0.002  0.00  0.00    +0.170 C 
ATOM      5  C   LIG    1       -0.019   1.526   0.010  0.00  0.00    +0.040 C 
ATOM      6  C   LIG    1        1.417   2.055  -0.000  0.00  0.00    +0.050 C 
ENDROOT
BRANCH   4   7
ATOM      7  N   LIG    1       -1.376  -0.512   0.012  0.00  0.00    -0.640 N 
ATOM      8  H   LIG    1       -1.848  -0.187   0.843  0.00  0.00    +0.440 HD
ATOM      9  H   LIG    1       -1.362  -1.521   0.007  0.00  0.00    +0.440 HD
ATOM     10  H   LIG    1       -1.864  -0.178  -0.805  0.00  0.00    +0.430 HD
ENDBRANCH   4   7
BRANCH   1  12
ATOM     11  C   LIG    1        3.548   3.617  -1.387  0.00  0.00    +0.020 C 
ATOM     12  C   LIG    1        3.568   2.091  -1.270  0.00  0.00    +0.020 C 
ENDBRANCH   1  12
TORSDOF 2
