REMARK  Name = ZINCrH000004q7GA.0
REMARK                            x       y       z     vdW  Elec       q    Type
REMARK                         _______ _______ _______ _____ _____    ______ ____
ROOT
ATOM      1  C   LIG    1       -4.612   5.949  -1.962  0.00  0.00    +0.600 C 
ATOM      2  N   LIG    1       -4.127   5.421  -0.822  0.00  0.00    -0.610 N 
ATOM      3  C   LIG    1       -4.929   5.417   0.412  0.00  0.00    +0.250 C 
ATOM      4  C   LIG    1       -4.075   5.995   1.546  0.00  0.00    +0.220 C 
ATOM      5  O   LIG    1       -2.827   5.298   1.598  0.00  0.00    -0.370 OA
ATOM      6  C   LIG    1       -2.030   5.439   0.419  0.00  0.00    +0.210 C 
ATOM      7  C   LIG    1       -2.779   4.832  -0.772  0.00  0.00    +0.280 C 
ATOM      8  O   LIG    1       -3.899   6.037  -2.943  0.00  0.00    -0.540 OA
ENDROOT
BRANCH   6   9
ATOM      9  C   LIG    1       -0.720   4.718   0.610  0.00  0.00    -0.130 A 
ATOM     10  C   LIG    1       -0.632   3.669   1.505  0.00  0.00    +0.120 A 
ATOM     11  C   LIG    1        0.570   3.011   1.684  0.00  0.00    -0.010 A 
ATOM     12  C   LIG    1        1.685   3.396   0.959  0.00  0.00    +0.140 A 
ATOM     13  C   LIG    1        1.597   4.443   0.058  0.00  0.00    -0.040 A 
ATOM     14  F   LIG    1        2.859   2.749   1.131  0.00  0.00    -0.130 F 
ATOM     15  C   LIG    1        0.394   5.104  -0.117  0.00  0.00    +0.140 A 
ATOM     16  F   LIG    1        0.307   6.127  -0.995  0.00  0.00    -0.130 F 
ENDBRANCH   6   9
BRANCH   1  19
ATOM     17  C   LIG    1       -5.628   8.523  -3.463  0.00  0.00    +0.150 C 
ATOM     18  C   LIG    1       -6.465   7.547  -2.675  0.00  0.00    +0.150 A 
ATOM     19  C   LIG    1       -6.008   6.421  -2.021  0.00  0.00    -0.300 A 
ATOM     20  C   LIG    1       -7.126   5.808  -1.414  0.00  0.00    +0.270 A 
ATOM     21  N   LIG    1       -8.180   6.524  -1.695  0.00  0.00    -0.290 NA
ATOM     22  N   LIG    1       -7.792   7.612  -2.484  0.00  0.00    -0.350 N 
BRANCH  22  23
ATOM     23  C   LIG    1       -8.683   8.650  -3.008  0.00  0.00    +0.260 C 
ATOM     24  C   LIG    1       -9.435   9.336  -1.849  0.00  0.00    +0.020 C 
ATOM     25  C   LIG    1      -10.849   9.605  -2.420  0.00  0.00    +0.020 C 
ATOM     26  C   LIG    1      -11.120   8.341  -3.273  0.00  0.00    +0.020 C 
ATOM     27  C   LIG    1       -9.754   8.018  -3.914  0.00  0.00    +0.030 C 
ENDBRANCH  22  23
ENDBRANCH   1  19
TORSDOF 3
