REMARK  Name = ZINCpe000000ZsP1.1
REMARK                            x       y       z     vdW  Elec       q    Type
REMARK                         _______ _______ _______ _____ _____    ______ ____
ROOT
ATOM      1  O   LIG    1        0.124   3.738   2.613  0.00  0.00    -0.530 OA
ATOM      2  C   LIG    1       -0.879   3.646   1.937  0.00  0.00    +0.520 C 
ATOM      3  N   LIG    1       -2.092   3.711   2.520  0.00  0.00    -0.610 N 
ATOM      4  C   LIG    1       -3.321   3.607   1.718  0.00  0.00    +0.280 C 
ATOM      5  C   LIG    1       -4.220   2.533   2.351  0.00  0.00    +0.170 C 
ATOM      6  N   LIG    1       -4.430   2.850   3.769  0.00  0.00    -0.530 NA
ATOM      7  C   LIG    1       -3.165   2.813   4.516  0.00  0.00    +0.170 C 
ATOM      8  C   LIG    1       -2.223   3.892   3.974  0.00  0.00    +0.300 C 
ENDROOT
BRANCH   2   9
ATOM      9  C   LIG    1       -0.768   3.460   0.446  0.00  0.00    +0.000 C 
ATOM     10  C   LIG    1       -1.266   2.058   0.019  0.00  0.00    +0.070 C 
ATOM     11  C   LIG    1       -0.014   1.209   0.009  0.00  0.00    +0.520 C 
ATOM     12  N   LIG    1        1.077   1.993   0.003  0.00  0.00    -0.610 N 
ATOM     13  O   LIG    1        0.002  -0.004   0.002  0.00  0.00    -0.520 OA
ATOM     14  C   LIG    1        0.711   3.415   0.003  0.00  0.00    +0.300 C 
BRANCH  12  15
ATOM     15  C   LIG    1        2.454   1.494  -0.004  0.00  0.00    +0.250 C 
ATOM     16  C   LIG    1        2.677   0.574  -1.222  0.00  0.00    +0.020 C 
ATOM     17  C   LIG    1        3.610  -0.542  -0.690  0.00  0.00    +0.020 C 
ATOM     18  C   LIG    1        3.079  -0.775   0.746  0.00  0.00    +0.010 C 
ATOM     19  C   LIG    1        2.710   0.636   1.247  0.00  0.00    +0.010 C 
ENDBRANCH  12  15
ENDBRANCH   2   9
BRANCH   6  20
ATOM     20  C   LIG    1       -5.423   1.949   4.369  0.00  0.00    +0.150 C 
ATOM     21  C   LIG    1       -5.997   2.563   5.670  0.00  0.00    +0.040 C 
ATOM     22  C   LIG    1       -7.365   1.852   5.809  0.00  0.00    +0.020 C 
ATOM     23  C   LIG    1       -7.885   1.743   4.361  0.00  0.00    -0.020 C 
ATOM     24  C   LIG    1       -6.649   1.805   3.445  0.00  0.00    +0.170 C 
BRANCH  24  25
ATOM     25  O   LIG    1       -6.547   0.603   2.679  0.00  0.00    -0.570 OA
ATOM     26  H   LIG    1       -7.289   0.455   2.078  0.00  0.00    +0.380 HD
ENDBRANCH  24  25
ENDBRANCH   6  20
TORSDOF 4
