REMARK  Name = ZINCpk00000KfLn2.0
REMARK                            x       y       z     vdW  Elec       q    Type
REMARK                         _______ _______ _______ _____ _____    ______ ____
ROOT
ATOM      1  O   LIG    1        3.805   4.815   2.786  0.00  0.00    -0.520 OA
ATOM      2  C   LIG    1        3.126   5.569   2.122  0.00  0.00    +0.530 C 
ATOM      3  N   LIG    1        2.090   5.088   1.405  0.00  0.00    -0.610 N 
ATOM      4  C   LIG    1        1.258   5.989   0.596  0.00  0.00    +0.270 C 
ATOM      5  C   LIG    1        1.208   5.456  -0.840  0.00  0.00    +0.040 C 
ATOM      6  C   LIG    1        0.729   4.003  -0.824  0.00  0.00    +0.030 C 
ATOM      7  C   LIG    1        1.715   3.147  -0.025  0.00  0.00    +0.260 C 
ATOM      8  C   LIG    1        1.772   3.654   1.419  0.00  0.00    +0.300 C 
ENDROOT
BRANCH   2   9
ATOM      9  C   LIG    1        3.439   7.043   2.098  0.00  0.00    +0.010 C 
ATOM     10  C   LIG    1        2.255   7.869   2.651  0.00  0.00    +0.090 C 
ATOM     11  C   LIG    1        2.914   8.994   3.418  0.00  0.00    +0.520 C 
ATOM     12  N   LIG    1        4.205   8.700   3.653  0.00  0.00    -0.560 N 
ATOM     13  O   LIG    1        2.359  10.014   3.770  0.00  0.00    -0.500 OA
ATOM     14  C   LIG    1        4.560   7.386   3.104  0.00  0.00    +0.310 C 
BRANCH  12  15
ATOM     15  C   LIG    1        5.095   9.538   4.333  0.00  0.00    +0.160 A 
ATOM     16  C   LIG    1        4.700  10.816   4.706  0.00  0.00    -0.010 A 
ATOM     17  C   LIG    1        5.579  11.639   5.382  0.00  0.00    +0.040 A 
ATOM     18  C   LIG    1        6.855  11.196   5.679  0.00  0.00    -0.020 A 
ATOM     19  C   LIG    1        7.253   9.925   5.304  0.00  0.00    +0.040 A 
ATOM     20  C   LIG    1        6.377   9.096   4.633  0.00  0.00    -0.030 A 
ENDBRANCH  12  15
ENDBRANCH   2   9
BRANCH   7  21
ATOM     21  N   LIG    1        1.273   1.751  -0.037  0.00  0.00    -0.380 N 
ATOM     22  C   LIG    1        0.004   1.308  -0.021  0.00  0.00    +0.480 A 
ATOM     23  N   LIG    1        0.030   0.000  -0.040  0.00  0.00    -0.540 NA
ATOM     24  C   LIG    1        1.292  -0.426  -0.068  0.00  0.00    +0.420 A 
ATOM     25  N   LIG    1        2.090   0.609  -0.068  0.00  0.00    -0.320 NA
ENDBRANCH   7  21
TORSDOF 3
