REMARK  Name = ZINCpk00000ebOvu.0
REMARK                            x       y       z     vdW  Elec       q    Type
REMARK                         _______ _______ _______ _____ _____    ______ ____
ROOT
ATOM      1  C   LIG    1        3.160  -3.425  -0.047  0.00  0.00    +0.220 A 
ATOM      2  N   LIG    1        1.915  -3.829  -0.037  0.00  0.00    -0.370 NA
ATOM      3  O   LIG    1        1.163  -2.878  -0.025  0.00  0.00    +0.090 OA
ATOM      4  C   LIG    1        1.869  -1.736  -0.025  0.00  0.00    +0.270 A 
ATOM      5  N   LIG    1        3.145  -2.075  -0.044  0.00  0.00    -0.440 NA
ENDROOT
BRANCH   1   9
ATOM      6  C   LIG    1        6.614  -5.905  -0.094  0.00  0.00    -0.060 A 
ATOM      7  C   LIG    1        5.354  -6.477  -0.085  0.00  0.00    +0.010 A 
ATOM      8  C   LIG    1        4.230  -5.677  -0.070  0.00  0.00    +0.050 A 
ATOM      9  C   LIG    1        4.365  -4.290  -0.063  0.00  0.00    -0.030 A 
ATOM     10  C   LIG    1        5.636  -3.719  -0.078  0.00  0.00    +0.070 A 
ATOM     11  C   LIG    1        6.754  -4.529  -0.088  0.00  0.00    +0.010 A 
BRANCH   6  12
ATOM     12  C   LIG    1        7.838  -6.784  -0.111  0.00  0.00    +0.080 C 
BRANCH  12  13
ATOM     13  C   LIG    1        8.238  -7.074  -1.558  0.00  0.00    +0.180 C 
BRANCH  13  14
ATOM     14  O   LIG    1        9.399  -7.907  -1.574  0.00  0.00    -0.580 OA
ATOM     15  H   LIG    1        9.710  -8.132  -2.462  0.00  0.00    +0.380 HD
ENDBRANCH  13  14
ENDBRANCH  12  13
ENDBRANCH   6  12
ENDBRANCH   1   9
BRANCH   4  16
ATOM     16  C   LIG    1        1.323  -0.364  -0.013  0.00  0.00    +0.040 A 
ATOM     17  C   LIG    1        0.002  -0.004   0.002  0.00  0.00    +0.220 A 
ATOM     18  N   LIG    1       -0.016   1.345   0.009  0.00  0.00    -0.280 N 
ATOM     19  N   LIG    1        1.197   1.772   0.000  0.00  0.00    -0.050 NA
ATOM     20  N   LIG    1        2.023   0.787  -0.013  0.00  0.00    -0.200 NA
BRANCH  18  21
ATOM     21  C   LIG    1       -1.218   2.183   0.020  0.00  0.00    +0.230 C 
ATOM     22  C   LIG    1       -2.359   1.481   0.781  0.00  0.00    +0.240 C 
ATOM     23  O   LIG    1       -3.455   1.330  -0.136  0.00  0.00    -0.350 OA
ATOM     24  C   LIG    1       -2.890   1.286  -1.464  0.00  0.00    +0.220 C 
ATOM     25  C   LIG    1       -1.768   2.359  -1.416  0.00  0.00    +0.180 C 
ATOM     26  F   LIG    1       -0.777   2.091  -2.367  0.00  0.00    -0.180 F 
ENDBRANCH  18  21
ENDBRANCH   4  16
TORSDOF 6
