REMARK  Name = ZINCrD000000D9Be.0
REMARK                            x       y       z     vdW  Elec       q    Type
REMARK                         _______ _______ _______ _____ _____    ______ ____
ROOT
ATOM      1  C   LIG    1        2.426   3.938  -0.001  0.00  0.00    +0.210 A 
ATOM      2  N   LIG    1        3.633   3.433  -0.009  0.00  0.00    -0.350 NA
ATOM      3  O   LIG    1        4.461   4.319  -0.017  0.00  0.00    +0.110 OA
ATOM      4  C   LIG    1        3.853   5.514  -0.005  0.00  0.00    +0.360 A 
ATOM      5  N   LIG    1        2.553   5.282   0.005  0.00  0.00    -0.480 NA
ENDROOT
BRANCH   1   9
ATOM      6  C   LIG    1       -1.220   1.750   0.017  0.00  0.00    -0.030 A 
ATOM      7  C   LIG    1       -0.013   1.076   0.008  0.00  0.00    +0.110 A 
ATOM      8  C   LIG    1        1.174   1.781   0.000  0.00  0.00    +0.080 A 
ATOM      9  C   LIG    1        1.154   3.174   0.008  0.00  0.00    +0.030 A 
ATOM     10  C   LIG    1       -0.066   3.848   0.023  0.00  0.00    +0.090 A 
ATOM     11  C   LIG    1       -1.246   3.133   0.031  0.00  0.00    +0.110 A 
BRANCH   6  13
ATOM     12  O   LIG    1       -2.469  -0.230   0.013  0.00  0.00    -0.150 OA
ATOM     13  N   LIG    1       -2.490   0.988   0.019  0.00  0.00    +0.020 N 
ATOM     14  O   LIG    1       -3.555   1.580   0.028  0.00  0.00    -0.150 OA
ENDBRANCH   6  13
ENDBRANCH   1   9
BRANCH   4  15
ATOM     15  N   LIG    1        4.465   6.744  -0.004  0.00  0.00    -0.450 N 
ATOM     16  C   LIG    1        4.024   7.550   1.143  0.00  0.00    +0.190 C 
ATOM     17  C   LIG    1        4.773   8.886   1.139  0.00  0.00    +0.260 C 
ATOM     18  O   LIG    1        4.548   9.549  -0.108  0.00  0.00    -0.370 OA
ATOM     19  C   LIG    1        4.966   8.792  -1.246  0.00  0.00    +0.230 C 
ATOM     20  C   LIG    1        4.219   7.455  -1.267  0.00  0.00    +0.210 C 
BRANCH  19  21
ATOM     21  C   LIG    1        4.656   9.562  -2.504  0.00  0.00    -0.060 A 
ATOM     22  C   LIG    1        5.508   9.483  -3.590  0.00  0.00    +0.020 A 
ATOM     23  C   LIG    1        5.225  10.189  -4.745  0.00  0.00    +0.050 A 
ATOM     24  C   LIG    1        4.089  10.973  -4.815  0.00  0.00    -0.010 A 
ATOM     25  C   LIG    1        3.235  11.052  -3.728  0.00  0.00    +0.100 A 
ATOM     26  F   LIG    1        2.124  11.819  -3.795  0.00  0.00    -0.140 F 
ATOM     27  C   LIG    1        3.517  10.341  -2.574  0.00  0.00    +0.020 A 
ENDBRANCH  19  21
ENDBRANCH   4  15
TORSDOF 4
