REMARK  Name = ZINCvU00000005H2.0
REMARK                            x       y       z     vdW  Elec       q    Type
REMARK                         _______ _______ _______ _____ _____    ______ ____
ROOT
ATOM      1  N   LIG    1        5.084  -3.842   0.136  0.00  0.00    -0.590 N 
ATOM      2  C   LIG    1        4.977  -2.504   0.258  0.00  0.00    +0.710 C 
ATOM      3  N   LIG    1        6.056  -1.721   0.061  0.00  0.00    -0.680 N 
ATOM      4  H   LIG    1        6.903  -2.118  -0.196  0.00  0.00    +0.400 HD
ATOM      5  O   LIG    1        3.907  -2.004   0.545  0.00  0.00    -0.550 OA
ENDROOT
BRANCH   3   6
ATOM      6  C   LIG    1        5.954  -0.339   0.227  0.00  0.00    +0.170 A 
ATOM      7  C   LIG    1        4.727   0.284   0.143  0.00  0.00    +0.040 A 
ATOM      8  C   LIG    1        4.619   1.661   0.307  0.00  0.00    +0.050 A 
ATOM      9  C   LIG    1        5.715   2.430   0.552  0.00  0.00    -0.080 A 
ATOM     10  C   LIG    1        6.985   1.836   0.645  0.00  0.00    +0.150 A 
ATOM     11  N   LIG    1        8.075   2.573   0.885  0.00  0.00    -0.460 NA
ATOM     12  C   LIG    1        9.263   2.026   0.973  0.00  0.00    +0.290 A 
ATOM     13  C   LIG    1        9.450   0.655   0.821  0.00  0.00    -0.030 A 
ATOM     14  C   LIG    1        8.378  -0.157   0.573  0.00  0.00    +0.050 A 
ATOM     15  C   LIG    1        5.566   3.920   0.725  0.00  0.00    +0.110 C 
ATOM     16  C   LIG    1        7.107   0.434   0.480  0.00  0.00    -0.110 A 
ENDBRANCH   3   6
BRANCH   1  17
ATOM     17  C   LIG    1        3.880  -4.677   0.144  0.00  0.00    +0.210 C 
ATOM     18  C   LIG    1        2.533  -3.977  -0.042  0.00  0.00    +0.040 C 
ATOM     19  C   LIG    1        2.925  -4.529   1.330  0.00  0.00    +0.020 C 
ENDBRANCH   1  17
BRANCH   1  20
ATOM     20  C   LIG    1        6.404  -4.461  -0.005  0.00  0.00    +0.330 C 
BRANCH  20  23
ATOM     21  C   LIG    1        8.217  -4.171   3.297  0.00  0.00    +0.120 A 
ATOM     22  C   LIG    1        7.719  -3.868   2.040  0.00  0.00    -0.040 A 
ATOM     23  C   LIG    1        6.951  -4.795   1.359  0.00  0.00    -0.100 A 
ATOM     24  C   LIG    1        6.688  -6.028   1.925  0.00  0.00    +0.040 A 
ATOM     25  C   LIG    1        7.187  -6.339   3.176  0.00  0.00    -0.010 A 
ATOM     26  C   LIG    1        7.952  -5.413   3.866  0.00  0.00    +0.080 A 
BRANCH  21  28
ATOM     27  C   LIG    1        9.200  -2.005   3.324  0.00  0.00    +0.250 C 
ATOM     28  O   LIG    1        8.969  -3.259   3.970  0.00  0.00    -0.300 OA
ENDBRANCH  21  28
BRANCH  26  29
ATOM     29  O   LIG    1        8.444  -5.717   5.097  0.00  0.00    -0.310 OA
BRANCH  29  30
ATOM     30  C   LIG    1        8.131  -7.010   5.620  0.00  0.00    +0.590 C 
ATOM     31  F   LIG    1        8.634  -7.994   4.761  0.00  0.00    -0.200 F 
ATOM     32  F   LIG    1        6.743  -7.148   5.724  0.00  0.00    -0.200 F 
ENDBRANCH  29  30
ENDBRANCH  26  29
ENDBRANCH  20  23
ENDBRANCH   1  20
TORSDOF 7
