REMARK  Name = ZINCrD000000BQ8J.0
REMARK                            x       y       z     vdW  Elec       q    Type
REMARK                         _______ _______ _______ _____ _____    ______ ____
ROOT
ATOM      1  C   LIG    1       -2.015   5.298   4.163  0.00  0.00    +0.170 C 
ATOM      2  C   LIG    1       -2.048   4.328   5.371  0.00  0.00    +0.060 C 
ATOM      3  C   LIG    1       -2.455   5.279   6.526  0.00  0.00    +0.030 C 
ATOM      4  C   LIG    1       -1.741   6.597   6.160  0.00  0.00    +0.220 C 
ATOM      5  N   LIG    1       -1.476   6.562   4.710  0.00  0.00    -0.440 N 
ENDROOT
BRANCH   5   6
ATOM      6  C   LIG    1       -2.038   7.651   4.079  0.00  0.00    +0.410 A 
ATOM      7  N   LIG    1       -2.937   7.493   3.117  0.00  0.00    -0.580 NA
ATOM      8  C   LIG    1       -3.483   8.531   2.503  0.00  0.00    +0.520 A 
ATOM      9  N   LIG    1       -3.181   9.774   2.796  0.00  0.00    -0.530 NA
ATOM     10  C   LIG    1       -2.283  10.048   3.754  0.00  0.00    +0.170 A 
ATOM     11  C   LIG    1       -1.937  11.362   4.092  0.00  0.00    +0.030 A 
ATOM     12  C   LIG    1       -1.017  11.585   5.074  0.00  0.00    +0.060 A 
ATOM     13  C   LIG    1       -0.415  10.525   5.747  0.00  0.00    +0.000 A 
ATOM     14  C   LIG    1       -0.731   9.233   5.443  0.00  0.00    +0.070 A 
ATOM     15  C   LIG    1       -1.675   8.971   4.444  0.00  0.00    -0.170 A 
ENDBRANCH   5   6
BRANCH   1  17
ATOM     16  O   LIG    1       -0.099   5.368   2.787  0.00  0.00    -0.510 OA
ATOM     17  C   LIG    1       -1.107   4.764   3.086  0.00  0.00    +0.530 C 
ATOM     18  N   LIG    1       -1.416   3.614   2.454  0.00  0.00    -0.720 N 
ATOM     19  H   LIG    1       -2.222   3.130   2.692  0.00  0.00    +0.400 HD
BRANCH  18  20
ATOM     20  C   LIG    1       -0.533   3.095   1.406  0.00  0.00    +0.320 C 
ATOM     21  C   LIG    1       -0.729   1.579   1.268  0.00  0.00    +0.020 C 
ATOM     22  C   LIG    1       -0.013   1.086   0.008  0.00  0.00    +0.050 C 
ATOM     23  C   LIG    1       -0.754   1.593  -1.235  0.00  0.00    +0.140 C 
ATOM     24  C   LIG    1       -0.977   3.079  -1.084  0.00  0.00    -0.010 A 
ATOM     25  O   LIG    1       -1.298   3.961  -2.037  0.00  0.00    -0.170 OA
ATOM     26  C   LIG    1       -1.405   5.187  -1.494  0.00  0.00    +0.150 A 
ATOM     27  C   LIG    1       -1.150   5.093  -0.174  0.00  0.00    -0.040 A 
ATOM     28  C   LIG    1       -0.876   3.739   0.088  0.00  0.00    -0.190 A 
ENDBRANCH  18  20
ENDBRANCH   1  17
TORSDOF 3
