REMARK  Name = ZINCrH000004ljLG.0
REMARK                            x       y       z     vdW  Elec       q    Type
REMARK                         _______ _______ _______ _____ _____    ______ ____
ROOT
ATOM      1  N   LIG    1        1.183  -2.005  -0.223  0.00  0.00    -0.610 N 
ATOM      2  C   LIG    1        1.173  -0.661  -0.114  0.00  0.00    +0.700 C 
ATOM      3  N   LIG    1        0.002  -0.004   0.002  0.00  0.00    -0.690 N 
ATOM      4  H   LIG    1       -0.828  -0.501   0.074  0.00  0.00    +0.410 HD
ATOM      5  O   LIG    1        2.220  -0.043  -0.121  0.00  0.00    -0.540 OA
ENDROOT
BRANCH   3   6
ATOM      6  C   LIG    1       -0.016   1.397   0.018  0.00  0.00    +0.160 A 
ATOM      7  C   LIG    1       -1.073   2.084  -0.573  0.00  0.00    +0.020 A 
ATOM      8  C   LIG    1       -1.103   3.462  -0.563  0.00  0.00    +0.070 A 
ATOM      9  C   LIG    1       -0.075   4.172   0.039  0.00  0.00    -0.010 A 
ATOM     10  O   LIG    1        0.178   5.489   0.209  0.00  0.00    -0.210 OA
ATOM     11  C   LIG    1        1.338   5.609   0.875  0.00  0.00    +0.280 A 
ATOM     12  N   LIG    1        1.832   4.436   1.135  0.00  0.00    -0.470 NA
ATOM     13  C   LIG    1        0.994   3.487   0.637  0.00  0.00    +0.050 A 
ATOM     14  C   LIG    1        1.013   2.092   0.627  0.00  0.00    +0.100 A 
BRANCH  11  15
ATOM     15  C   LIG    1        1.975   6.918   1.265  0.00  0.00    +0.070 C 
ATOM     16  C   LIG    1        1.156   8.193   1.055  0.00  0.00    +0.060 C 
ATOM     17  C   LIG    1        2.344   7.887   0.140  0.00  0.00    +0.060 C 
ENDBRANCH  11  15
ENDBRANCH   3   6
BRANCH   1  18
ATOM     18  C   LIG    1       -0.078  -2.750  -0.215  0.00  0.00    +0.300 C 
BRANCH  18  19
ATOM     19  C   LIG    1       -0.595  -2.894  -1.648  0.00  0.00    +0.150 C 
BRANCH  19  21
ATOM     20  C   LIG    1       -0.077  -3.894  -3.764  0.00  0.00    +0.200 C 
ATOM     21  O   LIG    1        0.314  -3.697  -2.404  0.00  0.00    -0.390 OA
ENDBRANCH  19  21
ENDBRANCH  18  19
ENDBRANCH   1  18
BRANCH   1  22
ATOM     22  C   LIG    1        2.456  -2.719  -0.350  0.00  0.00    +0.400 C 
BRANCH  22  23
ATOM     23  C   LIG    1        2.969  -3.079   1.021  0.00  0.00    +0.100 A 
ATOM     24  C   LIG    1        2.691  -4.325   1.549  0.00  0.00    -0.030 A 
ATOM     25  C   LIG    1        3.172  -4.647   2.809  0.00  0.00    +0.050 A 
ATOM     26  C   LIG    1        3.909  -3.695   3.498  0.00  0.00    -0.040 A 
ATOM     27  C   LIG    1        4.142  -2.468   2.907  0.00  0.00    +0.260 A 
ATOM     28  N   LIG    1        3.673  -2.198   1.705  0.00  0.00    -0.450 NA
ENDBRANCH  22  23
ENDBRANCH   1  22
TORSDOF 7
