REMARK  Name = ZINCpk00001AZjek.0
REMARK                            x       y       z     vdW  Elec       q    Type
REMARK                         _______ _______ _______ _____ _____    ______ ____
ROOT
ATOM      1  C   LIG    1       -6.192  -3.807  -0.836  0.00  0.00    +0.040 C 
ATOM      2  C   LIG    1       -4.934  -4.727  -0.888  0.00  0.00    +0.060 C 
ATOM      3  C   LIG    1       -3.702  -3.770  -0.778  0.00  0.00    +0.060 C 
ATOM      4  C   LIG    1       -4.301  -2.585  -0.060  0.00  0.00    -0.030 C 
ATOM      5  C   LIG    1       -3.778  -1.176  -0.111  0.00  0.00    +0.270 C 
ATOM      6  N   LIG    1       -4.997  -0.315  -0.092  0.00  0.00    -0.620 N 
ATOM      7  C   LIG    1       -6.193  -1.208  -0.202  0.00  0.00    +0.290 C 
ATOM      8  C   LIG    1       -5.017   1.029   0.011  0.00  0.00    +0.580 C 
ATOM      9  O   LIG    1       -6.077   1.615   0.115  0.00  0.00    -0.520 OA
ATOM     10  C   LIG    1       -5.623  -2.417  -0.908  0.00  0.00    -0.010 C 
ENDROOT
BRANCH   8  11
ATOM     11  C   LIG    1       -3.751   1.789  -0.003  0.00  0.00    -0.110 A 
ATOM     12  C   LIG    1       -3.628   2.947   0.759  0.00  0.00    +0.120 A 
ATOM     13  C   LIG    1       -2.429   3.664   0.745  0.00  0.00    -0.190 A 
ATOM     14  C   LIG    1       -1.357   3.215  -0.044  0.00  0.00    +0.160 A 
ATOM     15  C   LIG    1       -1.490   2.051  -0.799  0.00  0.00    +0.090 A 
ATOM     16  C   LIG    1       -2.676   1.345  -0.782  0.00  0.00    +0.010 A 
BRANCH  15  17
ATOM     17  O   LIG    1       -0.451   1.613  -1.559  0.00  0.00    -0.300 OA
ATOM     18  C   LIG    1       -0.657   0.416  -2.312  0.00  0.00    +0.250 C 
ENDBRANCH  15  17
BRANCH  14  19
ATOM     19  O   LIG    1       -0.194   3.909  -0.067  0.00  0.00    -0.470 OA
ATOM     20  H   LIG    1        0.443   3.632   0.606  0.00  0.00    +0.400 HD
ENDBRANCH  14  19
BRANCH  13  21
ATOM     21  C   LIG    1       -2.293   4.887   1.546  0.00  0.00    +0.500 C 
ATOM     22  O   LIG    1       -1.249   5.506   1.536  0.00  0.00    -0.440 OA
ENDBRANCH  13  21
ENDBRANCH   8  11
BRANCH   1  23
ATOM     23  C   LIG    1       -6.947  -4.018   0.451  0.00  0.00    +0.470 C 
ATOM     24  O   LIG    1       -6.346  -4.266   1.470  0.00  0.00    -0.500 OA
BRANCH  23  26
ATOM     25  C   LIG    1       -8.947  -4.145   1.741  0.00  0.00    +0.250 C 
ATOM     26  O   LIG    1       -8.286  -3.930   0.466  0.00  0.00    -0.360 OA
ENDBRANCH  23  26
ENDBRANCH   1  23
TORSDOF 6
