REMARK  Name = ZINCpk00000y6vvT.0
REMARK                            x       y       z     vdW  Elec       q    Type
REMARK                         _______ _______ _______ _____ _____    ______ ____
ROOT
ATOM      1  C   LIG    1       -1.369   3.136   1.114  0.00  0.00    +0.510 C 
ATOM      2  O   LIG    1       -1.360   3.761   0.073  0.00  0.00    -0.480 OA
ENDROOT
BRANCH   1   6
ATOM      3  C   LIG    1       -3.464   4.651   4.483  0.00  0.00    -0.650 A 
ATOM      4  C   LIG    1       -3.457   5.365   3.298  0.00  0.00    +0.130 A 
ATOM      5  C   LIG    1       -2.778   4.879   2.200  0.00  0.00    +0.070 A 
ATOM      6  C   LIG    1       -2.097   3.663   2.286  0.00  0.00    -0.060 A 
ATOM      7  C   LIG    1       -2.114   2.945   3.483  0.00  0.00    +0.070 A 
ATOM      8  C   LIG    1       -2.792   3.445   4.575  0.00  0.00    +0.120 A 
BRANCH   3   9
ATOM      9  S   LIG    1       -4.333   5.280   5.880  0.00  0.00    +2.700 S 
ATOM     10  O   LIG    1       -4.428   6.686   5.695  0.00  0.00    -0.960 OA
ATOM     11  O   LIG    1       -3.736   4.686   7.025  0.00  0.00    -0.960 OA
BRANCH   9  12
ATOM     12  N   LIG    1       -5.879   4.693   5.802  0.00  0.00    -1.250 NA
ATOM     13  H   LIG    1       -6.523   4.927   6.489  0.00  0.00    +0.420 HD
ATOM     14  H   LIG    1       -6.141   4.114   5.068  0.00  0.00    +0.420 HD
ENDBRANCH   9  12
ENDBRANCH   3   9
ENDBRANCH   1   6
BRANCH   1  15
ATOM     15  O   LIG    1       -0.713   1.962   1.201  0.00  0.00    -0.320 OA
BRANCH  15  16
ATOM     16  C   LIG    1       -0.018   1.506   0.010  0.00  0.00    +0.200 C 
ATOM     17  C   LIG    1        0.002  -0.004   0.002  0.00  0.00    +0.060 C 
ATOM     18  C   LIG    1        0.390  -0.588  -1.321  0.00  0.00    +0.100 C 
ATOM     19  C   LIG    1        1.848  -0.558  -1.642  0.00  0.00    -0.120 A 
ATOM     20  C   LIG    1        2.329  -1.657  -2.354  0.00  0.00    +0.040 A 
ATOM     21  C   LIG    1        3.655  -1.762  -2.707  0.00  0.00    -0.010 A 
ATOM     22  C   LIG    1        4.535  -0.757  -2.347  0.00  0.00    +0.050 A 
ATOM     23  C   LIG    1        4.072   0.332  -1.649  0.00  0.00    -0.030 A 
ATOM     24  C   LIG    1        2.719   0.451  -1.290  0.00  0.00    +0.170 A 
ATOM     25  N   LIG    1        2.399   1.608  -0.617  0.00  0.00    -0.640 N 
ATOM     26  H   LIG    1        3.141   2.232  -0.598  0.00  0.00    +0.400 HD
ATOM     27  C   LIG    1        1.353   2.079   0.000  0.00  0.00    +0.510 C 
ATOM     28  O   LIG    1        1.516   3.098   0.637  0.00  0.00    -0.520 OA
ENDBRANCH  15  16
ENDBRANCH   1  15
TORSDOF 5
