REMARK  Name = ZINCrg000000nDtu.0
REMARK                            x       y       z     vdW  Elec       q    Type
REMARK                         _______ _______ _______ _____ _____    ______ ____
ROOT
ATOM      1  N   LIG    1       -0.602   2.648   8.657  0.00  0.00    -0.520 NA
ATOM      2  C   LIG    1       -0.691   1.186   8.540  0.00  0.00    +0.190 C 
ATOM      3  C   LIG    1        0.103   0.726   7.315  0.00  0.00    +0.190 C 
ATOM      4  N   LIG    1       -0.432   1.381   6.113  0.00  0.00    -0.520 NA
ATOM      5  C   LIG    1       -0.344   2.843   6.231  0.00  0.00    +0.200 C 
ATOM      6  C   LIG    1       -1.137   3.303   7.456  0.00  0.00    +0.200 C 
ENDROOT
BRANCH   1   7
ATOM      7  C   LIG    1       -1.290   3.122   9.866  0.00  0.00    +0.210 C 
BRANCH   7  10
ATOM      8  N   LIG    1       -1.498   5.231  11.142  0.00  0.00    -0.740 N 
ATOM      9  H   LIG    1       -2.079   4.762  11.761  0.00  0.00    +0.400 HD
ATOM     10  C   LIG    1       -0.973   4.579  10.085  0.00  0.00    +0.510 C 
ATOM     11  O   LIG    1       -0.247   5.165   9.311  0.00  0.00    -0.520 OA
BRANCH   8  12
ATOM     12  C   LIG    1       -1.191   6.647  11.355  0.00  0.00    +0.260 C 
BRANCH  12  13
ATOM     13  C   LIG    1       -1.907   7.140  12.614  0.00  0.00    +0.010 C 
BRANCH  13  15
ATOM     14  C   LIG    1       -2.302   9.113  14.095  0.00  0.00    +0.010 C 
ATOM     15  C   LIG    1       -1.586   8.620  12.836  0.00  0.00    +0.020 C 
ENDBRANCH  13  15
ENDBRANCH  12  13
ENDBRANCH   8  12
ENDBRANCH   7  10
ENDBRANCH   1   7
BRANCH   4  16
ATOM     16  C   LIG    1        0.256   0.907   4.905  0.00  0.00    +0.220 C 
BRANCH  16  17
ATOM     17  C   LIG    1       -0.473   1.407   3.684  0.00  0.00    +0.510 C 
ATOM     18  N   LIG    1       -0.020   1.094   2.454  0.00  0.00    -0.740 N 
ATOM     19  H   LIG    1        0.775   0.547   2.354  0.00  0.00    +0.400 HD
ATOM     20  O   LIG    1       -1.468   2.090   3.808  0.00  0.00    -0.520 OA
BRANCH  18  21
ATOM     21  C   LIG    1       -0.729   1.579   1.267  0.00  0.00    +0.270 C 
BRANCH  21  22
ATOM     22  C   LIG    1       -0.013   1.086   0.008  0.00  0.00    +0.070 C 
BRANCH  22  23
ATOM     23  C   LIG    1       -0.742   1.585  -1.213  0.00  0.00    -0.100 A 
ATOM     24  C   LIG    1       -1.750   0.824  -1.775  0.00  0.00    +0.050 A 
ATOM     25  C   LIG    1       -2.423   1.284  -2.891  0.00  0.00    -0.010 A 
ATOM     26  C   LIG    1       -2.079   2.501  -3.454  0.00  0.00    +0.100 A 
ATOM     27  C   LIG    1       -1.065   3.260  -2.893  0.00  0.00    -0.010 A 
ATOM     28  F   LIG    1       -2.732   2.948  -4.549  0.00  0.00    -0.140 F 
ATOM     29  C   LIG    1       -0.398   2.801  -1.774  0.00  0.00    +0.050 A 
ENDBRANCH  22  23
ENDBRANCH  21  22
ENDBRANCH  18  21
ENDBRANCH  16  17
ENDBRANCH   4  16
TORSDOF 10
