REMARK  Name = ZINCrD00000F5LHr.0
REMARK                            x       y       z     vdW  Elec       q    Type
REMARK                         _______ _______ _______ _____ _____    ______ ____
ROOT
ATOM      1  C   LIG    1        0.751  -0.675   0.105  0.00  0.00    +0.200 A 
ATOM      2  C   LIG    1       -0.436  -0.008   0.207  0.00  0.00    -0.120 A 
ATOM      3  C   LIG    1       -0.454   1.397   0.147  0.00  0.00    +0.070 A 
ATOM      4  C   LIG    1        0.693   2.088  -0.010  0.00  0.00    +0.200 A 
ATOM      5  N   LIG    1        1.893   1.435  -0.114  0.00  0.00    -0.370 N 
ATOM      6  C   LIG    1        3.178   1.878  -0.275  0.00  0.00    +0.160 A 
ATOM      7  C   LIG    1        3.976   0.782  -0.316  0.00  0.00    +0.070 A 
ATOM      8  N   LIG    1        3.211  -0.307  -0.183  0.00  0.00    -0.440 NA
ATOM      9 BR   LIG    1       -2.049  -0.970   0.428  0.00  0.00    -0.010 Br
ATOM     10  C   LIG    1        1.946   0.062  -0.060  0.00  0.00    +0.190 A 
ENDROOT
BRANCH   7  11
ATOM     11  C   LIG    1        5.474   0.790  -0.482  0.00  0.00    +0.080 C 
ATOM     12  C   LIG    1        6.168  -0.556  -0.703  0.00  0.00    +0.090 C 
ATOM     13  C   LIG    1        6.312   0.168   0.637  0.00  0.00    +0.030 C 
BRANCH  13  14
ATOM     14  C   LIG    1        7.644   0.803   0.945  0.00  0.00    +0.120 A 
ATOM     15  C   LIG    1        8.487   1.364   0.047  0.00  0.00    -0.120 A 
ATOM     16  C   LIG    1        9.604   1.836   0.743  0.00  0.00    +0.230 A 
ATOM     17  N   LIG    1        9.442   1.562   2.011  0.00  0.00    -0.300 NA
ATOM     18  N   LIG    1        8.211   0.909   2.164  0.00  0.00    -0.370 N 
ATOM     19  C   LIG    1        7.642   0.428   3.425  0.00  0.00    +0.350 C 
ENDBRANCH  13  14
ENDBRANCH   7  11
BRANCH   1  21
ATOM     20  C   LIG    1        1.440  -2.620   1.286  0.00  0.00    +0.240 C 
ATOM     21  O   LIG    1        0.783  -2.033   0.161  0.00  0.00    -0.300 OA
ENDBRANCH   1  21
BRANCH   6  22
ATOM     22  N   LIG    1        3.590   3.213  -0.379  0.00  0.00    -0.570 N 
ATOM     23  H   LIG    1        4.367   3.400   0.237  0.00  0.00    +0.370 HD
BRANCH  22  24
ATOM     24  C   LIG    1        2.475   4.131  -0.114  0.00  0.00    +0.100 C 
ATOM     25  C   LIG    1        3.005   5.515   0.323  0.00  0.00    +0.020 C 
ATOM     26  C   LIG    1        2.480   6.478  -0.764  0.00  0.00    +0.220 C 
ATOM     27  O   LIG    1        1.323   5.815  -1.319  0.00  0.00    -0.370 OA
ATOM     28  C   LIG    1        1.693   4.422  -1.414  0.00  0.00    +0.220 C 
ENDBRANCH  22  24
ENDBRANCH   6  22
TORSDOF 5
