REMARK  Name = ZINCpk000004Tbgt.0
REMARK                            x       y       z     vdW  Elec       q    Type
REMARK                         _______ _______ _______ _____ _____    ______ ____
ROOT
ATOM      1  N   LIG    1       -0.170  -1.453   0.125  0.00  0.00    -0.670 N 
ATOM      2  H   LIG    1        0.140  -0.535   0.171  0.00  0.00    +0.410 HD
ENDROOT
BRANCH   1   3
ATOM      3  C   LIG    1       -1.516  -1.724   0.123  0.00  0.00    +0.520 A 
ATOM      4  C   LIG    1       -2.450  -0.682   0.078  0.00  0.00    -0.250 A 
ATOM      5  C   LIG    1       -2.385   0.783   0.026  0.00  0.00    -0.260 A 
ATOM      6  C   LIG    1       -3.717   1.198  -0.005  0.00  0.00    +0.260 A 
ATOM      7  N   LIG    1       -4.508   0.140   0.027  0.00  0.00    -0.530 NA
ATOM      8  C   LIG    1       -3.826  -0.995   0.079  0.00  0.00    +0.260 A 
ATOM      9  N   LIG    1       -4.182  -2.325   0.127  0.00  0.00    -0.550 N 
ATOM     10  H   LIG    1       -5.119  -2.578   0.127  0.00  0.00    +0.430 HD
ATOM     11  C   LIG    1       -3.230  -3.272   0.162  0.00  0.00    +0.640 A 
ATOM     12  N   LIG    1       -1.954  -2.987   0.164  0.00  0.00    -0.570 NA
BRANCH   5  13
ATOM     13  C   LIG    1       -1.187   1.623   0.007  0.00  0.00    +0.600 C 
ATOM     14  O   LIG    1       -0.555   1.758  -1.025  0.00  0.00    -0.550 OA
ATOM     15  N   LIG    1       -0.784   2.249   1.131  0.00  0.00    -0.850 N 
ATOM     16  H   LIG    1        0.050   2.744   1.138  0.00  0.00    +0.400 HD
ATOM     17  H   LIG    1       -1.326   2.201   1.933  0.00  0.00    +0.400 HD
ENDBRANCH   5  13
ENDBRANCH   1   3
BRANCH   1  18
ATOM     18  C   LIG    1        0.798  -2.550   0.058  0.00  0.00    +0.280 C 
BRANCH  18  19
ATOM     19  C   LIG    1        2.218  -1.980   0.075  0.00  0.00    +0.240 C 
BRANCH  19  20
ATOM     20  N   LIG    1        2.365  -1.004  -1.008  0.00  0.00    -0.710 N 
ATOM     21  H   LIG    1        2.594  -0.084  -0.803  0.00  0.00    +0.410 HD
ATOM     22  C   LIG    1        2.183  -1.385  -2.288  0.00  0.00    +0.480 C 
ATOM     23  O   LIG    1        1.897  -2.535  -2.543  0.00  0.00    -0.490 OA
BRANCH  22  24
ATOM     24  C   LIG    1        2.334  -0.381  -3.401  0.00  0.00    +0.390 C 
ATOM     25  F   LIG    1        2.211  -1.030  -4.635  0.00  0.00    -0.170 F 
ATOM     26  F   LIG    1        3.593   0.224  -3.316  0.00  0.00    -0.190 F 
ENDBRANCH  22  24
ENDBRANCH  19  20
BRANCH  19  27
ATOM     27  C   LIG    1        3.226  -3.114  -0.120  0.00  0.00    +0.030 C 
BRANCH  27  28
ATOM     28  C   LIG    1        4.646  -2.564   0.021  0.00  0.00    +0.000 C 
BRANCH  28  30
ATOM     29  C   LIG    1        7.075  -3.148  -0.033  0.00  0.00    +0.000 C 
ATOM     30  C   LIG    1        5.654  -3.698  -0.174  0.00  0.00    +0.000 C 
ENDBRANCH  28  30
ENDBRANCH  27  28
ENDBRANCH  19  27
ENDBRANCH  18  19
ENDBRANCH   1  18
TORSDOF 9
