REMARK  Name = ZINCvU00000008mb.0
REMARK                            x       y       z     vdW  Elec       q    Type
REMARK                         _______ _______ _______ _____ _____    ______ ____
ROOT
ATOM      1  N   LIG    1        2.097  -5.303  -2.411  0.00  0.00    -0.450 N 
ATOM      2  C   LIG    1        1.922  -4.343  -1.455  0.00  0.00    +0.160 A 
ATOM      3  N   LIG    1        2.051  -4.934  -0.290  0.00  0.00    -0.290 NA
ATOM      4  N   LIG    1        2.284  -6.186  -0.458  0.00  0.00    -0.240 NA
ATOM      5  C   LIG    1        2.326  -6.466  -1.730  0.00  0.00    +0.180 A 
ENDROOT
BRANCH   5   6
ATOM      6  C   LIG    1        2.580  -7.821  -2.338  0.00  0.00    +0.250 C 
ATOM      7  C   LIG    1        4.067  -8.178  -2.205  0.00  0.00    +0.250 C 
ATOM      8  O   LIG    1        4.271  -9.474  -2.779  0.00  0.00    -0.300 OA
ATOM      9  C   LIG    1        3.380 -10.443  -2.433  0.00  0.00    +0.050 A 
ATOM     10  C   LIG    1        3.705 -11.774  -2.648  0.00  0.00    +0.030 A 
ATOM     11  C   LIG    1        2.809 -12.769  -2.304  0.00  0.00    +0.020 A 
ATOM     12  C   LIG    1        1.588 -12.441  -1.746  0.00  0.00    +0.030 A 
ATOM     13  C   LIG    1        1.259 -11.116  -1.527  0.00  0.00    +0.030 A 
ATOM     14  C   LIG    1        2.153 -10.113  -1.869  0.00  0.00    +0.050 A 
ATOM     15  O   LIG    1        1.817  -8.813  -1.644  0.00  0.00    -0.290 OA
ENDBRANCH   5   6
BRANCH   1  16
ATOM     16  C   LIG    1        2.049  -5.122  -3.864  0.00  0.00    +0.350 C 
BRANCH  16  18
ATOM     17  C   LIG    1        3.967  -5.522  -5.322  0.00  0.00    +0.060 C 
ATOM     18  C   LIG    1        3.428  -4.794  -4.375  0.00  0.00    -0.070 C 
ENDBRANCH  16  18
ENDBRANCH   1  16
BRANCH   2  19
ATOM     19  S   LIG    1        1.593  -2.635  -1.733  0.00  0.00    +0.020 S 
BRANCH  19  20
ATOM     20  C   LIG    1        1.496  -2.051  -0.023  0.00  0.00    +0.210 C 
BRANCH  20  21
ATOM     21  C   LIG    1        1.213  -0.571  -0.013  0.00  0.00    -0.230 A 
ATOM     22  C   LIG    1        0.002  -0.004   0.002  0.00  0.00    +0.250 A 
ATOM     23  N   LIG    1       -0.016   1.309   0.009  0.00  0.00    -0.460 NA
ATOM     24  C   LIG    1        1.136   1.917   0.002  0.00  0.00    +0.130 A 
ATOM     25  S   LIG    1        2.422   0.712  -0.017  0.00  0.00    +0.120 S 
BRANCH  24  26
ATOM     26  C   LIG    1        1.333   3.382   0.007  0.00  0.00    -0.040 A 
ATOM     27  C   LIG    1        2.622   3.916   0.003  0.00  0.00    +0.030 A 
ATOM     28  C   LIG    1        2.799   5.284   0.003  0.00  0.00    +0.010 A 
ATOM     29  C   LIG    1        1.702   6.127   0.019  0.00  0.00    +0.030 A 
ATOM     30  C   LIG    1        0.421   5.604   0.029  0.00  0.00    +0.010 A 
ATOM     31  C   LIG    1        0.230   4.237   0.023  0.00  0.00    +0.070 A 
ENDBRANCH  24  26
ENDBRANCH  20  21
ENDBRANCH  19  20
ENDBRANCH   2  19
TORSDOF 7
