REMARK  Name = ZINCrg00000yBYqC.0
REMARK                            x       y       z     vdW  Elec       q    Type
REMARK                         _______ _______ _______ _____ _____    ______ ____
ROOT
ATOM      1  C   LIG    1       -0.280   5.380   0.032  0.00  0.00    +0.610 C 
ATOM      2  N   LIG    1       -1.498   5.956   0.046  0.00  0.00    -0.610 N 
ATOM      3  C   LIG    1       -2.807   5.267   0.056  0.00  0.00    +0.270 C 
ATOM      4  C   LIG    1       -3.868   6.409   0.019  0.00  0.00    +0.260 C 
ATOM      5  C   LIG    1       -3.087   7.465  -0.843  0.00  0.00    +0.050 C 
ATOM      6  N   LIG    1       -3.783   7.028   1.375  0.00  0.00    -0.620 N 
ATOM      7  C   LIG    1       -4.731   7.012   2.333  0.00  0.00    +0.620 C 
ATOM      8  O   LIG    1       -5.791   6.448   2.132  0.00  0.00    -0.530 OA
ATOM      9  C   LIG    1       -2.450   7.662   1.454  0.00  0.00    +0.250 C 
ATOM     10  C   LIG    1       -1.800   7.418   0.063  0.00  0.00    +0.280 C 
ATOM     11  O   LIG    1        0.719   6.073   0.026  0.00  0.00    -0.520 OA
ENDROOT
BRANCH   1  14
ATOM     12  N   LIG    1       -1.187   1.877   0.018  0.00  0.00    -0.330 N 
ATOM     13  N   LIG    1       -1.239   3.160   0.029  0.00  0.00    -0.170 NA
ATOM     14  C   LIG    1       -0.158   3.907   0.024  0.00  0.00    +0.010 A 
ATOM     15  C   LIG    1        1.123   3.305   0.009  0.00  0.00    +0.130 A 
ATOM     16  C   LIG    1        1.196   1.943   0.001  0.00  0.00    -0.020 A 
ATOM     17  C   LIG    1       -0.015   1.216   0.009  0.00  0.00    +0.480 A 
ATOM     18  O   LIG    1        0.002  -0.004   0.002  0.00  0.00    -0.520 OA
BRANCH  12  20
ATOM     19  C   LIG    1       -2.864   0.839   1.463  0.00  0.00    +0.040 C 
ATOM     20  C   LIG    1       -2.436   1.113   0.020  0.00  0.00    +0.310 C 
ENDBRANCH  12  20
ENDBRANCH   1  14
BRANCH   7  21
ATOM     21  C   LIG    1       -4.485   7.671   3.615  0.00  0.00    -0.300 A 
ATOM     22  C   LIG    1       -5.368   7.727   4.659  0.00  0.00    +0.160 A 
ATOM     23  C   LIG    1       -4.880   8.406   5.747  0.00  0.00    -0.060 A 
ATOM     24  C   LIG    1       -3.637   8.902   5.598  0.00  0.00    +0.010 A 
ATOM     25  S   LIG    1       -3.012   8.523   4.056  0.00  0.00    +0.170 S 
BRANCH  24  26
ATOM     26  O   LIG    1       -2.972   9.608   6.545  0.00  0.00    -0.270 OA
ATOM     27  C   LIG    1       -1.657  10.059   6.214  0.00  0.00    +0.250 C 
ENDBRANCH  24  26
ENDBRANCH   7  21
TORSDOF 4
