REMARK  Name = ZINCrH000004sscY.0
REMARK                            x       y       z     vdW  Elec       q    Type
REMARK                         _______ _______ _______ _____ _____    ______ ____
ROOT
ATOM      1  C   LIG    1       -4.651   4.854  -5.025  0.00  0.00    +0.190 A 
ATOM      2  N   LIG    1       -5.717   4.489  -5.692  0.00  0.00    -0.450 NA
ATOM      3  C   LIG    1       -5.571   5.017  -6.929  0.00  0.00    +0.220 A 
ATOM      4  N   LIG    1       -4.436   5.666  -6.939  0.00  0.00    -0.360 NA
ATOM      5  O   LIG    1       -3.900   5.586  -5.854  0.00  0.00    +0.090 OA
ENDROOT
BRANCH   3   6
ATOM      6  C   LIG    1       -6.521   4.885  -8.061  0.00  0.00    +0.230 A 
ATOM      7  C   LIG    1       -6.220   5.495  -9.281  0.00  0.00    -0.010 A 
ATOM      8  C   LIG    1       -7.095   5.375 -10.328  0.00  0.00    +0.120 A 
ATOM      9  C   LIG    1       -8.266   4.638 -10.131  0.00  0.00    -0.140 A 
ATOM     10  C   LIG    1       -9.409   4.293 -10.977  0.00  0.00    -0.040 A 
ATOM     11  C   LIG    1      -10.240   3.551 -10.226  0.00  0.00    +0.250 A 
ATOM     12  N   LIG    1       -9.720   3.394  -8.970  0.00  0.00    -0.580 N 
ATOM     13  H   LIG    1      -10.141   2.896  -8.252  0.00  0.00    +0.420 HD
ATOM     14  C   LIG    1       -8.513   4.046  -8.876  0.00  0.00    +0.290 A 
ATOM     15  N   LIG    1       -7.634   4.186  -7.896  0.00  0.00    -0.460 NA
ENDBRANCH   3   6
BRANCH   1  19
ATOM     16  N   LIG    1       -2.550   4.726  -1.330  0.00  0.00    -0.530 NA
ATOM     17  C   LIG    1       -2.671   3.458  -2.061  0.00  0.00    +0.180 C 
ATOM     18  C   LIG    1       -3.016   3.743  -3.524  0.00  0.00    +0.050 C 
ATOM     19  C   LIG    1       -4.334   4.519  -3.591  0.00  0.00    +0.130 C 
ATOM     20  C   LIG    1       -4.198   5.812  -2.781  0.00  0.00    +0.060 C 
ATOM     21  C   LIG    1       -3.818   5.467  -1.339  0.00  0.00    +0.190 C 
BRANCH  16  22
ATOM     22  C   LIG    1       -2.084   4.499   0.045  0.00  0.00    +0.280 C 
BRANCH  22  26
ATOM     23  C   LIG    1        0.002  -0.004   0.002  0.00  0.00    +0.180 C 
ATOM     24  C   LIG    1       -0.018   1.503   0.010  0.00  0.00    +0.050 A 
ATOM     25  N   LIG    1       -1.086   2.227   0.019  0.00  0.00    -0.470 NA
ATOM     26  C   LIG    1       -0.925   3.535   0.029  0.00  0.00    +0.070 A 
ATOM     27  C   LIG    1        0.349   3.936   0.019  0.00  0.00    -0.060 A 
ATOM     28  S   LIG    1        1.370   2.500   0.002  0.00  0.00    +0.120 S 
ENDBRANCH  22  26
ENDBRANCH  16  22
ENDBRANCH   1  19
TORSDOF 4
