REMARK  Name = ZINCrH000004m6DX.0
REMARK                            x       y       z     vdW  Elec       q    Type
REMARK                         _______ _______ _______ _____ _____    ______ ____
ROOT
ATOM      1  N   LIG    1       -0.011   0.966   0.007  0.00  0.00    -0.740 N 
ATOM      2  H   LIG    1        0.002  -0.004   0.002  0.00  0.00    +0.400 HD
ATOM      3  C   LIG    1        1.147   1.655   0.000  0.00  0.00    +0.710 C 
ATOM      4  N   LIG    1        2.323   0.998  -0.015  0.00  0.00    -0.650 N 
ATOM      5  H   LIG    1        2.336   0.028  -0.020  0.00  0.00    +0.400 HD
ATOM      6  O   LIG    1        1.130   2.871   0.007  0.00  0.00    -0.570 OA
ENDROOT
BRANCH   4   7
ATOM      7  C   LIG    1        3.533   1.718  -0.022  0.00  0.00    +0.040 A 
ATOM      8  C   LIG    1        4.781   1.185  -0.032  0.00  0.00    +0.050 A 
ATOM      9  N   LIG    1        5.668   2.217  -0.039  0.00  0.00    -0.320 N 
ATOM     10  N   LIG    1        4.937   3.412  -0.026  0.00  0.00    -0.280 NA
ATOM     11  C   LIG    1        3.662   3.115  -0.016  0.00  0.00    +0.270 A 
BRANCH   9  12
ATOM     12  C   LIG    1        7.065   2.104  -0.052  0.00  0.00    +0.160 A 
ATOM     13  C   LIG    1        7.686   1.067   0.630  0.00  0.00    -0.010 A 
ATOM     14  C   LIG    1        9.062   0.956   0.611  0.00  0.00    +0.030 A 
ATOM     15  C   LIG    1        9.823   1.882  -0.079  0.00  0.00    +0.010 A 
ATOM     16  C   LIG    1        9.208   2.920  -0.755  0.00  0.00    +0.030 A 
ATOM     17  C   LIG    1        7.831   3.033  -0.744  0.00  0.00    +0.020 A 
ENDBRANCH   9  12
BRANCH   8  18
ATOM     18  C   LIG    1        5.122  -0.283  -0.036  0.00  0.00    +0.060 C 
ATOM     19  C   LIG    1        4.527  -0.941  -1.283  0.00  0.00    +0.040 C 
ATOM     20  C   LIG    1        4.543  -0.946   1.215  0.00  0.00    +0.040 C 
ENDBRANCH   8  18
ENDBRANCH   4   7
BRANCH   1  21
ATOM     21  C   LIG    1       -1.290   1.681   0.017  0.00  0.00    +0.360 C 
BRANCH  21  24
ATOM     22  C   LIG    1       -4.001  -0.692  -1.132  0.00  0.00    +0.320 A 
ATOM     23  C   LIG    1       -2.963   0.230  -1.172  0.00  0.00    -0.030 A 
ATOM     24  C   LIG    1       -2.422   0.686   0.017  0.00  0.00    -0.030 A 
ATOM     25  C   LIG    1       -2.949   0.211   1.210  0.00  0.00    -0.050 A 
ATOM     26  C   LIG    1       -3.986  -0.700   1.174  0.00  0.00    +0.300 A 
ATOM     27  N   LIG    1       -4.477  -1.121   0.025  0.00  0.00    -0.530 NA
BRANCH  22  29
ATOM     28  C   LIG    1       -5.606  -2.093  -2.184  0.00  0.00    +0.260 C 
ATOM     29  O   LIG    1       -4.536  -1.151  -2.291  0.00  0.00    -0.310 OA
ENDBRANCH  22  29
ENDBRANCH  21  24
ENDBRANCH   1  21
TORSDOF 6
