REMARK  Name = ZINCpe00000gMawp.0
REMARK                            x       y       z     vdW  Elec       q    Type
REMARK                         _______ _______ _______ _____ _____    ______ ____
ROOT
ATOM      1  C   LIG    1       -3.968   4.950   1.683  0.00  0.00    +0.530 C 
ATOM      2  N   LIG    1       -2.839   4.260   1.425  0.00  0.00    -0.720 N 
ATOM      3  H   LIG    1       -2.257   3.993   2.153  0.00  0.00    +0.400 HD
ATOM      4  O   LIG    1       -4.697   5.284   0.773  0.00  0.00    -0.520 OA
ENDROOT
BRANCH   1   7
ATOM      5  N   LIG    1       -6.329   5.633   4.379  0.00  0.00    -0.610 N 
ATOM      6  C   LIG    1       -5.655   6.091   3.159  0.00  0.00    +0.310 C 
ATOM      7  C   LIG    1       -4.326   5.305   3.103  0.00  0.00    +0.000 C 
ATOM      8  C   LIG    1       -4.674   4.038   3.920  0.00  0.00    +0.080 C 
ATOM      9  C   LIG    1       -5.803   4.480   4.825  0.00  0.00    +0.520 C 
ATOM     10  O   LIG    1       -6.178   3.880   5.810  0.00  0.00    -0.520 OA
BRANCH   5  14
ATOM     11  C   LIG    1       -9.283   5.011   7.434  0.00  0.00    +0.170 C 
ATOM     12  N   LIG    1       -8.859   6.057   6.493  0.00  0.00    -0.480 NA
ATOM     13  C   LIG    1       -8.731   5.516   5.122  0.00  0.00    +0.160 C 
ATOM     14  C   LIG    1       -7.435   6.342   5.028  0.00  0.00    +0.250 C 
ATOM     15  C   LIG    1       -7.398   6.275   6.565  0.00  0.00    +0.170 C 
ENDBRANCH   5  14
ENDBRANCH   1   7
BRANCH   2  16
ATOM     16  C   LIG    1       -2.492   3.915   0.044  0.00  0.00    +0.350 C 
BRANCH  16  17
ATOM     17  C   LIG    1       -1.193   3.151   0.029  0.00  0.00    +0.110 A 
ATOM     18  C   LIG    1       -1.213   1.769   0.017  0.00  0.00    +0.030 A 
ATOM     19  C   LIG    1       -0.013   1.076   0.008  0.00  0.00    +0.080 A 
ATOM     20  C   LIG    1        1.169   1.802   0.001  0.00  0.00    +0.040 A 
ATOM     21  C   LIG    1        1.111   3.183   0.008  0.00  0.00    +0.040 A 
ATOM     22  N   LIG    1       -0.050   3.809   0.022  0.00  0.00    -0.430 NA
BRANCH  21  23
ATOM     23  C   LIG    1        2.388   3.982   0.000  0.00  0.00    +0.520 C 
ATOM     24  F   LIG    1        3.395   3.257   0.647  0.00  0.00    -0.170 F 
ATOM     25  F   LIG    1        2.184   5.194   0.668  0.00  0.00    -0.160 F 
ATOM     26  F   LIG    1        2.771   4.236  -1.321  0.00  0.00    -0.170 F 
ENDBRANCH  21  23
ENDBRANCH  16  17
ENDBRANCH   2  16
TORSDOF 5
