REMARK  Name = ZINCqH0000007MJO.0
REMARK                            x       y       z     vdW  Elec       q    Type
REMARK                         _______ _______ _______ _____ _____    ______ ____
ROOT
ATOM      1  N   LIG    1       -0.437   6.781   0.764  0.00  0.00    -0.620 N 
ATOM      2  H   LIG    1       -1.303   6.728   1.198  0.00  0.00    +0.430 HD
ATOM      3  C   LIG    1       -0.087   7.896   0.093  0.00  0.00    +0.520 C 
ATOM      4  O   LIG    1        1.026   7.997  -0.378  0.00  0.00    -0.490 OA
ENDROOT
BRANCH   1   8
ATOM      5  C   LIG    1        1.143   2.369   2.021  0.00  0.00    +0.180 A 
ATOM      6  C   LIG    1        1.160   3.655   1.430  0.00  0.00    +0.080 A 
ATOM      7  N   LIG    1        0.204   4.605   1.450  0.00  0.00    -0.480 NA
ATOM      8  C   LIG    1        0.442   5.711   0.836  0.00  0.00    +0.300 A 
ATOM      9  S   LIG    1        2.043   5.676   0.110  0.00  0.00    +0.180 S 
ATOM     10  C   LIG    1        2.299   4.044   0.721  0.00  0.00    -0.180 A 
ATOM     11  C   LIG    1        3.383   3.177   0.596  0.00  0.00    +0.020 A 
ATOM     12  C   LIG    1        3.344   1.928   1.174  0.00  0.00    +0.080 A 
ATOM     13  C   LIG    1        2.224   1.527   1.886  0.00  0.00    -0.070 A 
BRANCH   5  15
ATOM     14  C   LIG    1        0.097   0.650   3.288  0.00  0.00    +0.240 C 
ATOM     15  O   LIG    1        0.052   1.961   2.722  0.00  0.00    -0.300 OA
ENDBRANCH   5  15
ENDBRANCH   1   8
BRANCH   3  16
ATOM     16  C   LIG    1       -1.079   9.018  -0.073  0.00  0.00    +0.270 C 
BRANCH  16  17
ATOM     17  N   LIG    1       -0.362  10.289  -0.205  0.00  0.00    -0.720 N 
ATOM     18  H   LIG    1        0.549  10.299  -0.536  0.00  0.00    +0.410 HD
ATOM     19  C   LIG    1       -0.969  11.444   0.134  0.00  0.00    +0.600 C 
ATOM     20  O   LIG    1       -2.113  11.431   0.550  0.00  0.00    -0.520 OA
BRANCH  19  21
ATOM     21  C   LIG    1       -0.251  12.715   0.002  0.00  0.00    -0.280 A 
ATOM     22  C   LIG    1       -0.757  13.946   0.312  0.00  0.00    +0.110 A 
ATOM     23  C   LIG    1        0.134  14.970   0.091  0.00  0.00    +0.000 A 
ATOM     24  C   LIG    1        1.327  14.593  -0.382  0.00  0.00    -0.050 A 
ATOM     25  S   LIG    1        1.400  12.899  -0.573  0.00  0.00    +0.210 S 
ENDBRANCH  19  21
ENDBRANCH  16  17
BRANCH  16  26
ATOM     26  C   LIG    1       -1.920   8.775  -1.328  0.00  0.00    -0.020 C 
ATOM     27  C   LIG    1       -2.892   9.940  -1.525  0.00  0.00    +0.050 C 
ATOM     28  C   LIG    1       -2.709   7.474  -1.168  0.00  0.00    +0.040 C 
ENDBRANCH  16  26
ENDBRANCH   3  16
TORSDOF 6
