REMARK  Name = ZINCqH0000003632.0
REMARK                            x       y       z     vdW  Elec       q    Type
REMARK                         _______ _______ _______ _____ _____    ______ ____
ROOT
ATOM      1  C   LIG    1       -0.119  -0.528  -4.354  0.00  0.00    -0.070 A 
ATOM      2  C   LIG    1        1.039   0.070  -4.834  0.00  0.00    +0.030 A 
ATOM      3  C   LIG    1        1.609  -0.389  -6.019  0.00  0.00    +0.180 A 
ATOM      4  N   LIG    1        1.079  -1.368  -6.708  0.00  0.00    -0.440 NA
ATOM      5  C   LIG    1       -0.036  -1.987  -6.312  0.00  0.00    +0.100 A 
ATOM      6  C   LIG    1       -0.587  -3.037  -7.070  0.00  0.00    +0.090 A 
ATOM      7  C   LIG    1       -1.723  -3.654  -6.651  0.00  0.00    -0.030 A 
ATOM      8  C   LIG    1       -2.361  -3.261  -5.470  0.00  0.00    +0.140 A 
ATOM      9  C   LIG    1       -1.849  -2.237  -4.703  0.00  0.00    +0.000 A 
ATOM     10  C   LIG    1       -0.680  -1.587  -5.114  0.00  0.00    -0.030 A 
ENDROOT
BRANCH   1  12
ATOM     11  N   LIG    1       -1.060   1.229  -2.933  0.00  0.00    -0.600 N 
ATOM     12  C   LIG    1       -0.750  -0.072  -3.098  0.00  0.00    +0.570 C 
ATOM     13  O   LIG    1       -0.990  -0.871  -2.214  0.00  0.00    -0.520 OA
BRANCH  11  15
ATOM     14  C   LIG    1       -2.125   2.118  -4.947  0.00  0.00    +0.020 C 
ATOM     15  C   LIG    1       -0.891   2.169  -4.044  0.00  0.00    +0.270 C 
ENDBRANCH  11  15
BRANCH  11  16
ATOM     16  C   LIG    1       -1.565   1.704  -1.643  0.00  0.00    +0.290 C 
BRANCH  16  17
ATOM     17  C   LIG    1       -0.394   2.175  -0.778  0.00  0.00    +0.140 C 
ATOM     18  C   LIG    1       -0.911   2.638   0.601  0.00  0.00    +0.020 C 
ATOM     19  C   LIG    1       -0.026   3.882   0.884  0.00  0.00    +0.000 C 
ATOM     20  C   LIG    1        0.151   4.448  -0.548  0.00  0.00    +0.200 C 
ATOM     21  O   LIG    1        0.248   3.295  -1.398  0.00  0.00    -0.370 OA
ENDBRANCH  16  17
ENDBRANCH  11  16
ENDBRANCH   1  12
BRANCH   3  22
ATOM     22  C   LIG    1        2.869   0.265  -6.526  0.00  0.00    +0.020 C 
ATOM     23  C   LIG    1        3.248   1.623  -5.933  0.00  0.00    +0.040 C 
ATOM     24  C   LIG    1        2.718   1.534  -7.365  0.00  0.00    +0.040 C 
ENDBRANCH   3  22
BRANCH   8  25
ATOM     25  O   LIG    1       -3.496  -3.895  -5.075  0.00  0.00    -0.310 OA
ATOM     26  C   LIG    1       -3.976  -4.948  -5.913  0.00  0.00    +0.240 C 
ENDBRANCH   8  25
TORSDOF 6
