REMARK  Name = ZINCzw0000000bPG.2
REMARK                            x       y       z     vdW  Elec       q    Type
REMARK                         _______ _______ _______ _____ _____    ______ ____
ROOT
ATOM      1  N   LIG    1       -5.720  -0.209  -6.266  0.00  0.00    -0.520 NA
ATOM      2  C   LIG    1       -6.450   0.883  -5.609  0.00  0.00    +0.190 C 
ATOM      3  C   LIG    1       -5.465   1.744  -4.811  0.00  0.00    +0.320 C 
ATOM      4  N   LIG    1       -4.707   0.868  -3.904  0.00  0.00    -0.590 N 
ATOM      5  C   LIG    1       -4.055  -0.323  -4.471  0.00  0.00    +0.290 C 
ATOM      6  C   LIG    1       -4.608   1.152  -2.590  0.00  0.00    +0.500 C 
ATOM      7  O   LIG    1       -5.147   2.140  -2.141  0.00  0.00    -0.530 OA
ATOM      8  C   LIG    1       -5.101  -1.105  -5.281  0.00  0.00    +0.180 C 
ENDROOT
BRANCH   1   9
ATOM      9  C   LIG    1       -6.598  -0.955  -7.178  0.00  0.00    +0.230 C 
BRANCH   9  12
ATOM     10  N   LIG    1       -6.367  -2.691  -8.924  0.00  0.00    -0.670 N 
ATOM     11  H   LIG    1       -7.335  -2.710  -8.992  0.00  0.00    +0.410 HD
ATOM     12  C   LIG    1       -5.771  -1.899  -8.011  0.00  0.00    +0.510 C 
ATOM     13  O   LIG    1       -4.568  -1.946  -7.861  0.00  0.00    -0.500 OA
BRANCH  10  18
ATOM     14  C   LIG    1       -3.220  -5.917 -12.370  0.00  0.00    +0.090 C 
ATOM     15  C   LIG    1       -4.056  -5.060 -11.455  0.00  0.00    -0.090 A 
ATOM     16  C   LIG    1       -5.294  -5.507 -11.030  0.00  0.00    +0.030 A 
ATOM     17  C   LIG    1       -6.063  -4.724 -10.192  0.00  0.00    -0.010 A 
ATOM     18  C   LIG    1       -5.591  -3.487  -9.774  0.00  0.00    +0.130 A 
ATOM     19  C   LIG    1       -4.350  -3.038 -10.206  0.00  0.00    +0.020 A 
ATOM     20  C   LIG    1       -3.584  -3.828 -11.040  0.00  0.00    +0.030 A 
ENDBRANCH  10  18
ENDBRANCH   9  12
ENDBRANCH   1   9
BRANCH   6  21
ATOM     21  C   LIG    1       -3.826   0.240  -1.679  0.00  0.00    +0.290 C 
BRANCH  21  22
ATOM     22  N   LIG    1       -3.870   0.764  -0.308  0.00  0.00    -0.380 N 
ATOM     23  C   LIG    1       -5.251   0.703   0.204  0.00  0.00    +0.270 C 
ATOM     24  C   LIG    1       -5.231  -0.182   1.468  0.00  0.00    +0.080 C 
ATOM     25  C   LIG    1       -3.749  -0.109   1.925  0.00  0.00    +0.090 C 
ATOM     26  C   LIG    1       -3.007  -0.058   0.567  0.00  0.00    +0.230 C 
ATOM     27  H   LIG    1       -3.549   1.721  -0.299  0.00  0.00    +0.430 HD
BRANCH  26  28
ATOM     28  C   LIG    1       -1.656   0.590   0.731  0.00  0.00    -0.140 A 
ATOM     29  C   LIG    1       -1.560   1.963   0.853  0.00  0.00    +0.010 A 
ATOM     30  C   LIG    1       -0.323   2.562   0.997  0.00  0.00    +0.050 A 
ATOM     31  C   LIG    1        0.826   1.786   1.024  0.00  0.00    +0.080 A 
ATOM     32  O   LIG    1        2.037   2.390   1.163  0.00  0.00    -0.300 OA
ATOM     33  C   LIG    1        3.130   1.556   1.565  0.00  0.00    +0.240 C 
ATOM     34  C   LIG    1        3.095   0.277   0.716  0.00  0.00    +0.240 C 
ATOM     35  O   LIG    1        1.843  -0.378   0.942  0.00  0.00    -0.300 OA
ATOM     36  C   LIG    1        0.729   0.404   0.909  0.00  0.00    +0.070 A 
ATOM     37  C   LIG    1       -0.516  -0.191   0.764  0.00  0.00    +0.070 A 
ENDBRANCH  26  28
ENDBRANCH  21  22
ENDBRANCH   6  21
TORSDOF 6
