REMARK  Name = ZINCzw0000000bPG.1
REMARK                            x       y       z     vdW  Elec       q    Type
REMARK                         _______ _______ _______ _____ _____    ______ ____
ROOT
ATOM      1  N   LIG    1        2.406   8.374   0.644  0.00  0.00    -0.520 NA
ATOM      2  C   LIG    1        1.818   8.527  -0.694  0.00  0.00    +0.180 C 
ATOM      3  C   LIG    1        1.495  10.004  -0.941  0.00  0.00    +0.290 C 
ATOM      4  N   LIG    1        2.712  10.795  -0.703  0.00  0.00    -0.590 N 
ATOM      5  C   LIG    1        3.435  10.595   0.563  0.00  0.00    +0.320 C 
ATOM      6  C   LIG    1        3.154  11.679  -1.619  0.00  0.00    +0.500 C 
ATOM      7  O   LIG    1        4.159  12.322  -1.406  0.00  0.00    -0.530 OA
ATOM      8  C   LIG    1        3.682   9.094   0.750  0.00  0.00    +0.180 C 
ENDROOT
BRANCH   1   9
ATOM      9  C   LIG    1        2.571   6.956   0.987  0.00  0.00    +0.230 C 
BRANCH   9  12
ATOM     10  N   LIG    1        1.121   4.998   1.417  0.00  0.00    -0.670 N 
ATOM     11  H   LIG    1        1.920   4.491   1.629  0.00  0.00    +0.410 HD
ATOM     12  C   LIG    1        1.217   6.306   1.106  0.00  0.00    +0.510 C 
ATOM     13  O   LIG    1        0.212   6.961   0.923  0.00  0.00    -0.500 OA
BRANCH  10  18
ATOM     14  C   LIG    1       -3.954   2.463   1.472  0.00  0.00    +0.090 C 
ATOM     15  C   LIG    1       -2.605   3.136   1.460  0.00  0.00    -0.090 A 
ATOM     16  C   LIG    1       -1.488   2.433   1.049  0.00  0.00    +0.030 A 
ATOM     17  C   LIG    1       -0.251   3.048   1.032  0.00  0.00    -0.010 A 
ATOM     18  C   LIG    1       -0.130   4.372   1.433  0.00  0.00    +0.130 A 
ATOM     19  C   LIG    1       -1.254   5.074   1.850  0.00  0.00    +0.030 A 
ATOM     20  C   LIG    1       -2.487   4.453   1.865  0.00  0.00    +0.030 A 
ENDBRANCH  10  18
ENDBRANCH   9  12
ENDBRANCH   1   9
BRANCH   6  21
ATOM     21  C   LIG    1        2.397  11.867  -2.909  0.00  0.00    +0.290 C 
BRANCH  21  22
ATOM     22  N   LIG    1        3.077  12.877  -3.732  0.00  0.00    -0.370 N 
ATOM     23  C   LIG    1        2.961  14.203  -3.088  0.00  0.00    +0.270 C 
ATOM     24  C   LIG    1        2.809  15.202  -4.260  0.00  0.00    +0.080 C 
ATOM     25  C   LIG    1        1.932  14.391  -5.249  0.00  0.00    +0.090 C 
ATOM     26  C   LIG    1        2.440  12.946  -5.060  0.00  0.00    +0.230 C 
ATOM     27  H   LIG    1        4.051  12.634  -3.834  0.00  0.00    +0.430 HD
BRANCH  26  28
ATOM     28  C   LIG    1        1.282  11.983  -5.124  0.00  0.00    -0.150 A 
ATOM     29  C   LIG    1        0.143  12.225  -4.380  0.00  0.00    +0.030 A 
ATOM     30  C   LIG    1       -0.921  11.343  -4.436  0.00  0.00    +0.040 A 
ATOM     31  C   LIG    1       -0.847  10.214  -5.237  0.00  0.00    +0.090 A 
ATOM     32  O   LIG    1       -1.899   9.351  -5.275  0.00  0.00    -0.300 OA
ATOM     33  C   LIG    1       -1.936   8.431  -6.371  0.00  0.00    +0.240 C 
ATOM     34  C   LIG    1       -0.539   7.815  -6.531  0.00  0.00    +0.230 C 
ATOM     35  O   LIG    1        0.390   8.874  -6.785  0.00  0.00    -0.300 OA
ATOM     36  C   LIG    1        0.299   9.973  -5.986  0.00  0.00    +0.060 A 
ATOM     37  C   LIG    1        1.360  10.863  -5.930  0.00  0.00    +0.060 A 
ENDBRANCH  26  28
ENDBRANCH  21  22
ENDBRANCH   6  21
TORSDOF 6
