REMARK  Name = ZINCqH0000003cQS.0
REMARK                            x       y       z     vdW  Elec       q    Type
REMARK                         _______ _______ _______ _____ _____    ______ ____
ROOT
ATOM      1  N   LIG    1        6.603  -0.586  -0.065  0.00  0.00    -0.660 N 
ATOM      2  H   LIG    1        6.073  -1.397  -0.114  0.00  0.00    +0.420 HD
ATOM      3  C   LIG    1        5.998   0.605   0.118  0.00  0.00    +0.600 C 
ATOM      4  O   LIG    1        6.666   1.609   0.276  0.00  0.00    -0.480 OA
ENDROOT
BRANCH   3   5
ATOM      5  C   LIG    1        4.531   0.689   0.127  0.00  0.00    -0.040 A 
ATOM      6  C   LIG    1        3.815   1.830   0.302  0.00  0.00    -0.060 A 
ATOM      7  C   LIG    1        2.407   1.439   0.238  0.00  0.00    -0.100 A 
ATOM      8  C   LIG    1        1.199   2.133   0.342  0.00  0.00    +0.040 A 
ATOM      9  C   LIG    1        0.007   1.446   0.233  0.00  0.00    +0.110 A 
ATOM     10  C   LIG    1        0.009   0.069   0.020  0.00  0.00    -0.010 A 
ATOM     11  C   LIG    1        1.195  -0.624  -0.085  0.00  0.00    +0.070 A 
ATOM     12  C   LIG    1        2.406   0.048   0.022  0.00  0.00    +0.040 A 
ATOM     13  C   LIG    1        4.360   3.218   0.518  0.00  0.00    +0.140 C 
ATOM     14  O   LIG    1        3.692  -0.355  -0.037  0.00  0.00    -0.180 OA
BRANCH   9  15
ATOM     15  O   LIG    1       -1.173   2.115   0.327  0.00  0.00    -0.310 OA
ATOM     16  C   LIG    1       -2.369   1.343   0.199  0.00  0.00    +0.240 C 
ENDBRANCH   9  15
ENDBRANCH   3   5
BRANCH   1  21
ATOM     17  C   LIG    1       10.077   0.314  -0.906  0.00  0.00    -0.120 A 
ATOM     18  C   LIG    1       10.758  -0.799  -0.412  0.00  0.00    +0.030 A 
ATOM     19  C   LIG    1       10.058  -1.826   0.189  0.00  0.00    +0.040 A 
ATOM     20  C   LIG    1        8.684  -1.753   0.310  0.00  0.00    +0.010 A 
ATOM     21  C   LIG    1        7.995  -0.651  -0.184  0.00  0.00    +0.140 A 
ATOM     22  C   LIG    1        8.688   0.385  -0.790  0.00  0.00    +0.090 A 
BRANCH  17  25
ATOM     23  N   LIG    1       12.165   1.345  -1.662  0.00  0.00    -0.730 N 
ATOM     24  H   LIG    1       12.640   0.572  -1.319  0.00  0.00    +0.400 HD
ATOM     25  C   LIG    1       10.824   1.415  -1.551  0.00  0.00    +0.560 C 
ATOM     26  O   LIG    1       10.228   2.384  -1.981  0.00  0.00    -0.530 OA
BRANCH  23  28
ATOM     27  C   LIG    1       14.400   2.108  -2.298  0.00  0.00    +0.030 C 
ATOM     28  C   LIG    1       12.905   2.436  -2.301  0.00  0.00    +0.250 C 
ENDBRANCH  23  28
ENDBRANCH  17  25
ENDBRANCH   1  21
TORSDOF 5
