REMARK  Name = ZINCvU0000000CCl.0
REMARK                            x       y       z     vdW  Elec       q    Type
REMARK                         _______ _______ _______ _____ _____    ______ ____
ROOT
ATOM      1  C   LIG    1        0.823  -1.899   1.041  0.00  0.00    +0.410 A 
ATOM      2  C   LIG    1       -0.104  -2.676   0.304  0.00  0.00    -0.150 A 
ATOM      3  C   LIG    1       -0.174  -4.117   0.098  0.00  0.00    -0.010 A 
ATOM      4  C   LIG    1       -1.192  -4.516  -0.662  0.00  0.00    -0.020 A 
ATOM      5  S   LIG    1       -2.160  -3.155  -1.196  0.00  0.00    +0.180 S 
ATOM      6  C   LIG    1       -1.137  -2.003  -0.350  0.00  0.00    +0.090 A 
ATOM      7  N   LIG    1       -1.207  -0.668  -0.255  0.00  0.00    -0.490 NA
ATOM      8  C   LIG    1       -0.323   0.008   0.441  0.00  0.00    +0.360 A 
ATOM      9  N   LIG    1        0.675  -0.582   1.073  0.00  0.00    -0.530 NA
ENDROOT
BRANCH   3  10
ATOM     10  C   LIG    1        0.807  -5.060   0.686  0.00  0.00    -0.030 A 
ATOM     11  C   LIG    1        2.168  -4.910   0.421  0.00  0.00    +0.050 A 
ATOM     12  C   LIG    1        3.077  -5.788   0.976  0.00  0.00    +0.000 A 
ATOM     13  C   LIG    1        2.639  -6.823   1.783  0.00  0.00    +0.010 A 
ATOM     14  C   LIG    1        1.290  -6.981   2.044  0.00  0.00    +0.000 A 
ATOM     15  C   LIG    1        0.372  -6.105   1.500  0.00  0.00    +0.020 A 
ENDBRANCH   3  10
BRANCH   1  17
ATOM     16  C   LIG    1        3.165  -2.031   1.206  0.00  0.00    +0.240 C 
ATOM     17  N   LIG    1        1.870  -2.504   1.713  0.00  0.00    -0.470 N 
BRANCH  17  18
ATOM     18  C   LIG    1        1.761  -2.288   3.162  0.00  0.00    +0.240 C 
BRANCH  18  19
ATOM     19  C   LIG    1        2.765  -3.157   3.876  0.00  0.00    -0.080 A 
ATOM     20  C   LIG    1        2.414  -4.431   4.278  0.00  0.00    +0.040 A 
ATOM     21  C   LIG    1        3.336  -5.230   4.929  0.00  0.00    +0.000 A 
ATOM     22  C   LIG    1        4.607  -4.749   5.186  0.00  0.00    +0.000 A 
ATOM     23  C   LIG    1        4.956  -3.472   4.788  0.00  0.00    +0.000 A 
ATOM     24  C   LIG    1        4.036  -2.676   4.133  0.00  0.00    +0.010 A 
ENDBRANCH  18  19
ENDBRANCH  17  18
ENDBRANCH   1  17
BRANCH   8  25
ATOM     25  C   LIG    1       -0.447   1.508   0.516  0.00  0.00    +0.280 C 
BRANCH  25  26
ATOM     26  N   LIG    1       -1.282   1.873   1.669  0.00  0.00    -0.530 NA
ATOM     27  C   LIG    1       -2.664   1.411   1.485  0.00  0.00    +0.170 C 
ATOM     28  C   LIG    1       -3.466   1.678   2.761  0.00  0.00    +0.020 C 
ATOM     29  C   LIG    1       -3.446   3.179   3.066  0.00  0.00    +0.000 C 
ATOM     30  C   LIG    1       -1.994   3.644   3.205  0.00  0.00    +0.020 C 
ATOM     31  C   LIG    1       -1.234   3.320   1.916  0.00  0.00    +0.180 C 
ENDBRANCH  25  26
ENDBRANCH   8  25
TORSDOF 6
