REMARK  Name = ZINCrH00000tj0I2.0
REMARK                            x       y       z     vdW  Elec       q    Type
REMARK                         _______ _______ _______ _____ _____    ______ ____
ROOT
ATOM      1  C   LIG    1        1.487  -1.476  -0.167  0.00  0.00    +0.190 A 
ATOM      2  C   LIG    1        0.416  -2.364  -0.122  0.00  0.00    -0.100 A 
ATOM      3  C   LIG    1       -0.865  -1.898  -0.060  0.00  0.00    +0.140 A 
ATOM      4  C   LIG    1       -1.110  -0.520  -0.041  0.00  0.00    -0.210 A 
ATOM      5  C   LIG    1       -0.032   0.379  -0.086  0.00  0.00    +0.200 A 
ATOM      6  C   LIG    1        1.262  -0.107  -0.154  0.00  0.00    -0.110 A 
ENDROOT
BRANCH   1   8
ATOM      7  C   LIG    1        2.918  -3.371  -0.244  0.00  0.00    +0.240 C 
ATOM      8  O   LIG    1        2.757  -1.952  -0.229  0.00  0.00    -0.310 OA
ENDBRANCH   1   8
BRANCH   4   9
ATOM      9  C   LIG    1       -2.491  -0.016   0.027  0.00  0.00    +0.460 C 
ATOM     10  O   LIG    1       -3.199  -0.047  -0.962  0.00  0.00    -0.440 OA
BRANCH   9  11
ATOM     11  C   LIG    1       -3.018   0.528   1.296  0.00  0.00    -0.160 A 
ATOM     12  C   LIG    1       -2.252   0.457   2.461  0.00  0.00    +0.070 A 
ATOM     13  C   LIG    1       -2.748   0.972   3.641  0.00  0.00    +0.000 A 
ATOM     14  C   LIG    1       -4.005   1.548   3.674  0.00  0.00    +0.040 A 
ATOM     15  C   LIG    1       -4.772   1.617   2.524  0.00  0.00    +0.000 A 
ATOM     16  C   LIG    1       -4.287   1.111   1.336  0.00  0.00    +0.070 A 
ENDBRANCH   9  11
ENDBRANCH   4   9
BRANCH   5  17
ATOM     17  O   LIG    1       -0.258   1.716  -0.068  0.00  0.00    -0.280 OA
BRANCH  17  18
ATOM     18  C   LIG    1        0.888   2.569  -0.116  0.00  0.00    +0.240 C 
BRANCH  18  19
ATOM     19  C   LIG    1        0.444   4.009  -0.088  0.00  0.00    +0.510 C 
ATOM     20  N   LIG    1        1.360   4.997  -0.125  0.00  0.00    -0.600 N 
ATOM     21  C   LIG    1        2.760   4.642  -0.186  0.00  0.00    +0.270 C 
ATOM     22  C   LIG    1        3.326   4.489   1.242  0.00  0.00    -0.000 C 
ATOM     23  C   LIG    1        3.436   5.805   1.891  0.00  0.00    +0.000 C 
ATOM     24  C   LIG    1        2.104   6.523   2.085  0.00  0.00    +0.010 C 
ATOM     25  C   LIG    1        1.754   7.278   0.827  0.00  0.00    +0.020 C 
ATOM     26  C   LIG    1        0.892   6.397  -0.096  0.00  0.00    +0.270 C 
ATOM     27  O   LIG    1       -0.737   4.279  -0.032  0.00  0.00    -0.510 OA
ENDBRANCH  18  19
ENDBRANCH  17  18
ENDBRANCH   5  17
TORSDOF 6
