REMARK  Name = ZINCkj00000kJIaz.2
REMARK                            x       y       z     vdW  Elec       q    Type
REMARK                         _______ _______ _______ _____ _____    ______ ____
ROOT
ATOM      1  N   LIG    1       -5.291  -2.392  -5.903  0.00  0.00    -0.390 N 
ATOM      2  C   LIG    1       -5.274  -3.590  -5.055  0.00  0.00    +0.270 C 
ATOM      3  C   LIG    1       -4.657  -3.249  -3.697  0.00  0.00    +0.060 C 
ATOM      4  C   LIG    1       -3.224  -2.749  -3.904  0.00  0.00    +0.020 C 
ATOM      5  C   LIG    1       -3.247  -1.544  -4.850  0.00  0.00    +0.130 C 
ATOM      6  C   LIG    1       -3.916  -1.947  -6.166  0.00  0.00    +0.310 C 
ATOM      7  H   LIG    1       -5.796  -1.655  -5.433  0.00  0.00    +0.420 HD
ENDROOT
BRANCH   5   8
ATOM      8  O   LIG    1       -1.908  -1.114  -5.107  0.00  0.00    -0.530 OA
ATOM      9  H   LIG    1       -1.423  -0.845  -4.315  0.00  0.00    +0.400 HD
ENDBRANCH   5   8
BRANCH   1  10
ATOM     10  C   LIG    1       -5.954  -2.704  -7.176  0.00  0.00    +0.440 C 
BRANCH  10  13
ATOM     11  C   LIG    1       -9.912  -3.601  -6.477  0.00  0.00    +0.230 C 
ATOM     12  C   LIG    1       -8.497  -3.280  -6.727  0.00  0.00    -0.040 C 
ATOM     13  C   LIG    1       -7.369  -3.025  -6.926  0.00  0.00    -0.310 C 
ENDBRANCH  10  13
ENDBRANCH   1  10
BRANCH   5  14
ATOM     14  C   LIG    1       -4.035  -0.403  -4.205  0.00  0.00    +0.170 C 
BRANCH  14  15
ATOM     15  C   LIG    1       -3.377  -0.008  -2.908  0.00  0.00    +0.150 A 
ATOM     16  N   LIG    1       -2.442   0.898  -2.750  0.00  0.00    -0.450 NA
ATOM     17  C   LIG    1       -2.164   0.907  -1.435  0.00  0.00    +0.210 A 
ATOM     18  N   LIG    1       -2.926   0.018  -0.870  0.00  0.00    -0.370 NA
ATOM     19  O   LIG    1       -3.635  -0.514  -1.698  0.00  0.00    +0.090 OA
BRANCH  17  20
ATOM     20  C   LIG    1       -1.150   1.781  -0.743  0.00  0.00    +0.050 C 
ATOM     21  C   LIG    1       -0.013   1.086   0.008  0.00  0.00    +0.060 C 
ATOM     22  C   LIG    1       -1.136   1.773   0.788  0.00  0.00    +0.060 C 
ENDBRANCH  17  20
ENDBRANCH  14  15
ENDBRANCH   5  14
TORSDOF 6
