REMARK  Name = ZINCkj00000kJIaz.1
REMARK                            x       y       z     vdW  Elec       q    Type
REMARK                         _______ _______ _______ _____ _____    ______ ____
ROOT
ATOM      1  N   LIG    1        2.314   5.577  -2.819  0.00  0.00    -0.380 N 
ATOM      2  C   LIG    1        1.008   5.512  -3.484  0.00  0.00    +0.250 C 
ATOM      3  C   LIG    1        0.544   4.056  -3.565  0.00  0.00    +0.070 C 
ATOM      4  C   LIG    1        0.428   3.484  -2.149  0.00  0.00    +0.020 C 
ATOM      5  C   LIG    1        1.777   3.625  -1.439  0.00  0.00    +0.120 C 
ATOM      6  C   LIG    1        2.196   5.097  -1.437  0.00  0.00    +0.310 C 
ATOM      7  H   LIG    1        2.974   4.999  -3.318  0.00  0.00    +0.430 HD
ENDROOT
BRANCH   5   8
ATOM      8  O   LIG    1        2.761   2.850  -2.127  0.00  0.00    -0.550 OA
ATOM      9  H   LIG    1        2.560   1.905  -2.168  0.00  0.00    +0.400 HD
ENDBRANCH   5   8
BRANCH   1  10
ATOM     10  C   LIG    1        2.791   6.967  -2.814  0.00  0.00    +0.440 C 
BRANCH  10  13
ATOM     11  C   LIG    1        3.471   8.200  -6.683  0.00  0.00    +0.230 C 
ATOM     12  C   LIG    1        3.228   7.760  -5.300  0.00  0.00    -0.040 C 
ATOM     13  C   LIG    1        3.034   7.408  -4.197  0.00  0.00    -0.310 C 
ENDBRANCH  10  13
ENDBRANCH   1  10
BRANCH   5  14
ATOM     14  C   LIG    1        1.651   3.128   0.002  0.00  0.00    +0.210 C 
BRANCH  14  15
ATOM     15  C   LIG    1        1.237   1.679  -0.001  0.00  0.00    +0.150 A 
ATOM     16  N   LIG    1        2.035   0.638  -0.014  0.00  0.00    -0.460 NA
ATOM     17  C   LIG    1        1.227  -0.437  -0.012  0.00  0.00    +0.210 A 
ATOM     18  N   LIG    1        0.002  -0.004   0.002  0.00  0.00    -0.370 NA
ATOM     19  O   LIG    1       -0.014   1.209   0.009  0.00  0.00    +0.090 OA
BRANCH  17  20
ATOM     20  C   LIG    1        1.663  -1.880  -0.024  0.00  0.00    +0.050 C 
ATOM     21  C   LIG    1        0.582  -2.943  -0.226  0.00  0.00    +0.050 C 
ATOM     22  C   LIG    1        1.227  -2.759   1.150  0.00  0.00    +0.060 C 
ENDBRANCH  17  20
ENDBRANCH  14  15
ENDBRANCH   5  14
TORSDOF 6
