REMARK  Name = ZINCah0000002n1H.0
REMARK                            x       y       z     vdW  Elec       q    Type
REMARK                         _______ _______ _______ _____ _____    ______ ____
ROOT
ATOM      1  C   LIG    1        0.212   0.612   0.428  0.00  0.00    +0.240 C 
ATOM      2  N   LIG    1       -0.487   1.315  -0.662  0.00  0.00    -0.740 N 
ATOM      3  H   LIG    1       -1.367   1.201  -1.055  0.00  0.00    +0.400 HD
ATOM      4  C   LIG    1        0.529   2.177  -0.926  0.00  0.00    +0.530 C 
ATOM      5  O   LIG    1        0.687   3.079  -1.720  0.00  0.00    -0.500 OA
ATOM      6  C   LIG    1        1.387   1.567   0.164  0.00  0.00    -0.120 C 
ATOM      7  C   LIG    1        2.642   0.867  -0.362  0.00  0.00    +0.070 C 
ATOM      8  C   LIG    1        1.677   2.521   1.324  0.00  0.00    +0.080 C 
ENDROOT
BRANCH   1  10
ATOM      9  C   LIG    1       -1.164   2.146   1.841  0.00  0.00    +0.020 C 
ATOM     10  C   LIG    1       -0.437   0.800   1.800  0.00  0.00    -0.010 C 
ATOM     11  C   LIG    1       -1.440  -0.329   2.049  0.00  0.00    +0.020 C 
ENDBRANCH   1  10
TORSDOF 1
