REMARK  Name = ZINCpk00000y6y1O.0
REMARK                            x       y       z     vdW  Elec       q    Type
REMARK                         _______ _______ _______ _____ _____    ______ ____
ROOT
ATOM      1  N   LIG    1        1.233  -2.082  -0.021  0.00  0.00    -0.680 N 
ATOM      2  H   LIG    1        2.076  -2.555  -0.100  0.00  0.00    +0.410 HD
ATOM      3  C   LIG    1        0.080  -2.772   0.087  0.00  0.00    +0.730 C 
ATOM      4  N   LIG    1        0.106  -4.117   0.181  0.00  0.00    -0.630 N 
ATOM      5  C   LIG    1        1.317  -4.952   0.177  0.00  0.00    +0.260 C 
ATOM      6  C   LIG    1        0.860  -6.426   0.281  0.00  0.00    +0.090 C 
ATOM      7  C   LIG    1       -0.600  -6.363  -0.197  0.00  0.00    +0.100 C 
ATOM      8  N   LIG    1       -0.711  -6.493  -1.645  0.00  0.00    -0.710 N 
ATOM      9  H   LIG    1       -0.300  -5.925  -2.316  0.00  0.00    +0.440 HD
ATOM     10  C   LIG    1       -1.503  -7.565  -1.862  0.00  0.00    +0.700 C 
ATOM     11  N   LIG    1       -1.912  -8.136  -0.720  0.00  0.00    -0.580 N 
ATOM     12  C   LIG    1       -2.780  -9.314  -0.652  0.00  0.00    +0.340 C 
ATOM     13  O   LIG    1       -1.811  -7.966  -2.967  0.00  0.00    -0.530 OA
ATOM     14  C   LIG    1       -1.423  -7.488   0.362  0.00  0.00    +0.540 C 
ATOM     15  O   LIG    1       -1.609  -7.756   1.530  0.00  0.00    -0.450 OA
ATOM     16  C   LIG    1       -1.076  -4.993   0.310  0.00  0.00    +0.340 C 
ATOM     17  O   LIG    1       -0.983  -2.182   0.101  0.00  0.00    -0.560 OA
ENDROOT
BRANCH   1  21
ATOM     18  C   LIG    1        1.168   2.087  -0.025  0.00  0.00    -0.120 A 
ATOM     19  C   LIG    1        0.140   1.379  -0.618  0.00  0.00    +0.070 A 
ATOM     20  C   LIG    1        0.159  -0.002  -0.618  0.00  0.00    -0.010 A 
ATOM     21  C   LIG    1        1.213  -0.683  -0.021  0.00  0.00    +0.190 A 
ATOM     22  C   LIG    1        2.246   0.027   0.575  0.00  0.00    -0.100 A 
ATOM     23  C   LIG    1        2.223   1.412   0.573  0.00  0.00    +0.150 A 
BRANCH  18  25
ATOM     24  C   LIG    1        1.957   4.115  -1.214  0.00  0.00    +0.030 C 
ATOM     25  C   LIG    1        1.143   3.594  -0.028  0.00  0.00    +0.070 C 
ENDBRANCH  18  25
BRANCH  23  26
ATOM     26  O   LIG    1        3.233   2.110   1.155  0.00  0.00    -0.310 OA
ATOM     27  C   LIG    1        4.287   1.350   1.752  0.00  0.00    +0.230 C 
ENDBRANCH  23  26
ENDBRANCH   1  21
TORSDOF 3
