REMARK  Name = ZINCnE000001E77N.0
REMARK                            x       y       z     vdW  Elec       q    Type
REMARK                         _______ _______ _______ _____ _____    ______ ____
ROOT
ATOM      1  C   LIG    1        4.482  -4.113  -0.061  0.00  0.00    +0.510 C 
ATOM      2  N   LIG    1        3.193  -3.717  -0.047  0.00  0.00    -0.530 N 
ATOM      3  H   LIG    1        2.483  -4.378  -0.043  0.00  0.00    +0.360 HD
ATOM      4  O   LIG    1        5.370  -3.287  -0.066  0.00  0.00    -0.530 OA
ENDROOT
BRANCH   2   5
ATOM      5  N   LIG    1        2.880  -2.352  -0.037  0.00  0.00    -0.490 NA
ATOM      6  C   LIG    1        1.592  -1.956  -0.023  0.00  0.00    +0.450 C 
ATOM      7  O   LIG    1        0.701  -2.784  -0.018  0.00  0.00    -0.670 OA
BRANCH   6   8
ATOM      8  C   LIG    1        1.264  -0.528  -0.013  0.00  0.00    -0.140 A 
ATOM      9  C   LIG    1        0.002  -0.004   0.002  0.00  0.00    +0.020 A 
ATOM     10  C   LIG    1       -0.017   1.370   0.010  0.00  0.00    +0.040 A 
ATOM     11  C   LIG    1        1.189   1.954   0.001  0.00  0.00    -0.280 A 
ATOM     12 BR   LIG    1        1.474   3.824   0.007  0.00  0.00    -0.020 Br
ATOM     13  S   LIG    1        2.433   0.786  -0.017  0.00  0.00    +0.280 S 
ENDBRANCH   6   8
ENDBRANCH   2   5
BRANCH   1  14
ATOM     14  C   LIG    1        4.818  -5.582  -0.072  0.00  0.00    +0.210 C 
BRANCH  14  15
ATOM     15  O   LIG    1        6.238  -5.745  -0.086  0.00  0.00    -0.280 OA
BRANCH  15  21
ATOM     16  C   LIG    1        8.081  -7.250  -0.117  0.00  0.00    -0.100 A 
ATOM     17  C   LIG    1        8.561  -8.545  -0.122  0.00  0.00    +0.050 A 
ATOM     18  C   LIG    1        7.679  -9.610  -0.119  0.00  0.00    -0.040 A 
ATOM     19  C   LIG    1        6.316  -9.382  -0.105  0.00  0.00    +0.030 A 
ATOM     20  C   LIG    1        5.830  -8.088  -0.094  0.00  0.00    -0.080 A 
ATOM     21  C   LIG    1        6.713  -7.018  -0.097  0.00  0.00    +0.140 A 
BRANCH  16  23
ATOM     22  C   LIG    1        9.941  -6.160   1.108  0.00  0.00    +0.020 C 
ATOM     23  C   LIG    1        9.042  -6.089  -0.128  0.00  0.00    +0.030 C 
ATOM     24  C   LIG    1        9.905  -6.153  -1.390  0.00  0.00    +0.020 C 
ENDBRANCH  16  23
ENDBRANCH  15  21
ENDBRANCH  14  15
ENDBRANCH   1  14
TORSDOF 6
