REMARK  Name = ZINCpe00000MJM2m.0
REMARK                            x       y       z     vdW  Elec       q    Type
REMARK                         _______ _______ _______ _____ _____    ______ ____
ROOT
ATOM      1  C   LIG    1        0.183  -2.176   3.345  0.00  0.00    +0.220 C 
ATOM      2  C   LIG    1        1.643  -2.441   3.717  0.00  0.00    +0.010 C 
ATOM      3  C   LIG    1        1.705  -3.171   5.061  0.00  0.00    +0.020 C 
ATOM      4  C   LIG    1        0.984  -4.517   4.940  0.00  0.00    +0.290 C 
ATOM      5  N   LIG    1       -0.378  -4.282   4.443  0.00  0.00    -0.570 N 
ATOM      6  C   LIG    1       -0.555  -3.511   3.204  0.00  0.00    +0.300 C 
ENDROOT
BRANCH   5   7
ATOM      7  C   LIG    1       -1.478  -4.777   5.130  0.00  0.00    +0.350 A 
ATOM      8  N   LIG    1       -1.328  -5.341   6.310  0.00  0.00    -0.500 NA
ATOM      9  C   LIG    1       -2.380  -5.819   6.975  0.00  0.00    +0.190 A 
ATOM     10  C   LIG    1       -3.630  -5.746   6.473  0.00  0.00    +0.160 A 
ATOM     11  N   LIG    1       -3.864  -5.176   5.257  0.00  0.00    -0.480 N 
ATOM     12  C   LIG    1       -5.226  -5.102   4.721  0.00  0.00    +0.320 C 
ATOM     13  C   LIG    1       -2.824  -4.674   4.555  0.00  0.00    +0.480 A 
ATOM     14  O   LIG    1       -2.999  -4.154   3.466  0.00  0.00    -0.530 OA
ENDBRANCH   5   7
BRANCH   1  16
ATOM     15  C   LIG    1        0.239  -0.106   2.059  0.00  0.00    +0.520 C 
ATOM     16  N   LIG    1        0.126  -1.450   2.074  0.00  0.00    -0.720 N 
ATOM     17  H   LIG    1        0.008  -1.935   1.243  0.00  0.00    +0.400 HD
ATOM     18  O   LIG    1        0.387   0.501   3.099  0.00  0.00    -0.530 OA
BRANCH  15  19
ATOM     19  C   LIG    1        0.180   0.640   0.752  0.00  0.00    +0.120 C 
BRANCH  19  24
ATOM     20  C   LIG    1        0.894   6.246   1.720  0.00  0.00    +0.120 C 
ATOM     21  C   LIG    1        0.681   4.776   1.468  0.00  0.00    +0.130 A 
ATOM     22  C   LIG    1       -0.602   4.261   1.474  0.00  0.00    -0.030 A 
ATOM     23  C   LIG    1       -0.787   2.907   1.235  0.00  0.00    +0.070 A 
ATOM     24  C   LIG    1        0.330   2.118   1.010  0.00  0.00    -0.130 A 
ATOM     25  C   LIG    1        1.582   2.703   1.020  0.00  0.00    +0.270 A 
ATOM     26  N   LIG    1        1.720   3.995   1.245  0.00  0.00    -0.480 NA
ENDBRANCH  19  24
ENDBRANCH  15  19
ENDBRANCH   1  16
TORSDOF 4
