REMARK  Name = ZINCqH0000035VIt.2
REMARK                            x       y       z     vdW  Elec       q    Type
REMARK                         _______ _______ _______ _____ _____    ______ ____
ROOT
ATOM      1  N   LIG    1       -0.925   2.859   1.934  0.00  0.00    -0.530 NA
ATOM      2  C   LIG    1        0.468   3.295   2.031  0.00  0.00    +0.170 C 
ATOM      3  C   LIG    1        1.450   2.312   1.535  0.00  0.00    +0.010 C 
ATOM      4  C   LIG    1        1.214   2.053   0.026  0.00  0.00    +0.260 C 
ATOM      5  N   LIG    1       -0.028   1.332  -0.151  0.00  0.00    -0.600 N 
ATOM      6  C   LIG    1       -1.331   2.007  -0.326  0.00  0.00    +0.290 C 
ATOM      7  C   LIG    1        0.005  -0.016  -0.164  0.00  0.00    +0.710 C 
ATOM      8  N   LIG    1        1.178  -0.662  -0.013  0.00  0.00    -0.690 N 
ATOM      9  H   LIG    1        2.007  -0.160   0.028  0.00  0.00    +0.400 HD
ATOM     10  O   LIG    1       -1.023  -0.648  -0.311  0.00  0.00    -0.570 OA
ATOM     11  C   LIG    1       -1.478   3.202   0.641  0.00  0.00    +0.170 C 
ENDROOT
BRANCH   8  12
ATOM     12  C   LIG    1        1.200  -2.058   0.085  0.00  0.00    +0.170 A 
ATOM     13  C   LIG    1        0.153  -2.729   0.703  0.00  0.00    +0.010 A 
ATOM     14  C   LIG    1        0.176  -4.107   0.793  0.00  0.00    +0.020 A 
ATOM     15  C   LIG    1        1.245  -4.817   0.280  0.00  0.00    -0.020 A 
ATOM     16  C   LIG    1        2.292  -4.152  -0.331  0.00  0.00    -0.070 A 
ATOM     17  C   LIG    1        3.455  -4.930  -0.889  0.00  0.00    +0.100 C 
ATOM     18  C   LIG    1        2.273  -2.775  -0.430  0.00  0.00    -0.030 A 
ENDBRANCH   8  12
BRANCH   1  19
ATOM     19  C   LIG    1       -1.733   3.430   3.020  0.00  0.00    +0.220 C 
BRANCH  19  23
ATOM     20  C   LIG    1       -5.579   1.568   3.064  0.00  0.00    +0.130 A 
ATOM     21  C   LIG    1       -4.539   1.030   3.807  0.00  0.00    -0.020 A 
ATOM     22  C   LIG    1       -3.296   1.634   3.791  0.00  0.00    +0.080 A 
ATOM     23  C   LIG    1       -3.089   2.773   3.035  0.00  0.00    -0.120 A 
ATOM     24  C   LIG    1       -4.126   3.315   2.298  0.00  0.00    +0.040 A 
ATOM     25  C   LIG    1       -5.369   2.712   2.306  0.00  0.00    -0.080 A 
BRANCH  20  27
ATOM     26  C   LIG    1       -7.827   1.585   2.288  0.00  0.00    +0.250 C 
ATOM     27  O   LIG    1       -6.803   0.976   3.077  0.00  0.00    -0.320 OA
ENDBRANCH  20  27
ENDBRANCH  19  23
ENDBRANCH   1  19
TORSDOF 4
