REMARK  Name = ZINCpk00000y6wT2.0
REMARK                            x       y       z     vdW  Elec       q    Type
REMARK                         _______ _______ _______ _____ _____    ______ ____
ROOT
ATOM      1  C   LIG    1       -1.596  -6.954   0.839  0.00  0.00    +0.140 C 
ATOM      2  C   LIG    1       -0.387  -6.722  -0.105  0.00  0.00    +0.050 C 
ATOM      3  C   LIG    1       -0.198  -5.191  -0.056  0.00  0.00    +0.260 C 
ATOM      4  N   LIG    1       -1.479  -4.607   0.368  0.00  0.00    -0.610 N 
ATOM      5  C   LIG    1       -1.721  -3.295   0.553  0.00  0.00    +0.580 C 
ATOM      6  O   LIG    1       -2.789  -2.931   1.006  0.00  0.00    -0.530 OA
ATOM      7  C   LIG    1       -2.454  -5.696   0.563  0.00  0.00    +0.280 C 
ENDROOT
BRANCH   5   8
ATOM      8  C   LIG    1       -0.689  -2.298   0.206  0.00  0.00    -0.130 A 
ATOM      9  C   LIG    1       -0.988  -0.934   0.255  0.00  0.00    +0.110 A 
ATOM     10  C   LIG    1       -0.023  -0.006  -0.070  0.00  0.00    +0.040 A 
ATOM     11  C   LIG    1        1.248  -0.420  -0.445  0.00  0.00    +0.060 A 
ATOM     12  O   LIG    1        2.356   0.288  -0.806  0.00  0.00    -0.300 OA
ATOM     13  C   LIG    1        3.216  -0.656  -1.472  0.00  0.00    +0.440 C 
ATOM     14  O   LIG    1        2.853  -1.921  -0.889  0.00  0.00    -0.310 OA
ATOM     15  C   LIG    1        1.553  -1.781  -0.495  0.00  0.00    +0.020 A 
ATOM     16  C   LIG    1        0.590  -2.716  -0.172  0.00  0.00    +0.060 A 
ENDBRANCH   5   8
BRANCH   1  17
ATOM     17  N   LIG    1       -2.321  -8.179   0.474  0.00  0.00    -0.530 NA
ATOM     18  C   LIG    1       -3.579  -8.289   1.225  0.00  0.00    +0.210 C 
BRANCH  17  19
ATOM     19  C   LIG    1       -1.482  -9.367   0.675  0.00  0.00    +0.330 C 
BRANCH  19  23
ATOM     20  C   LIG    1       -4.299 -13.450  -0.012  0.00  0.00    +0.240 C 
ATOM     21  C   LIG    1       -3.353 -12.293  -0.209  0.00  0.00    +0.180 A 
ATOM     22  N   LIG    1       -3.013 -11.401   0.689  0.00  0.00    -0.480 NA
ATOM     23  C   LIG    1       -2.159 -10.569   0.067  0.00  0.00    +0.180 A 
ATOM     24  N   LIG    1       -2.019 -10.995  -1.153  0.00  0.00    -0.370 NA
ATOM     25  O   LIG    1       -2.697 -11.984  -1.332  0.00  0.00    +0.080 OA
ENDBRANCH  19  23
ENDBRANCH  17  19
ENDBRANCH   1  17
TORSDOF 4
