REMARK  Name = ZINCqH0000000B9D.0
REMARK                            x       y       z     vdW  Elec       q    Type
REMARK                         _______ _______ _______ _____ _____    ______ ____
ROOT
ATOM      1  C   LIG    1        2.500   4.090   0.418  0.00  0.00    +0.260 C 
ATOM      2  C   LIG    1        3.592   3.428  -0.430  0.00  0.00    +0.040 C 
ATOM      3  C   LIG    1        3.716   1.965  -0.006  0.00  0.00    +0.130 C 
ATOM      4  C   LIG    1        2.366   1.301  -0.008  0.00  0.00    +0.180 A 
ATOM      5  N   LIG    1        2.314  -0.026  -0.016  0.00  0.00    -0.510 NA
ATOM      6  C   LIG    1        1.153  -0.663  -0.012  0.00  0.00    +0.360 A 
ATOM      7  N   LIG    1        0.002  -0.004   0.002  0.00  0.00    -0.510 NA
ATOM      8  C   LIG    1       -0.016   1.316   0.009  0.00  0.00    +0.330 A 
ATOM      9  C   LIG    1        1.187   2.016   0.002  0.00  0.00    -0.180 A 
ATOM     10  C   LIG    1        1.146   3.519  -0.002  0.00  0.00    +0.090 C 
ENDROOT
BRANCH   1  14
ATOM     11  N   LIG    1        2.057   7.702   0.947  0.00  0.00    -0.750 N 
ATOM     12  H   LIG    1        2.411   8.063   0.119  0.00  0.00    +0.400 HD
ATOM     13  C   LIG    1        2.041   6.369   1.148  0.00  0.00    +0.700 C 
ATOM     14  N   LIG    1        2.517   5.538   0.200  0.00  0.00    -0.740 N 
ATOM     15  H   LIG    1        2.871   5.900  -0.628  0.00  0.00    +0.400 HD
ATOM     16  O   LIG    1        1.597   5.916   2.186  0.00  0.00    -0.590 OA
BRANCH  11  17
ATOM     17  C   LIG    1        1.539   8.604   1.978  0.00  0.00    +0.270 C 
BRANCH  17  18
ATOM     18  C   LIG    1        1.672  10.052   1.502  0.00  0.00    +0.020 C 
BRANCH  18  20
ATOM     19  C   LIG    1        1.931  10.807   3.869  0.00  0.00    +0.030 C 
ATOM     20  C   LIG    1        1.132  10.995   2.578  0.00  0.00    -0.060 C 
ATOM     21  C   LIG    1       -0.342  10.678   2.841  0.00  0.00    +0.030 C 
ATOM     22  C   LIG    1        1.265  12.443   2.102  0.00  0.00    +0.040 C 
ENDBRANCH  18  20
ENDBRANCH  17  18
ENDBRANCH  11  17
ENDBRANCH   1  14
BRANCH   6  23
ATOM     23  C   LIG    1        1.139  -2.146  -0.023  0.00  0.00    -0.050 A 
ATOM     24  C   LIG    1        2.338  -2.856  -0.044  0.00  0.00    +0.070 A 
ATOM     25  C   LIG    1        2.320  -4.236  -0.047  0.00  0.00    +0.000 A 
ATOM     26  C   LIG    1        1.114  -4.914  -0.042  0.00  0.00    +0.030 A 
ATOM     27  C   LIG    1       -0.079  -4.214  -0.028  0.00  0.00    +0.000 A 
ATOM     28  C   LIG    1       -0.072  -2.834  -0.018  0.00  0.00    +0.070 A 
ENDBRANCH   6  23
TORSDOF 5
