REMARK  Name = ZINCpe00000ztfeR.1
REMARK                            x       y       z     vdW  Elec       q    Type
REMARK                         _______ _______ _______ _____ _____    ______ ____
ROOT
ATOM      1  O   LIG    1       -2.608  11.419   3.357  0.00  0.00    -0.510 OA
ATOM      2  C   LIG    1       -2.135  10.306   3.233  0.00  0.00    +0.710 C 
ATOM      3  N   LIG    1       -2.803   9.179   3.504  0.00  0.00    -0.670 N 
ATOM      4  H   LIG    1       -3.720   9.151   3.821  0.00  0.00    +0.440 HD
ATOM      5  C   LIG    1       -2.044   8.086   3.281  0.00  0.00    +0.530 C 
ATOM      6  C   LIG    1       -0.711   8.612   2.802  0.00  0.00    +0.100 C 
ATOM      7  C   LIG    1        0.400   8.197   3.763  0.00  0.00    +0.080 C 
ATOM      8  C   LIG    1        0.574   6.676   3.702  0.00  0.00    +0.070 C 
ATOM      9  C   LIG    1        0.848   6.259   2.255  0.00  0.00    +0.240 C 
ATOM     10  N   LIG    1       -0.283   6.648   1.405  0.00  0.00    -0.370 N 
ATOM     11  H   LIG    1       -1.131   6.238   1.766  0.00  0.00    +0.440 HD
ATOM     12  C   LIG    1       -0.415   8.111   1.393  0.00  0.00    +0.300 C 
ATOM     13  O   LIG    1       -2.365   6.926   3.433  0.00  0.00    -0.440 OA
ATOM     14  N   LIG    1       -0.879  10.070   2.808  0.00  0.00    -0.710 N 
ATOM     15  H   LIG    1       -0.216  10.732   2.556  0.00  0.00    +0.450 HD
ENDROOT
BRANCH  10  16
ATOM     16  C   LIG    1       -0.053   6.167   0.036  0.00  0.00    +0.340 C 
BRANCH  16  17
ATOM     17  C   LIG    1       -0.043   4.660   0.028  0.00  0.00    -0.140 A 
ATOM     18  C   LIG    1        1.155   3.977   0.012  0.00  0.00    +0.050 A 
ATOM     19  C   LIG    1        1.166   2.594   0.005  0.00  0.00    +0.040 A 
ATOM     20  C   LIG    1       -0.024   1.887   0.012  0.00  0.00    -0.060 A 
ATOM     21  C   LIG    1       -1.230   2.560   0.022  0.00  0.00    +0.080 A 
ATOM     22 BR   LIG    1        0.002  -0.004   0.002  0.00  0.00    -0.030 Br
ATOM     23  C   LIG    1       -1.246   3.954   0.036  0.00  0.00    +0.080 A 
BRANCH  23  24
ATOM     24  C   LIG    1       -2.535   4.681   0.052  0.00  0.00    +0.060 A 
ATOM     25  N   LIG    1       -2.705   6.005   0.067  0.00  0.00    -0.410 NA
ATOM     26  N   LIG    1       -3.974   6.232   0.076  0.00  0.00    -0.160 NA
ATOM     27  N   LIG    1       -4.606   5.112   0.076  0.00  0.00    -0.160 NA
ATOM     28  N   LIG    1       -3.756   4.143   0.061  0.00  0.00    -0.340 NA
ENDBRANCH  23  24
ENDBRANCH  16  17
ENDBRANCH  10  16
TORSDOF 3
