REMARK  Name = ZINCpe00000ztfeR.0
REMARK                            x       y       z     vdW  Elec       q    Type
REMARK                         _______ _______ _______ _____ _____    ______ ____
ROOT
ATOM      1  O   LIG    1        2.116  -3.072  -5.079  0.00  0.00    -0.510 OA
ATOM      2  C   LIG    1        1.221  -3.104  -4.257  0.00  0.00    +0.710 C 
ATOM      3  N   LIG    1        0.718  -4.236  -3.749  0.00  0.00    -0.670 N 
ATOM      4  H   LIG    1        1.022  -5.125  -3.991  0.00  0.00    +0.440 HD
ATOM      5  C   LIG    1       -0.264  -3.988  -2.858  0.00  0.00    +0.550 C 
ATOM      6  C   LIG    1       -0.389  -2.483  -2.805  0.00  0.00    +0.100 C 
ATOM      7  C   LIG    1       -1.782  -2.048  -3.248  0.00  0.00    +0.080 C 
ATOM      8  C   LIG    1       -1.890  -0.523  -3.142  0.00  0.00    +0.070 C 
ATOM      9  C   LIG    1       -1.559  -0.096  -1.710  0.00  0.00    +0.240 C 
ATOM     10  N   LIG    1       -0.190  -0.505  -1.376  0.00  0.00    -0.370 N 
ATOM     11  H   LIG    1        0.451  -0.114  -2.050  0.00  0.00    +0.430 HD
ATOM     12  C   LIG    1       -0.089  -1.971  -1.400  0.00  0.00    +0.300 C 
ATOM     13  O   LIG    1       -0.909  -4.800  -2.231  0.00  0.00    -0.450 OA
ATOM     14  N   LIG    1        0.625  -2.006  -3.754  0.00  0.00    -0.720 N 
ATOM     15  H   LIG    1        0.826  -1.083  -3.976  0.00  0.00    +0.440 HD
ENDROOT
BRANCH  10  16
ATOM     16  C   LIG    1        0.153  -0.015  -0.034  0.00  0.00    +0.340 C 
BRANCH  16  17
ATOM     17  C   LIG    1        0.193   1.491  -0.045  0.00  0.00    -0.140 A 
ATOM     18  C   LIG    1       -0.870   2.214   0.457  0.00  0.00    +0.050 A 
ATOM     19  C   LIG    1       -0.836   3.597   0.448  0.00  0.00    +0.040 A 
ATOM     20  C   LIG    1        0.264   4.264  -0.064  0.00  0.00    -0.060 A 
ATOM     21  C   LIG    1        1.333   3.551  -0.570  0.00  0.00    +0.080 A 
ATOM     22 BR   LIG    1        0.301   6.155  -0.073  0.00  0.00    -0.030 Br
ATOM     23  C   LIG    1        1.306   2.158  -0.557  0.00  0.00    +0.080 A 
BRANCH  23  24
ATOM     24  C   LIG    1        2.452   1.387  -1.091  0.00  0.00    +0.060 A 
ATOM     25  N   LIG    1        2.526   0.063  -1.235  0.00  0.00    -0.420 NA
ATOM     26  N   LIG    1        3.683  -0.208  -1.734  0.00  0.00    -0.160 NA
ATOM     27  N   LIG    1        4.341   0.886  -1.901  0.00  0.00    -0.160 NA
ATOM     28  N   LIG    1        3.616   1.880  -1.518  0.00  0.00    -0.340 NA
ENDBRANCH  23  24
ENDBRANCH  16  17
ENDBRANCH  10  16
TORSDOF 3
