REMARK  Name = ZINCtV00000vrxu6.0
REMARK                            x       y       z     vdW  Elec       q    Type
REMARK                         _______ _______ _______ _____ _____    ______ ____
ROOT
ATOM      1  C   LIG    1        1.154   6.019   0.022  0.00  0.00    +0.220 C 
ENDROOT
BRANCH   1   2
ATOM      2  C   LIG    1        1.547   6.411  -1.379  0.00  0.00    -0.110 A 
ATOM      3  C   LIG    1        0.595   6.903  -2.252  0.00  0.00    +0.040 A 
ATOM      4  C   LIG    1        0.956   7.266  -3.536  0.00  0.00    +0.010 A 
ATOM      5  C   LIG    1        2.268   7.129  -3.950  0.00  0.00    +0.020 A 
ATOM      6  C   LIG    1        3.219   6.632  -3.078  0.00  0.00    +0.010 A 
ATOM      7  C   LIG    1        2.859   6.273  -1.793  0.00  0.00    +0.020 A 
ENDBRANCH   1   2
BRANCH   1   8
ATOM      8  C   LIG    1        0.627   4.607   0.020  0.00  0.00    +0.440 C 
ATOM      9  O   LIG    1       -0.570   4.406   0.031  0.00  0.00    -0.440 OA
BRANCH   8  10
ATOM     10  C   LIG    1        1.529   3.514   0.006  0.00  0.00    -0.270 A 
ATOM     11  C   LIG    1        2.906   3.578  -0.007  0.00  0.00    +0.320 A 
ATOM     12  N   LIG    1        3.416   2.331  -0.018  0.00  0.00    -0.560 N 
ATOM     13  H   LIG    1        4.363   2.123  -0.028  0.00  0.00    +0.420 HD
ATOM     14  C   LIG    1        2.406   1.391  -0.013  0.00  0.00    +0.080 A 
ATOM     15  C   LIG    1        2.404  -0.000  -0.021  0.00  0.00    +0.000 A 
ATOM     16  C   LIG    1        1.209  -0.687  -0.014  0.00  0.00    +0.030 A 
ATOM     17  C   LIG    1        0.002  -0.004   0.002  0.00  0.00    +0.000 A 
ATOM     18  C   LIG    1       -0.017   1.374   0.010  0.00  0.00    +0.060 A 
ATOM     19  C   LIG    1        1.183   2.079   0.002  0.00  0.00    -0.050 A 
ENDBRANCH   8  10
ENDBRANCH   1   8
BRANCH   1  20
ATOM     20  O   LIG    1        0.122   6.920   0.505  0.00  0.00    -0.320 OA
BRANCH  20  22
ATOM     21  O   LIG    1        1.719   8.239   1.304  0.00  0.00    -0.490 OA
ATOM     22  C   LIG    1        0.532   8.030   1.149  0.00  0.00    +0.510 C 
BRANCH  22  23
ATOM     23  C   LIG    1       -0.461   8.992   1.668  0.00  0.00    -0.110 A 
ATOM     24  C   LIG    1       -1.825   8.757   1.487  0.00  0.00    +0.120 A 
ATOM     25  C   LIG    1       -2.749   9.655   1.979  0.00  0.00    +0.050 A 
ATOM     26  C   LIG    1       -2.325  10.795   2.641  0.00  0.00    +0.000 A 
ATOM     27  C   LIG    1       -0.972  11.038   2.819  0.00  0.00    -0.050 A 
ATOM     28 CL   LIG    1       -0.450  12.470   3.650  0.00  0.00    -0.030 Cl
ATOM     29 CL   LIG    1       -3.494  11.925   3.251  0.00  0.00    -0.030 Cl
ATOM     30  C   LIG    1       -0.039  10.143   2.337  0.00  0.00    +0.130 A 
ENDBRANCH  22  23
ENDBRANCH  20  22
ENDBRANCH   1  20
TORSDOF 6
