REMARK  Name = ZINCrH000004qZkx.0
REMARK                            x       y       z     vdW  Elec       q    Type
REMARK                         _______ _______ _______ _____ _____    ______ ____
ROOT
ATOM      1  C   LIG    1        4.778  -2.712   0.133  0.00  0.00    +0.380 C 
ENDROOT
BRANCH   1   8
ATOM      2  C   LIG    1        4.446  -4.879   1.403  0.00  0.00    +0.340 A 
ATOM      3  N   LIG    1        4.355  -6.145   1.105  0.00  0.00    -0.260 NA
ATOM      4  N   LIG    1        4.491  -6.275  -0.284  0.00  0.00    -0.470 N 
ATOM      5  H   LIG    1        4.467  -7.103  -0.788  0.00  0.00    +0.470 HD
ATOM      6  C   LIG    1        4.660  -5.037  -0.792  0.00  0.00    +0.480 A 
ATOM      7  S   LIG    1        4.871  -4.643  -2.445  0.00  0.00    -0.560 S 
ATOM      8  N   LIG    1        4.631  -4.165   0.236  0.00  0.00    -0.480 N 
BRANCH   2  13
ATOM      9  C   LIG    1        4.114  -2.641   6.696  0.00  0.00    +0.100 C 
ATOM     10  C   LIG    1        4.201  -3.227   5.310  0.00  0.00    -0.050 A 
ATOM     11  C   LIG    1        3.962  -2.427   4.207  0.00  0.00    +0.030 A 
ATOM     12  C   LIG    1        4.039  -2.957   2.936  0.00  0.00    +0.030 A 
ATOM     13  C   LIG    1        4.361  -4.304   2.764  0.00  0.00    -0.050 A 
ATOM     14  C   LIG    1        4.597  -5.107   3.880  0.00  0.00    +0.080 A 
ATOM     15  C   LIG    1        4.521  -4.563   5.146  0.00  0.00    +0.020 A 
ENDBRANCH   2  13
ENDBRANCH   1   8
BRANCH   1  16
ATOM     16  C   LIG    1        3.430  -2.088  -0.124  0.00  0.00    +0.500 C 
ATOM     17  N   LIG    1        3.321  -0.751  -0.256  0.00  0.00    -0.660 N 
ATOM     18  H   LIG    1        4.116  -0.196  -0.252  0.00  0.00    +0.420 HD
ATOM     19  O   LIG    1        2.444  -2.789  -0.213  0.00  0.00    -0.490 OA
BRANCH  17  20
ATOM     20  C   LIG    1        2.057  -0.162  -0.398  0.00  0.00    +0.130 A 
ATOM     21  C   LIG    1        1.049  -0.834  -1.073  0.00  0.00    +0.060 A 
ATOM     22  C   LIG    1       -0.197  -0.251  -1.213  0.00  0.00    +0.010 A 
ATOM     23  C   LIG    1       -0.441   1.001  -0.681  0.00  0.00    +0.040 A 
ATOM     24  C   LIG    1        0.559   1.677  -0.007  0.00  0.00    -0.030 A 
ATOM     25  C   LIG    1        1.810   1.100   0.137  0.00  0.00    +0.080 A 
BRANCH  25  26
ATOM     26  O   LIG    1        2.795   1.764   0.800  0.00  0.00    -0.320 OA
BRANCH  26  27
ATOM     27  C   LIG    1        2.470   3.054   1.322  0.00  0.00    +0.590 C 
ATOM     28  F   LIG    1        1.416   2.935   2.235  0.00  0.00    -0.200 F 
ATOM     29  F   LIG    1        2.087   3.898   0.275  0.00  0.00    -0.200 F 
ENDBRANCH  26  27
ENDBRANCH  25  26
ENDBRANCH  17  20
ENDBRANCH   1  16
TORSDOF 6
