REMARK  Name = ZINCrg00000SjSJu.0
REMARK                            x       y       z     vdW  Elec       q    Type
REMARK                         _______ _______ _______ _____ _____    ______ ____
ROOT
ATOM      1  C   LIG    1        5.515   1.019   0.296  0.00  0.00    +0.580 C 
ATOM      2  N   LIG    1        4.178   1.177   0.234  0.00  0.00    -0.590 N 
ATOM      3  C   LIG    1        3.540   1.710   1.414  0.00  0.00    +0.260 C 
ATOM      4  C   LIG    1        2.027   1.697   1.330  0.00  0.00    +0.040 C 
ATOM      5  C   LIG    1        1.539   2.063  -0.073  0.00  0.00    +0.020 C 
ATOM      6  C   LIG    1        0.016   1.729  -0.113  0.00  0.00    +0.230 C 
ATOM      7  N   LIG    1       -0.027   0.249  -0.175  0.00  0.00    -0.450 N 
ATOM      8  C   LIG    1        1.235  -0.226  -0.786  0.00  0.00    +0.230 C 
ATOM      9  C   LIG    1        2.067   1.029  -1.087  0.00  0.00    -0.020 C 
ATOM     10  C   LIG    1        3.547   0.796  -1.003  0.00  0.00    +0.260 C 
ATOM     11  O   LIG    1        6.129   1.411   1.270  0.00  0.00    -0.520 OA
ENDROOT
BRANCH   1  19
ATOM     12  O   LIG    1        6.318  -1.676   0.231  0.00  0.00    -0.510 OA
ATOM     13  C   LIG    1        6.594  -1.004  -0.747  0.00  0.00    +0.540 A 
ATOM     14  N   LIG    1        7.247  -1.546  -1.797  0.00  0.00    -0.620 N 
ATOM     15  H   LIG    1        7.501  -2.482  -1.777  0.00  0.00    +0.420 HD
ATOM     16  C   LIG    1        7.551  -0.792  -2.869  0.00  0.00    +0.450 A 
ATOM     17  N   LIG    1        7.228   0.474  -2.941  0.00  0.00    -0.540 NA
ATOM     18  C   LIG    1        6.580   1.087  -1.954  0.00  0.00    +0.390 A 
ATOM     19  C   LIG    1        6.232   0.371  -0.813  0.00  0.00    -0.310 A 
BRANCH  16  20
ATOM     20  C   LIG    1        8.286  -1.425  -4.022  0.00  0.00    -0.020 C 
ATOM     21  C   LIG    1        9.436  -0.633  -4.647  0.00  0.00    +0.080 C 
ATOM     22  C   LIG    1        8.115  -0.788  -5.403  0.00  0.00    +0.090 C 
ENDBRANCH  16  20
ENDBRANCH   1  19
BRANCH   7  23
ATOM     23  C   LIG    1       -1.123  -0.186  -0.899  0.00  0.00    +0.490 A 
ATOM     24  N   LIG    1       -1.954   0.709  -1.414  0.00  0.00    -0.550 NA
ATOM     25  C   LIG    1       -3.008   0.327  -2.115  0.00  0.00    +0.340 A 
ATOM     26  C   LIG    1       -3.244  -1.026  -2.300  0.00  0.00    -0.110 A 
ATOM     27  C   LIG    1       -2.358  -1.935  -1.743  0.00  0.00    +0.340 A 
ATOM     28  N   LIG    1       -1.320  -1.486  -1.056  0.00  0.00    -0.530 NA
ENDBRANCH   7  23
TORSDOF 3
