REMARK  Name = ZINCAx00000009QJ.0
REMARK                            x       y       z     vdW  Elec       q    Type
REMARK                         _______ _______ _______ _____ _____    ______ ____
ROOT
ATOM      1  C   LIG    1       -8.025  -5.701  -2.967  0.00  0.00    +0.110 C 
ATOM      2  C   LIG    1       -8.339  -4.277  -2.503  0.00  0.00    +0.170 C 
ATOM      3  N   LIG    1       -8.358  -4.203  -1.032  0.00  0.00    -0.720 N 
ATOM      4  H   LIG    1       -8.952  -4.684  -0.435  0.00  0.00    +0.440 HD
ATOM      5  C   LIG    1       -7.389  -3.340  -0.678  0.00  0.00    +0.710 C 
ATOM      6  N   LIG    1       -6.739  -2.839  -1.735  0.00  0.00    -0.560 N 
ATOM      7  O   LIG    1       -7.133  -3.047   0.474  0.00  0.00    -0.540 OA
ATOM      8  C   LIG    1       -7.225  -3.326  -2.893  0.00  0.00    +0.540 C 
ATOM      9  O   LIG    1       -6.849  -3.060  -4.015  0.00  0.00    -0.450 OA
ENDROOT
BRANCH   2  10
ATOM     10  C   LIG    1       -9.655  -3.814  -3.074  0.00  0.00    -0.090 A 
ATOM     11  C   LIG    1      -10.801  -4.021  -2.369  0.00  0.00    +0.050 A 
ATOM     12  C   LIG    1      -12.029  -3.585  -2.896  0.00  0.00    -0.050 A 
ATOM     13  C   LIG    1      -13.232  -3.777  -2.196  0.00  0.00    +0.030 A 
ATOM     14  C   LIG    1      -14.403  -3.347  -2.740  0.00  0.00    +0.020 A 
ATOM     15  C   LIG    1      -14.429  -2.718  -3.984  0.00  0.00    +0.020 A 
ATOM     16  C   LIG    1      -13.283  -2.516  -4.690  0.00  0.00    +0.020 A 
ATOM     17  C   LIG    1      -12.055  -2.946  -4.161  0.00  0.00    -0.050 A 
ATOM     18  C   LIG    1      -10.851  -2.755  -4.861  0.00  0.00    +0.030 A 
ATOM     19  C   LIG    1       -9.680  -3.185  -4.317  0.00  0.00    +0.030 A 
ENDBRANCH   2  10
BRANCH   6  20
ATOM     20  C   LIG    1       -5.638  -1.877  -1.644  0.00  0.00    +0.360 C 
BRANCH  20  21
ATOM     21  C   LIG    1       -4.330  -2.617  -1.547  0.00  0.00    +0.510 C 
ATOM     22  N   LIG    1       -3.173  -1.932  -1.454  0.00  0.00    -0.610 N 
ATOM     23  C   LIG    1       -1.889  -2.641  -1.359  0.00  0.00    +0.290 C 
ATOM     24  C   LIG    1       -1.155  -2.159  -0.102  0.00  0.00    +0.270 C 
ATOM     25  N   LIG    1       -1.155  -0.689  -0.092  0.00  0.00    -0.610 N 
ATOM     26  C   LIG    1       -2.439   0.020  -0.181  0.00  0.00    +0.290 C 
ATOM     27  C   LIG    1        0.002  -0.004   0.002  0.00  0.00    +0.570 C 
ATOM     28  O   LIG    1       -0.015   1.209   0.079  0.00  0.00    -0.520 OA
ATOM     29  C   LIG    1       -3.173  -0.462  -1.444  0.00  0.00    +0.270 C 
ATOM     30  O   LIG    1       -4.317  -3.830  -1.554  0.00  0.00    -0.520 OA
BRANCH  27  31
ATOM     31  C   LIG    1        1.290  -0.727   0.011  0.00  0.00    -0.140 A 
ATOM     32  C   LIG    1        1.493  -1.786   0.899  0.00  0.00    +0.080 A 
ATOM     33  C   LIG    1        2.696  -2.460   0.901  0.00  0.00    -0.010 A 
ATOM     34  C   LIG    1        3.706  -2.082   0.030  0.00  0.00    +0.120 A 
ATOM     35  C   LIG    1        3.512  -1.028  -0.850  0.00  0.00    +0.000 A 
ATOM     36  F   LIG    1        4.885  -2.742   0.040  0.00  0.00    -0.130 F 
ATOM     37  C   LIG    1        2.312  -0.351  -0.863  0.00  0.00    +0.100 A 
ENDBRANCH  27  31
ENDBRANCH  20  21
ENDBRANCH   6  20
TORSDOF 4
