REMARK  Name = ZINCpk000000oyYh.0
REMARK                            x       y       z     vdW  Elec       q    Type
REMARK                         _______ _______ _______ _____ _____    ______ ____
ROOT
ATOM      1  N   LIG    1       -0.835   2.987   1.336  0.00  0.00    -0.510 NA
ENDROOT
BRANCH   1   3
ATOM      2  C   LIG    1       -0.042   1.179   2.784  0.00  0.00    -0.020 C 
ATOM      3  C   LIG    1       -0.648   1.533   1.425  0.00  0.00    +0.210 C 
ENDBRANCH   1   3
BRANCH   1   4
ATOM      4  C   LIG    1       -1.738   3.467   2.391  0.00  0.00    +0.240 C 
BRANCH   4   5
ATOM      5  C   LIG    1       -3.120   2.913   2.160  0.00  0.00    -0.040 A 
ATOM      6  C   LIG    1       -4.027   3.618   1.392  0.00  0.00    +0.010 A 
ATOM      7  C   LIG    1       -5.295   3.110   1.175  0.00  0.00    +0.050 A 
ATOM      8  C   LIG    1       -5.661   1.901   1.734  0.00  0.00    -0.060 A 
ATOM      9  C   LIG    1       -4.754   1.194   2.510  0.00  0.00    +0.100 A 
ATOM     10  C   LIG    1       -3.481   1.703   2.722  0.00  0.00    +0.000 A 
BRANCH   9  11
ATOM     11  O   LIG    1       -5.112   0.005   3.062  0.00  0.00    -0.320 OA
BRANCH  11  12
ATOM     12  C   LIG    1       -6.438  -0.459   2.801  0.00  0.00    +0.590 C 
ATOM     13  F   LIG    1       -6.614  -0.616   1.422  0.00  0.00    -0.200 F 
ATOM     14  F   LIG    1       -7.361   0.474   3.286  0.00  0.00    -0.200 F 
ENDBRANCH  11  12
ENDBRANCH   9  11
ENDBRANCH   4   5
ENDBRANCH   1   4
BRANCH   1  15
ATOM     15  C   LIG    1        0.455   3.688   1.387  0.00  0.00    +0.220 C 
BRANCH  15  16
ATOM     16  C   LIG    1        1.157   3.545   0.062  0.00  0.00    +0.520 C 
ATOM     17  N   LIG    1        2.344   4.150  -0.141  0.00  0.00    -0.730 N 
ATOM     18  H   LIG    1        2.746   4.678   0.567  0.00  0.00    +0.400 HD
ATOM     19  O   LIG    1        0.655   2.884  -0.823  0.00  0.00    -0.510 OA
BRANCH  17  20
ATOM     20  C   LIG    1        3.027   4.010  -1.429  0.00  0.00    +0.270 C 
ATOM     21  C   LIG    1        2.512   5.081  -2.407  0.00  0.00    +0.060 C 
ATOM     22  C   LIG    1        3.489   5.091  -3.610  0.00  0.00    -0.300 C 
ATOM     23  S   LIG    1        5.125   4.975  -2.793  0.00  0.00    +2.400 S 
ATOM     24  O   LIG    1        5.939   4.048  -3.498  0.00  0.00    -0.930 OA
ATOM     25  O   LIG    1        5.610   6.283  -2.522  0.00  0.00    -0.930 OA
ATOM     26  C   LIG    1        4.544   4.210  -1.236  0.00  0.00    -0.320 C 
ENDBRANCH  17  20
ENDBRANCH  15  16
ENDBRANCH   1  15
TORSDOF 8
