REMARK  Name = ZINCkj00000dEb5D.0
REMARK                            x       y       z     vdW  Elec       q    Type
REMARK                         _______ _______ _______ _____ _____    ______ ____
ROOT
ATOM      1  N   LIG    1        3.455   0.711  -0.027  0.00  0.00    -0.660 NA
ATOM      2  C   LIG    1        2.122   0.711  -0.014  0.00  0.00    +0.490 A 
ATOM      3  C   LIG    1        1.286  -0.424  -0.013  0.00  0.00    -0.070 A 
ATOM      4  C   LIG    1        0.002  -0.004   0.002  0.00  0.00    +0.350 A 
ATOM      5  N   LIG    1       -0.016   1.359   0.009  0.00  0.00    -0.410 N 
ATOM      6  N   LIG    1        1.308   1.817  -0.001  0.00  0.00    -0.500 N 
ATOM      7  H   LIG    1        1.597   2.743   0.001  0.00  0.00    +0.440 HD
ENDROOT
BRANCH   5   8
ATOM      8  C   LIG    1       -1.215   2.201   0.020  0.00  0.00    +0.320 C 
ATOM      9  C   LIG    1       -1.226   3.133  -1.210  0.00  0.00    +0.070 C 
ATOM     10  C   LIG    1       -1.212   4.563  -0.629  0.00  0.00    +0.290 C 
ATOM     11  N   LIG    1       -0.614   4.413   0.722  0.00  0.00    -0.520 N 
ATOM     12  H   LIG    1       -0.876   5.189   1.312  0.00  0.00    +0.440 HD
ATOM     13  H   LIG    1        0.390   4.340   0.658  0.00  0.00    +0.430 HD
ATOM     14  C   LIG    1       -1.197   3.145   1.241  0.00  0.00    +0.290 C 
ENDBRANCH   5   8
BRANCH   1  16
ATOM     15  O   LIG    1        3.511  -1.493  -0.040  0.00  0.00    -0.530 OA
ATOM     16  C   LIG    1        4.120  -0.440  -0.040  0.00  0.00    +0.500 C 
BRANCH  16  17
ATOM     17  C   LIG    1        5.626  -0.440  -0.054  0.00  0.00    +0.100 C 
BRANCH  17  18
ATOM     18  C   LIG    1        6.136  -1.883  -0.068  0.00  0.00    +0.160 C 
ATOM     19  C   LIG    1        7.663  -1.885   0.043  0.00  0.00    -0.010 C 
ATOM     20  C   LIG    1        8.170  -3.329  -0.031  0.00  0.00    +0.010 C 
ATOM     21  C   LIG    1        7.681  -3.963  -1.337  0.00  0.00    -0.020 C 
ATOM     22  C   LIG    1        6.154  -3.880  -1.395  0.00  0.00    +0.200 C 
ATOM     23  O   LIG    1        5.748  -2.514  -1.289  0.00  0.00    -0.370 OA
ENDBRANCH  17  18
ENDBRANCH  16  17
ENDBRANCH   1  16
TORSDOF 4
