REMARK  Name = ZINCrH000004tQE7.0
REMARK                            x       y       z     vdW  Elec       q    Type
REMARK                         _______ _______ _______ _____ _____    ______ ____
ROOT
ATOM      1  O   LIG    1       -3.795   0.564  -3.070  0.00  0.00    -0.510 OA
ATOM      2  C   LIG    1       -3.284   1.349  -2.299  0.00  0.00    +0.530 C 
ATOM      3  N   LIG    1       -2.450   0.905  -1.338  0.00  0.00    -0.720 N 
ATOM      4  H   LIG    1       -2.042   1.533  -0.722  0.00  0.00    +0.400 HD
ENDROOT
BRANCH   3   5
ATOM      5  C   LIG    1       -2.159  -0.527  -1.225  0.00  0.00    +0.280 C 
BRANCH   5   6
ATOM      6  C   LIG    1       -1.200  -0.762  -0.057  0.00  0.00    -0.030 C 
ATOM      7  C   LIG    1       -0.943  -2.262   0.098  0.00  0.00    +0.040 C 
ATOM      8  C   LIG    1       -0.323  -2.809  -1.189  0.00  0.00    +0.010 C 
ATOM      9  C   LIG    1        1.000  -2.091  -1.463  0.00  0.00    +0.000 C 
ATOM     10  C   LIG    1        0.743  -0.590  -1.618  0.00  0.00    +0.010 C 
ATOM     11  C   LIG    1        0.123  -0.043  -0.331  0.00  0.00    +0.020 C 
BRANCH   6  12
ATOM     12  C   LIG    1       -1.811  -0.223   1.211  0.00  0.00    -0.080 A 
ATOM     13  C   LIG    1       -3.033  -0.701   1.647  0.00  0.00    +0.010 A 
ATOM     14  C   LIG    1       -3.593  -0.207   2.810  0.00  0.00    +0.000 A 
ATOM     15  C   LIG    1       -2.932   0.766   3.537  0.00  0.00    +0.000 A 
ATOM     16  C   LIG    1       -1.710   1.243   3.101  0.00  0.00    +0.000 A 
ATOM     17  C   LIG    1       -1.149   0.748   1.939  0.00  0.00    +0.010 A 
ENDBRANCH   6  12
ENDBRANCH   5   6
ENDBRANCH   3   5
BRANCH   2  18
ATOM     18  C   LIG    1       -3.583   2.822  -2.414  0.00  0.00    +0.070 C 
BRANCH  18  19
ATOM     19  S   LIG    1       -4.730   3.099  -3.792  0.00  0.00    -0.100 S 
BRANCH  19  20
ATOM     20  C   LIG    1       -4.965   4.898  -3.772  0.00  0.00    +0.070 C 
BRANCH  20  21
ATOM     21  C   LIG    1       -5.910   5.294  -4.877  0.00  0.00    +0.530 C 
ATOM     22  N   LIG    1       -6.234   6.590  -5.055  0.00  0.00    -0.610 N 
ATOM     23  C   LIG    1       -5.679   7.628  -4.175  0.00  0.00    +0.250 C 
ATOM     24  C   LIG    1       -5.017   8.705  -5.047  0.00  0.00    +0.010 C 
ATOM     25  C   LIG    1       -6.034   9.224  -6.067  0.00  0.00    +0.020 C 
ATOM     26  C   LIG    1       -6.479   8.075  -6.975  0.00  0.00    +0.010 C 
ATOM     27  C   LIG    1       -7.153   6.991  -6.128  0.00  0.00    +0.270 C 
ATOM     28  O   LIG    1       -6.378   4.446  -5.607  0.00  0.00    -0.510 OA
ENDBRANCH  20  21
ENDBRANCH  19  20
ENDBRANCH  18  19
ENDBRANCH   2  18
TORSDOF 7
