REMARK  Name = ZINCpk00000eaq25.0
REMARK                            x       y       z     vdW  Elec       q    Type
REMARK                         _______ _______ _______ _____ _____    ______ ____
ROOT
ATOM      1  N   LIG    1       -3.100   3.892   1.412  0.00  0.00    -0.540 N 
ATOM      2  C   LIG    1       -3.906   2.894   1.832  0.00  0.00    +0.560 A 
ATOM      3  C   LIG    1       -4.420   2.938   3.211  0.00  0.00    -0.200 A 
ATOM      4  C   LIG    1       -4.059   4.007   4.006  0.00  0.00    +0.420 A 
ATOM      5  N   LIG    1       -3.245   4.971   3.496  0.00  0.00    -0.500 N 
ATOM      6  O   LIG    1       -4.199   1.977   1.089  0.00  0.00    -0.460 OA
ATOM      7  C   LIG    1       -2.785   4.906   2.237  0.00  0.00    +0.700 A 
ATOM      8  O   LIG    1       -2.060   5.792   1.829  0.00  0.00    -0.520 OA
ENDROOT
BRANCH   5   9
ATOM      9  C   LIG    1       -2.862   6.105   4.341  0.00  0.00    +0.220 C 
ATOM     10  C   LIG    1       -3.238   6.041   5.822  0.00  0.00    +0.050 C 
ATOM     11  C   LIG    1       -3.985   6.992   4.884  0.00  0.00    +0.060 C 
ENDBRANCH   5   9
BRANCH   3  12
ATOM     12  C   LIG    1       -5.275   1.904   3.712  0.00  0.00    +0.280 C 
ATOM     13  N   LIG    1       -5.953   1.084   4.109  0.00  0.00    -0.400 NA
ENDBRANCH   3  12
BRANCH   1  14
ATOM     14  C   LIG    1       -2.570   3.873   0.047  0.00  0.00    +0.390 C 
BRANCH  14  20
ATOM     15  C   LIG    1       -1.226   1.755   0.017  0.00  0.00    +0.180 A 
ATOM     16  C   LIG    1       -0.013   1.076   0.008  0.00  0.00    -0.090 A 
ATOM     17  C   LIG    1        1.170   1.780   0.000  0.00  0.00    +0.120 A 
ATOM     18  C   LIG    1        1.145   3.180   0.008  0.00  0.00    -0.220 A 
ATOM     19  C   LIG    1       -0.083   3.854   0.023  0.00  0.00    +0.160 A 
ATOM     20  C   LIG    1       -1.250   3.145   0.030  0.00  0.00    -0.170 A 
BRANCH  18  21
ATOM     21  C   LIG    1        2.402   3.940   0.000  0.00  0.00    +0.400 C 
ATOM     22  O   LIG    1        2.378   5.153   0.007  0.00  0.00    -0.460 OA
ATOM     23  C   LIG    1        3.722   3.213  -0.015  0.00  0.00    +0.070 C 
ENDBRANCH  18  21
BRANCH  15  25
ATOM     24  C   LIG    1       -2.294  -0.367   0.011  0.00  0.00    +0.240 C 
ATOM     25  O   LIG    1       -2.390   1.058   0.019  0.00  0.00    -0.280 OA
ENDBRANCH  15  25
ENDBRANCH  14  20
ENDBRANCH   1  14
TORSDOF 6
