REMARK  Name = ZINCrD00000F5LB3.0
REMARK                            x       y       z     vdW  Elec       q    Type
REMARK                         _______ _______ _______ _____ _____    ______ ____
ROOT
ATOM      1  N   LIG    1       -4.466   5.027   1.140  0.00  0.00    -0.590 N 
ENDROOT
BRANCH   1   2
ATOM      2  C   LIG    1       -3.791   6.166   0.717  0.00  0.00    +0.360 A 
ATOM      3  C   LIG    1       -2.437   6.097   0.396  0.00  0.00    +0.150 A 
ATOM      4  N   LIG    1       -1.800   7.181  -0.006  0.00  0.00    -0.400 NA
ATOM      5  C   LIG    1       -2.446   8.331  -0.104  0.00  0.00    +0.140 A 
ATOM      6  C   LIG    1       -3.789   8.403   0.212  0.00  0.00    +0.280 A 
ATOM      7  N   LIG    1       -4.436   7.321   0.611  0.00  0.00    -0.500 NA
ENDBRANCH   1   2
BRANCH   1   8
ATOM      8  C   LIG    1       -5.912   5.075   1.371  0.00  0.00    +0.300 C 
BRANCH   8   9
ATOM      9  C   LIG    1       -6.183   5.465   2.825  0.00  0.00    +0.030 C 
BRANCH   9  14
ATOM     10  C   LIG    1       -9.172   8.961   2.745  0.00  0.00    +0.300 C 
ATOM     11  N   LIG    1       -8.565   7.690   3.148  0.00  0.00    -0.630 N 
ATOM     12  C   LIG    1       -8.155   7.367   4.520  0.00  0.00    +0.250 C 
ATOM     13  C   LIG    1       -7.993   5.831   4.551  0.00  0.00    +0.050 C 
ATOM     14  C   LIG    1       -7.693   5.516   3.067  0.00  0.00    -0.010 C 
ATOM     15  C   LIG    1       -8.312   6.669   2.307  0.00  0.00    +0.520 C 
ATOM     16  O   LIG    1       -8.545   6.671   1.117  0.00  0.00    -0.520 OA
ENDBRANCH   9  14
ENDBRANCH   8   9
ENDBRANCH   1   8
BRANCH   1  17
ATOM     17  C   LIG    1       -3.731   3.778   1.355  0.00  0.00    +0.320 C 
BRANCH  17  18
ATOM     18  C   LIG    1       -3.708   2.970   0.056  0.00  0.00    -0.060 C 
ATOM     19  C   LIG    1       -4.412   1.611   0.056  0.00  0.00    +0.040 C 
ATOM     20  C   LIG    1       -2.885   1.681   0.040  0.00  0.00    -0.120 C 
ATOM     21  C   LIG    1       -2.167   1.311  -1.261  0.00  0.00    +0.080 C 
ATOM     22  C   LIG    1       -0.754   1.900  -1.232  0.00  0.00    +0.020 C 
ATOM     23  C   LIG    1       -0.017   1.395   0.010  0.00  0.00    +0.290 C 
ATOM     24  C   LIG    1       -0.730   1.887   1.270  0.00  0.00    +0.020 C 
ATOM     25  F   LIG    1        1.296   1.878  -0.000  0.00  0.00    -0.200 F 
ATOM     26  F   LIG    1        0.002  -0.004   0.002  0.00  0.00    -0.200 F 
ATOM     27  C   LIG    1       -2.141   1.297   1.323  0.00  0.00    +0.080 C 
ENDBRANCH  17  18
ENDBRANCH   1  17
TORSDOF 6
