REMARK  Name = ZINCtV00000L6jQQ.0
REMARK                            x       y       z     vdW  Elec       q    Type
REMARK                         _______ _______ _______ _____ _____    ______ ____
ROOT
ATOM      1  C   LIG    1        0.002  -0.003  -0.002  0.00  0.00    -0.070 A 
ATOM      2  C   LIG    1       -0.009   1.387  -0.205  0.00  0.00    +0.150 A 
ATOM      3  N   LIG    1        1.125   2.070  -0.203  0.00  0.00    -0.480 NA
ATOM      4  C   LIG    1        2.293   1.474  -0.015  0.00  0.00    +0.220 A 
ATOM      5  C   LIG    1        2.380   0.091   0.190  0.00  0.00    -0.120 A 
ATOM      6  C   LIG    1        3.743  -0.518   0.389  0.00  0.00    +0.100 C 
ATOM      7  C   LIG    1        3.623  -1.906   1.016  0.00  0.00    +0.030 C 
ATOM      8  C   LIG    1        2.619  -2.724   0.195  0.00  0.00    +0.030 C 
ATOM      9  C   LIG    1        1.224  -2.144   0.421  0.00  0.00    +0.090 C 
ATOM     10  C   LIG    1        1.229  -0.657   0.200  0.00  0.00    +0.040 A 
ENDROOT
BRANCH   4  11
ATOM     11  C   LIG    1        3.532   2.287  -0.020  0.00  0.00    -0.050 A 
ATOM     12  C   LIG    1        3.580   3.494   0.676  0.00  0.00    +0.050 A 
ATOM     13  C   LIG    1        4.739   4.245   0.671  0.00  0.00    +0.010 A 
ATOM     14  C   LIG    1        5.847   3.807  -0.032  0.00  0.00    +0.030 A 
ATOM     15  C   LIG    1        5.803   2.612  -0.729  0.00  0.00    +0.010 A 
ATOM     16  C   LIG    1        4.652   1.851  -0.727  0.00  0.00    +0.030 A 
ENDBRANCH   4  11
BRANCH   1  18
ATOM     17  N   LIG    1       -2.195  -1.333   0.001  0.00  0.00    -0.390 NA
ATOM     18  C   LIG    1       -1.223  -0.745  -0.001  0.00  0.00    +0.250 C 
ENDBRANCH   1  18
BRANCH   2  19
ATOM     19  S   LIG    1       -1.536   2.224  -0.471  0.00  0.00    +0.020 S 
BRANCH  19  20
ATOM     20  C   LIG    1       -0.936   3.921  -0.661  0.00  0.00    +0.090 C 
BRANCH  20  21
ATOM     21  C   LIG    1       -2.104   4.842  -0.906  0.00  0.00    +0.410 C 
ATOM     22  O   LIG    1       -3.230   4.396  -0.947  0.00  0.00    -0.430 OA
BRANCH  21  23
ATOM     23  C   LIG    1       -1.877   6.284  -1.094  0.00  0.00    -0.160 A 
ATOM     24  C   LIG    1       -0.579   6.803  -1.041  0.00  0.00    +0.080 A 
ATOM     25  C   LIG    1       -0.373   8.154  -1.222  0.00  0.00    +0.020 A 
ATOM     26  C   LIG    1       -1.449   8.998  -1.447  0.00  0.00    -0.000 A 
ATOM     27  C   LIG    1       -2.738   8.491  -1.496  0.00  0.00    +0.020 A 
ATOM     28 CL   LIG    1       -1.181  10.699  -1.668  0.00  0.00    -0.060 Cl
ATOM     29  C   LIG    1       -2.958   7.142  -1.321  0.00  0.00    +0.110 A 
ENDBRANCH  21  23
ENDBRANCH  20  21
ENDBRANCH  19  20
ENDBRANCH   2  19
TORSDOF 6
