REMARK  Name = ZINCtV00000L6k4h.0
REMARK                            x       y       z     vdW  Elec       q    Type
REMARK                         _______ _______ _______ _____ _____    ______ ____
ROOT
ATOM      1  C   LIG    1       -0.021   1.708   0.015  0.00  0.00    +0.480 C 
ATOM      2  S   LIG    1        0.001  -0.004   0.003  0.00  0.00    -0.370 S 
ENDROOT
BRANCH   1   4
ATOM      3  C   LIG    1       -2.355   1.677   0.037  0.00  0.00    +0.550 C 
ATOM      4  N   LIG    1       -1.197   2.366   0.030  0.00  0.00    -0.630 N 
ATOM      5  H   LIG    1       -1.210   3.336   0.036  0.00  0.00    +0.420 HD
ATOM      6  O   LIG    1       -2.339   0.462   0.029  0.00  0.00    -0.420 OA
BRANCH   3  10
ATOM      7  C   LIG    1       -6.056   3.749   0.085  0.00  0.00    +0.260 A 
ATOM      8  C   LIG    1       -6.039   2.357   0.076  0.00  0.00    -0.080 A 
ATOM      9  C   LIG    1       -4.844   1.684   0.060  0.00  0.00    +0.150 A 
ATOM     10  C   LIG    1       -3.642   2.397   0.053  0.00  0.00    -0.210 A 
ATOM     11  C   LIG    1       -3.662   3.796   0.069  0.00  0.00    +0.090 A 
ATOM     12  C   LIG    1       -4.860   4.462   0.078  0.00  0.00    -0.080 A 
BRANCH   7  13
ATOM     13  N   LIG    1       -7.269   4.428   0.100  0.00  0.00    -0.610 N 
BRANCH  13  15
ATOM     14  C   LIG    1       -7.308   6.412  -1.330  0.00  0.00    +0.020 C 
ATOM     15  C   LIG    1       -7.288   5.893   0.109  0.00  0.00    +0.270 C 
ENDBRANCH  13  15
BRANCH  13  16
ATOM     16  C   LIG    1       -8.527   3.679   0.107  0.00  0.00    +0.270 C 
ATOM     17  C   LIG    1       -8.952   3.409   1.552  0.00  0.00    +0.020 C 
ENDBRANCH  13  16
ENDBRANCH   7  13
ENDBRANCH   3  10
ENDBRANCH   1   4
BRANCH   1  18
ATOM     18  N   LIG    1        1.137   2.397   0.003  0.00  0.00    -0.560 N 
ATOM     19  H   LIG    1        1.125   3.365  -0.069  0.00  0.00    +0.420 HD
BRANCH  18  20
ATOM     20  C   LIG    1        2.348   1.723   0.093  0.00  0.00    +0.190 A 
ATOM     21  N   LIG    1        3.506   2.293   0.187  0.00  0.00    -0.470 NA
ATOM     22  C   LIG    1        4.564   1.496   0.265  0.00  0.00    +0.120 A 
ATOM     23  C   LIG    1        4.267   0.183   0.234  0.00  0.00    -0.150 A 
ATOM     24  S   LIG    1        2.518   0.022   0.104  0.00  0.00    +0.350 S 
BRANCH  22  25
ATOM     25  C   LIG    1        5.953   2.006   0.376  0.00  0.00    -0.010 A 
ATOM     26  C   LIG    1        6.240   3.314   0.505  0.00  0.00    -0.130 A 
ATOM     27  S   LIG    1        7.982   3.528   0.608  0.00  0.00    +0.200 S 
ATOM     28  C   LIG    1        8.239   1.794   0.468  0.00  0.00    -0.150 A 
ATOM     29 CL   LIG    1        9.789   1.013   0.473  0.00  0.00    +0.000 Cl
ATOM     30 CL   LIG    1        5.069   4.595   0.561  0.00  0.00    +0.020 Cl
ATOM     31  C   LIG    1        7.068   1.169   0.361  0.00  0.00    +0.060 A 
ENDBRANCH  22  25
ENDBRANCH  18  20
ENDBRANCH   1  18
TORSDOF 8
