REMARK  Name = ZINCvU00000009nz.0
REMARK                            x       y       z     vdW  Elec       q    Type
REMARK                         _______ _______ _______ _____ _____    ______ ____
ROOT
ATOM      1  N   LIG    1       -0.752  -2.993  -5.551  0.00  0.00    -0.560 N 
ATOM      2  C   LIG    1       -1.226  -2.328  -6.612  0.00  0.00    +0.710 C 
ATOM      3  N   LIG    1       -1.763  -3.148  -7.535  0.00  0.00    -0.710 N 
ATOM      4  H   LIG    1       -2.164  -2.889  -8.380  0.00  0.00    +0.440 HD
ATOM      5  C   LIG    1       -1.620  -4.512  -7.011  0.00  0.00    +0.130 C 
ATOM      6  C   LIG    1       -0.754  -5.354  -7.942  0.00  0.00    +0.050 C 
ATOM      7  C   LIG    1       -1.452  -5.502  -9.296  0.00  0.00    +0.030 C 
ATOM      8  C   LIG    1       -2.814  -6.170  -9.096  0.00  0.00    +0.000 C 
ATOM      9  C   LIG    1       -3.679  -5.305  -8.178  0.00  0.00    +0.040 C 
ATOM     10  C   LIG    1       -2.989  -5.156  -6.819  0.00  0.00    +0.060 C 
ATOM     11  O   LIG    1       -1.178  -1.119  -6.729  0.00  0.00    -0.540 OA
ATOM     12  C   LIG    1       -0.929  -4.324  -5.680  0.00  0.00    +0.540 C 
ATOM     13  O   LIG    1       -0.605  -5.187  -4.893  0.00  0.00    -0.460 OA
ENDROOT
BRANCH   8  14
ATOM     14  C   LIG    1       -3.508  -6.329 -10.450  0.00  0.00    -0.060 C 
ATOM     15  C   LIG    1       -3.706  -4.951 -11.085  0.00  0.00    +0.030 C 
ATOM     16  C   LIG    1       -4.869  -6.999 -10.251  0.00  0.00    +0.020 C 
BRANCH  14  17
ATOM     17  C   LIG    1       -2.643  -7.194 -11.368  0.00  0.00    +0.000 C 
ATOM     18  C   LIG    1       -3.336  -7.352 -12.723  0.00  0.00    +0.010 C 
ENDBRANCH  14  17
ENDBRANCH   8  14
BRANCH   1  19
ATOM     19  C   LIG    1       -0.115  -2.355  -4.397  0.00  0.00    +0.360 C 
BRANCH  19  22
ATOM     20  N   LIG    1       -0.805  -1.427  -2.210  0.00  0.00    -0.660 N 
ATOM     21  H   LIG    1        0.116  -1.159  -2.067  0.00  0.00    +0.410 HD
ATOM     22  C   LIG    1       -1.162  -2.024  -3.364  0.00  0.00    +0.500 C 
ATOM     23  O   LIG    1       -2.326  -2.294  -3.573  0.00  0.00    -0.500 OA
BRANCH  20  29
ATOM     24  C   LIG    1       -1.378  -1.101   0.114  0.00  0.00    -0.100 A 
ATOM     25  C   LIG    1       -2.325  -0.866   1.091  0.00  0.00    +0.030 A 
ATOM     26  C   LIG    1       -3.658  -0.729   0.746  0.00  0.00    -0.010 A 
ATOM     27  C   LIG    1       -4.045  -0.829  -0.578  0.00  0.00    +0.020 A 
ATOM     28  C   LIG    1       -3.103  -1.064  -1.560  0.00  0.00    +0.020 A 
ATOM     29  C   LIG    1       -1.764  -1.195  -1.217  0.00  0.00    +0.150 A 
BRANCH  24  30
ATOM     30  C   LIG    1        0.074  -1.248   0.491  0.00  0.00    +0.020 C 
ATOM     31  C   LIG    1        0.217  -2.346   1.547  0.00  0.00    +0.030 C 
BRANCH  30  33
ATOM     32  C   LIG    1        2.093  -0.035   1.325  0.00  0.00    +0.010 C 
ATOM     33  C   LIG    1        0.590   0.076   1.058  0.00  0.00    +0.010 C 
ENDBRANCH  30  33
ENDBRANCH  24  30
ENDBRANCH  20  29
ENDBRANCH  19  22
ENDBRANCH   1  19
TORSDOF 7
