REMARK  Name = ZINCqH0000000tzD.0
REMARK                            x       y       z     vdW  Elec       q    Type
REMARK                         _______ _______ _______ _____ _____    ______ ____
ROOT
ATOM      1  S   LIG    1       -0.647  -1.448   2.178  0.00  0.00    +2.690 S 
ATOM      2  O   LIG    1        0.551  -2.187   1.981  0.00  0.00    -0.950 OA
ATOM      3  O   LIG    1       -1.909  -2.060   2.407  0.00  0.00    -0.950 OA
ENDROOT
BRANCH   1   7
ATOM      4  C   LIG    1        0.105   1.290   5.705  0.00  0.00    +0.210 A 
ATOM      5  C   LIG    1       -1.193   0.931   5.368  0.00  0.00    +0.000 A 
ATOM      6  C   LIG    1       -1.419   0.096   4.292  0.00  0.00    +0.140 A 
ATOM      7  C   LIG    1       -0.354  -0.383   3.550  0.00  0.00    -0.700 A 
ATOM      8  C   LIG    1        0.940  -0.030   3.887  0.00  0.00    +0.140 A 
ATOM      9  C   LIG    1        1.172   0.809   4.959  0.00  0.00    -0.030 A 
BRANCH   4  12
ATOM     10  C   LIG    1       -0.294   3.073   8.996  0.00  0.00    +0.110 C 
ATOM     11  C   LIG    1       -0.470   2.083   7.874  0.00  0.00    +0.510 C 
ATOM     12  N   LIG    1        0.337   2.136   6.796  0.00  0.00    -0.680 N 
ATOM     13  H   LIG    1        1.079   2.760   6.776  0.00  0.00    +0.420 HD
ATOM     14  O   LIG    1       -1.339   1.239   7.940  0.00  0.00    -0.520 OA
ENDBRANCH   4  12
ENDBRANCH   1   7
BRANCH   1  15
ATOM     15  N   LIG    1       -0.829  -0.488   0.841  0.00  0.00    -0.990 NA
ATOM     16  C   LIG    1       -2.158   0.001   0.466  0.00  0.00    +0.320 C 
BRANCH  15  17
ATOM     17  C   LIG    1        0.339  -0.127   0.034  0.00  0.00    +0.350 C 
ATOM     18  C   LIG    1        0.148  -0.637  -1.396  0.00  0.00    +0.070 C 
BRANCH  17  19
ATOM     19  C   LIG    1        0.494   1.372   0.016  0.00  0.00    +0.030 A 
ATOM     20  C   LIG    1        1.663   2.023   0.094  0.00  0.00    -0.040 A 
ATOM     21  C   LIG    1        1.339   3.453   0.040  0.00  0.00    -0.130 A 
ATOM     22  C   LIG    1        2.092   4.625   0.074  0.00  0.00    +0.060 A 
ATOM     23  C   LIG    1        1.457   5.845   0.001  0.00  0.00    -0.010 A 
ATOM     24  C   LIG    1        0.076   5.909  -0.108  0.00  0.00    +0.050 A 
ATOM     25  C   LIG    1       -0.681   4.758  -0.143  0.00  0.00    +0.020 A 
ATOM     26  C   LIG    1       -0.061   3.517  -0.070  0.00  0.00    +0.050 A 
ATOM     27  O   LIG    1       -0.519   2.249  -0.085  0.00  0.00    -0.180 OA
ENDBRANCH  17  19
ENDBRANCH  15  17
ENDBRANCH   1  15
TORSDOF 5
