REMARK  Name = ZINCrD0000073uz5.0
REMARK                            x       y       z     vdW  Elec       q    Type
REMARK                         _______ _______ _______ _____ _____    ______ ____
ROOT
ATOM      1  C   LIG    1        1.111  -0.631   0.055  0.00  0.00    -0.180 A 
ATOM      2  C   LIG    1       -0.131   0.007   0.026  0.00  0.00    +0.070 A 
ATOM      3  C   LIG    1       -0.197   1.381  -0.051  0.00  0.00    -0.010 A 
ATOM      4  C   LIG    1        0.963   2.136  -0.100  0.00  0.00    +0.070 A 
ATOM      5  C   LIG    1        2.199   1.520  -0.072  0.00  0.00    +0.010 A 
ATOM      6  C   LIG    1        2.285   0.137   0.005  0.00  0.00    +0.220 A 
ENDROOT
BRANCH   1   9
ATOM      7  N   LIG    1        0.064  -2.828   0.286  0.00  0.00    -0.660 N 
ATOM      8  H   LIG    1       -0.787  -2.383   0.424  0.00  0.00    +0.410 HD
ATOM      9  C   LIG    1        1.189  -2.101   0.137  0.00  0.00    +0.570 C 
ATOM     10  O   LIG    1        2.268  -2.658   0.071  0.00  0.00    -0.530 OA
BRANCH   7  14
ATOM     11  C   LIG    1        0.240  -6.992   0.157  0.00  0.00    +0.110 A 
ATOM     12  C   LIG    1       -0.780  -6.362   0.855  0.00  0.00    +0.010 A 
ATOM     13  C   LIG    1       -0.839  -4.983   0.899  0.00  0.00    +0.020 A 
ATOM     14  C   LIG    1        0.123  -4.227   0.243  0.00  0.00    +0.110 A 
ATOM     15  C   LIG    1        1.141  -4.857  -0.460  0.00  0.00    +0.060 A 
ATOM     16  C   LIG    1        1.201  -6.237  -0.499  0.00  0.00    -0.060 A 
BRANCH  11  18
ATOM     17  C   LIG    1        1.374  -8.931  -0.624  0.00  0.00    +0.250 C 
ATOM     18  O   LIG    1        0.297  -8.350   0.114  0.00  0.00    -0.320 OA
ENDBRANCH  11  18
ENDBRANCH   7  14
ENDBRANCH   1   9
BRANCH   6  19
ATOM     19  N   LIG    1        3.530  -0.487   0.033  0.00  0.00    -0.670 N 
ATOM     20  H   LIG    1        3.653  -1.345  -0.401  0.00  0.00    +0.420 HD
ATOM     21  C   LIG    1        4.565   0.103   0.664  0.00  0.00    +0.520 C 
ATOM     22  O   LIG    1        4.390   1.128   1.289  0.00  0.00    -0.500 OA
BRANCH  21  23
ATOM     23  C   LIG    1        5.940  -0.510   0.593  0.00  0.00    +0.220 C 
BRANCH  23  24
ATOM     24  N   LIG    1        6.885   0.316   1.357  0.00  0.00    -0.520 NA
ATOM     25  C   LIG    1        7.052   1.635   0.733  0.00  0.00    +0.170 C 
ATOM     26  C   LIG    1        7.926   2.517   1.629  0.00  0.00    +0.030 C 
ATOM     27  C   LIG    1        9.289   1.846   1.824  0.00  0.00    +0.000 C 
ATOM     28  C   LIG    1        9.082   0.455   2.429  0.00  0.00    +0.020 C 
ATOM     29  C   LIG    1        8.175  -0.367   1.510  0.00  0.00    +0.180 C 
ENDBRANCH  23  24
ENDBRANCH  21  23
ENDBRANCH   6  19
TORSDOF 6
