REMARK  Name = ZINCvU000000095z.0
REMARK                            x       y       z     vdW  Elec       q    Type
REMARK                         _______ _______ _______ _____ _____    ______ ____
ROOT
ATOM      1  C   LIG    1        7.263   0.701  -0.064  0.00  0.00    -0.270 A 
ATOM      2  C   LIG    1        7.122  -0.634  -0.069  0.00  0.00    +0.200 A 
ATOM      3  C   LIG    1        5.800  -1.097  -0.059  0.00  0.00    -0.220 A 
ATOM      4  C   LIG    1        4.867  -0.072  -0.045  0.00  0.00    +0.020 A 
ATOM      5  N   LIG    1        3.625  -0.649  -0.036  0.00  0.00    -0.300 N 
ATOM      6  N   LIG    1        3.792  -2.037  -0.039  0.00  0.00    -0.230 NA
ATOM      7  C   LIG    1        5.060  -2.321  -0.058  0.00  0.00    +0.140 A 
ATOM      8  C   LIG    1        5.651  -3.707  -0.070  0.00  0.00    +0.180 C 
ATOM      9  S   LIG    1        5.690   1.482  -0.045  0.00  0.00    +0.260 S 
ENDROOT
BRANCH   5  10
ATOM     10  C   LIG    1        2.401   0.032  -0.021  0.00  0.00    +0.170 A 
ATOM     11  C   LIG    1        2.378   1.420  -0.013  0.00  0.00    +0.000 A 
ATOM     12  C   LIG    1        1.169   2.089   0.002  0.00  0.00    +0.060 A 
ATOM     13  C   LIG    1       -0.017   1.379   0.010  0.00  0.00    +0.030 A 
ATOM     14  C   LIG    1        0.002  -0.004   0.002  0.00  0.00    +0.070 A 
ATOM     15  C   LIG    1        1.207  -0.680  -0.014  0.00  0.00    -0.050 A 
ATOM     16 CL   LIG    1        1.231  -2.416  -0.023  0.00  0.00    -0.020 Cl
ENDBRANCH   5  10
BRANCH   1  17
ATOM     17  C   LIG    1        8.546   1.405  -0.073  0.00  0.00    +0.550 C 
ATOM     18  O   LIG    1        9.586   0.775  -0.087  0.00  0.00    -0.490 OA
BRANCH  17  19
ATOM     19  O   LIG    1        8.575   2.754  -0.066  0.00  0.00    -0.330 OA
BRANCH  19  20
ATOM     20  C   LIG    1        9.882   3.386  -0.076  0.00  0.00    +0.250 C 
BRANCH  20  22
ATOM     21  N   LIG    1       10.803   5.681  -0.074  0.00  0.00    -0.610 N 
ATOM     22  C   LIG    1        9.717   4.883  -0.067  0.00  0.00    +0.520 C 
ATOM     23  O   LIG    1        8.606   5.371  -0.053  0.00  0.00    -0.510 OA
BRANCH  21  24
ATOM     24  C   LIG    1       10.642   7.138  -0.065  0.00  0.00    +0.250 C 
ATOM     25  C   LIG    1        9.882   7.559   1.194  0.00  0.00    +0.010 C 
ATOM     26  C   LIG    1        9.714   9.080   1.204  0.00  0.00    +0.020 C 
ATOM     27  C   LIG    1        8.928   9.514  -0.035  0.00  0.00    +0.010 C 
ATOM     28  C   LIG    1        9.689   9.092  -1.295  0.00  0.00    +0.010 C 
ATOM     29  C   LIG    1        9.857   7.572  -1.304  0.00  0.00    +0.010 C 
ENDBRANCH  21  24
BRANCH  21  31
ATOM     30  C   LIG    1       12.597   4.895  -1.538  0.00  0.00    +0.020 C 
ATOM     31  C   LIG    1       12.144   5.093  -0.090  0.00  0.00    +0.270 C 
ENDBRANCH  21  31
ENDBRANCH  20  22
ENDBRANCH  19  20
ENDBRANCH  17  19
ENDBRANCH   1  17
TORSDOF 7
