REMARK  Name = ZINCvU0000000AU7.0
REMARK                            x       y       z     vdW  Elec       q    Type
REMARK                         _______ _______ _______ _____ _____    ______ ____
ROOT
ATOM      1  C   LIG    1       -3.401   5.054   0.076  0.00  0.00    +0.520 C 
ENDROOT
BRANCH   1   2
ATOM      2  N   LIG    1       -2.804   3.717   0.046  0.00  0.00    -0.360 N 
ATOM      3  N   LIG    1       -1.441   3.414   0.167  0.00  0.00    -0.250 NA
ATOM      4  C   LIG    1       -1.307   2.120   0.093  0.00  0.00    +0.320 A 
ATOM      5  N   LIG    1       -2.556   1.558  -0.081  0.00  0.00    -0.470 N 
ATOM      6  C   LIG    1       -3.467   2.551  -0.102  0.00  0.00    +0.470 A 
ATOM      7  S   LIG    1       -5.159   2.367  -0.291  0.00  0.00    -0.570 S 
BRANCH   4   8
ATOM      8  C   LIG    1       -0.029   1.378   0.174  0.00  0.00    -0.090 A 
ATOM      9  C   LIG    1        1.142   2.021   0.590  0.00  0.00    +0.130 A 
ATOM     10  C   LIG    1        2.312   1.284   0.643  0.00  0.00    -0.020 A 
ATOM     11  C   LIG    1        2.287  -0.053   0.288  0.00  0.00    +0.290 A 
ATOM     12  N   LIG    1        1.167  -0.633  -0.100  0.00  0.00    -0.480 NA
ATOM     13  C   LIG    1        0.029   0.026  -0.168  0.00  0.00    +0.300 A 
ENDBRANCH   4   8
BRANCH   5  14
ATOM     14  C   LIG    1       -2.842   0.128  -0.215  0.00  0.00    +0.190 C 
ATOM     15  C   LIG    1       -4.016  -0.436   0.589  0.00  0.00    +0.110 C 
ATOM     16  C   LIG    1       -2.578  -0.763   1.001  0.00  0.00    +0.040 C 
ENDBRANCH   5  14
ENDBRANCH   1   2
BRANCH   1  18
ATOM     17  C   LIG    1       -4.089   5.307  -2.232  0.00  0.00    +0.210 C 
ATOM     18  N   LIG    1       -3.137   5.737  -1.198  0.00  0.00    -0.540 NA
BRANCH  18  19
ATOM     19  C   LIG    1       -3.166   7.196  -1.030  0.00  0.00    +0.250 C 
BRANCH  19  20
ATOM     20  C   LIG    1       -2.892   7.860  -2.355  0.00  0.00    -0.080 A 
ATOM     21  C   LIG    1       -1.931   7.341  -3.202  0.00  0.00    +0.040 A 
ATOM     22  C   LIG    1       -1.683   7.947  -4.420  0.00  0.00    +0.000 A 
ATOM     23  C   LIG    1       -2.389   9.078  -4.785  0.00  0.00    +0.000 A 
ATOM     24  C   LIG    1       -3.347   9.600  -3.935  0.00  0.00    +0.000 A 
ATOM     25  C   LIG    1       -3.598   8.990  -2.720  0.00  0.00    +0.010 A 
ENDBRANCH  19  20
BRANCH  19  26
ATOM     26  C   LIG    1       -2.112   7.607  -0.034  0.00  0.00    -0.090 A 
ATOM     27  C   LIG    1       -0.875   6.990  -0.043  0.00  0.00    +0.050 A 
ATOM     28  C   LIG    1        0.093   7.371   0.867  0.00  0.00    +0.000 A 
ATOM     29  C   LIG    1       -0.179   8.361   1.792  0.00  0.00    +0.000 A 
ATOM     30  C   LIG    1       -1.418   8.975   1.804  0.00  0.00    +0.000 A 
ATOM     31  C   LIG    1       -2.384   8.598   0.891  0.00  0.00    +0.010 A 
ENDBRANCH  19  26
ENDBRANCH  18  19
ENDBRANCH   1  18
TORSDOF 7
