REMARK  Name = ZINCrD00000hQ7uv.0
REMARK                            x       y       z     vdW  Elec       q    Type
REMARK                         _______ _______ _______ _____ _____    ______ ____
ROOT
ATOM      1  C   LIG    1       -0.945  -0.818   2.579  0.00  0.00    -0.660 A 
ATOM      2  C   LIG    1       -0.814  -1.944   1.786  0.00  0.00    +0.130 A 
ATOM      3  C   LIG    1       -0.134  -3.048   2.257  0.00  0.00    +0.070 A 
ATOM      4  C   LIG    1        0.413  -3.031   3.542  0.00  0.00    +0.030 A 
ATOM      5  C   LIG    1        0.272  -1.894   4.338  0.00  0.00    +0.050 A 
ATOM      6  C   LIG    1       -0.406  -0.795   3.853  0.00  0.00    +0.130 A 
ENDROOT
BRANCH   4   7
ATOM      7  C   LIG    1        1.138  -4.213   4.055  0.00  0.00    +0.210 A 
ATOM      8  N   LIG    1        1.347  -5.350   3.416  0.00  0.00    -0.460 NA
ATOM      9  C   LIG    1        2.043  -6.119   4.268  0.00  0.00    +0.190 A 
ATOM     10  N   LIG    1        2.222  -5.435   5.359  0.00  0.00    -0.370 NA
ATOM     11  O   LIG    1        1.717  -4.337   5.260  0.00  0.00    +0.090 OA
BRANCH   9  12
ATOM     12  C   LIG    1        2.528  -7.521   4.007  0.00  0.00    +0.080 C 
ATOM     13  C   LIG    1        4.068  -7.597   4.148  0.00  0.00    +0.030 C 
ATOM     14  C   LIG    1        4.236  -8.136   5.591  0.00  0.00    +0.220 C 
ATOM     15  O   LIG    1        3.147  -9.073   5.730  0.00  0.00    -0.360 OA
ATOM     16  C   LIG    1        2.002  -8.484   5.090  0.00  0.00    +0.170 C 
BRANCH  16  17
ATOM     17  C   LIG    1        1.148  -9.577   4.444  0.00  0.00    -0.070 C 
ATOM     18  C   LIG    1       -0.037  -8.935   3.720  0.00  0.00    +0.030 C 
ATOM     19  C   LIG    1        0.631 -10.527   5.526  0.00  0.00    +0.030 C 
ATOM     20  C   LIG    1        1.996 -10.360   3.440  0.00  0.00    +0.040 C 
ENDBRANCH  16  17
ENDBRANCH   9  12
ENDBRANCH   4   7
BRANCH   1  21
ATOM     21  S   LIG    1       -1.810   0.590   1.967  0.00  0.00    +2.690 S 
ATOM     22  O   LIG    1       -2.682   0.114   0.951  0.00  0.00    -0.950 OA
ATOM     23  O   LIG    1       -2.263   1.309   3.106  0.00  0.00    -0.950 OA
BRANCH  21  24
ATOM     24  N   LIG    1       -0.698   1.558   1.213  0.00  0.00    -1.110 NA
ATOM     25  H   LIG    1       -0.501   2.438   1.570  0.00  0.00    +0.420 HD
BRANCH  24  27
ATOM     26  C   LIG    1        1.423   1.615  -0.003  0.00  0.00    +0.040 C 
ATOM     27  C   LIG    1       -0.013   1.086   0.008  0.00  0.00    +0.230 C 
ATOM     28  C   LIG    1       -0.753   1.593  -1.232  0.00  0.00    +0.020 C 
ENDBRANCH  24  27
ENDBRANCH  21  24
ENDBRANCH   1  21
TORSDOF 6
