REMARK  Name = ZINCrH000004n4An.0
REMARK                            x       y       z     vdW  Elec       q    Type
REMARK                         _______ _______ _______ _____ _____    ______ ____
ROOT
ATOM      1  N   LIG    1        0.147   7.990  -0.126  0.00  0.00    -0.720 N 
ATOM      2  H   LIG    1        1.077   8.261  -0.061  0.00  0.00    +0.400 HD
ATOM      3  C   LIG    1       -0.174   6.681  -0.139  0.00  0.00    +0.560 C 
ATOM      4  O   LIG    1       -1.338   6.342  -0.221  0.00  0.00    -0.520 OA
ENDROOT
BRANCH   3   5
ATOM      5  C   LIG    1        0.890   5.658  -0.054  0.00  0.00    -0.110 A 
ATOM      6  C   LIG    1        2.228   6.045   0.040  0.00  0.00    +0.020 A 
ATOM      7  C   LIG    1        3.219   5.088   0.120  0.00  0.00    +0.030 A 
ATOM      8  C   LIG    1        2.892   3.745   0.112  0.00  0.00    +0.000 A 
ATOM      9  C   LIG    1        1.563   3.349   0.013  0.00  0.00    +0.160 A 
ATOM     10  C   LIG    1        0.560   4.302  -0.067  0.00  0.00    +0.070 A 
BRANCH   9  11
ATOM     11  N   LIG    1        1.237   1.988   0.001  0.00  0.00    -0.560 N 
ATOM     12  C   LIG    1        2.223   0.901  -0.040  0.00  0.00    +0.260 C 
ATOM     13  C   LIG    1        1.455  -0.367   0.396  0.00  0.00    +0.060 C 
ATOM     14  C   LIG    1        0.002  -0.004   0.011  0.00  0.00    +0.070 C 
ATOM     15  C   LIG    1       -0.018   1.508   0.025  0.00  0.00    +0.510 C 
ATOM     16  O   LIG    1       -1.022   2.189   0.048  0.00  0.00    -0.500 OA
ENDBRANCH   9  11
ENDBRANCH   3   5
BRANCH   1  17
ATOM     17  C   LIG    1       -0.907   9.004  -0.210  0.00  0.00    +0.320 C 
BRANCH  17  21
ATOM     18  C   LIG    1        0.467  12.638   1.568  0.00  0.00    +0.130 A 
ATOM     19  C   LIG    1       -0.838  12.216   1.771  0.00  0.00    -0.020 A 
ATOM     20  C   LIG    1       -1.280  11.041   1.195  0.00  0.00    +0.070 A 
ATOM     21  C   LIG    1       -0.422  10.286   0.417  0.00  0.00    -0.130 A 
ATOM     22  C   LIG    1        0.881  10.701   0.218  0.00  0.00    +0.050 A 
ATOM     23  C   LIG    1        1.326  11.879   0.787  0.00  0.00    -0.070 A 
BRANCH  18  25
ATOM     24  C   LIG    1        2.261  14.167   1.883  0.00  0.00    +0.250 C 
ATOM     25  O   LIG    1        0.905  13.794   2.134  0.00  0.00    -0.320 OA
ENDBRANCH  18  25
ENDBRANCH  17  21
BRANCH  17  26
ATOM     26  C   LIG    1       -1.257   9.255  -1.679  0.00  0.00    -0.070 C 
ATOM     27  C   LIG    1       -2.733   9.181  -2.075  0.00  0.00    +0.020 C 
ATOM     28  C   LIG    1       -1.772   8.067  -2.495  0.00  0.00    +0.030 C 
ENDBRANCH  17  26
ENDBRANCH   1  17
TORSDOF 6
