REMARK  Name = ZINCkj000005fwEu.2
REMARK                            x       y       z     vdW  Elec       q    Type
REMARK                         _______ _______ _______ _____ _____    ______ ____
ROOT
ATOM      1  C   LIG    1        1.113   2.021   0.002  0.00  0.00    +0.390 C 
ATOM      2  N   LIG    1       -0.016   1.327   0.009  0.00  0.00    -0.560 NA
ATOM      3  C   LIG    1        0.002  -0.004   0.002  0.00  0.00    +0.520 C 
ATOM      4  C   LIG    1        1.227  -0.665  -0.013  0.00  0.00    -0.150 C 
ATOM      5  C   LIG    1        2.391   0.098  -0.020  0.00  0.00    +0.510 C 
ATOM      6  N   LIG    1        2.296   1.425  -0.012  0.00  0.00    -0.560 NA
ATOM      7  H   LIG    1        3.103   1.963  -0.017  0.00  0.00    +0.440 HD
ENDROOT
BRANCH   5   8
ATOM      8  N   LIG    1        3.634  -0.517  -0.035  0.00  0.00    -0.810 NA
ATOM      9  H   LIG    1        4.441   0.020  -0.040  0.00  0.00    +0.420 HD
ATOM     10  H   LIG    1        3.695  -1.485  -0.040  0.00  0.00    +0.440 HD
ENDBRANCH   5   8
BRANCH   3  11
ATOM     11  N   LIG    1       -1.183  -0.723   0.010  0.00  0.00    -0.790 NA
ATOM     12  H   LIG    1       -1.163  -1.692   0.004  0.00  0.00    +0.430 HD
ATOM     13  H   LIG    1       -2.034  -0.255   0.021  0.00  0.00    +0.430 HD
ENDBRANCH   3  11
BRANCH   1  14
ATOM     14  S   LIG    1        1.038   3.781   0.012  0.00  0.00    +0.150 S 
BRANCH  14  15
ATOM     15  C   LIG    1       -0.756   4.019   0.030  0.00  0.00    +0.020 C 
ATOM     16  C   LIG    1       -1.354   3.489  -1.275  0.00  0.00    +0.110 C 
BRANCH  15  23
ATOM     17  C   LIG    1       -6.321   6.939   0.098  0.00  0.00    +0.030 C 
ATOM     18  C   LIG    1       -4.965   6.646   0.744  0.00  0.00    -0.010 C 
ATOM     19  C   LIG    1       -3.907   7.583   0.157  0.00  0.00    +0.020 C 
ATOM     20  C   LIG    1       -2.559   7.311   0.830  0.00  0.00    +0.290 C 
ATOM     21  N   LIG    1       -2.242   5.883   0.693  0.00  0.00    -0.590 N 
ATOM     22  C   LIG    1       -3.233   4.893   1.138  0.00  0.00    +0.270 C 
ATOM     23  C   LIG    1       -1.067   5.488   0.164  0.00  0.00    +0.530 C 
ATOM     24  O   LIG    1       -0.259   6.314  -0.204  0.00  0.00    -0.520 OA
ATOM     25  C   LIG    1       -4.571   5.193   0.466  0.00  0.00    +0.020 C 
ENDBRANCH  15  23
ENDBRANCH  14  15
ENDBRANCH   1  14
TORSDOF 5
