REMARK  Name = ZINCvU0000000A0Z.0
REMARK                            x       y       z     vdW  Elec       q    Type
REMARK                         _______ _______ _______ _____ _____    ______ ____
ROOT
ATOM      1  C   LIG    1        4.943   8.240  -1.073  0.00  0.00    +0.160 A 
ATOM      2  N   LIG    1        6.045   7.594  -0.760  0.00  0.00    -0.280 NA
ATOM      3  N   LIG    1        7.072   8.324  -1.013  0.00  0.00    -0.250 NA
ATOM      4  C   LIG    1        6.691   9.482  -1.503  0.00  0.00    +0.230 A 
ATOM      5  N   LIG    1        5.314   9.462  -1.562  0.00  0.00    -0.410 N 
ENDROOT
BRANCH   5   6
ATOM      6  C   LIG    1        4.471  10.482  -2.023  0.00  0.00    +0.090 A 
ATOM      7  C   LIG    1        4.002  11.448  -1.143  0.00  0.00    +0.040 A 
ATOM      8  C   LIG    1        3.171  12.452  -1.601  0.00  0.00    +0.030 A 
ATOM      9  C   LIG    1        2.807  12.496  -2.935  0.00  0.00    +0.050 A 
ATOM     10  C   LIG    1        3.274  11.535  -3.813  0.00  0.00    +0.030 A 
ATOM     11  C   LIG    1        4.109  10.532  -3.363  0.00  0.00    -0.050 A 
ATOM     12  C   LIG    1        4.621   9.489  -4.322  0.00  0.00    +0.100 C 
ENDBRANCH   5   6
BRANCH   4  13
ATOM     13  C   LIG    1        7.572  10.592  -1.918  0.00  0.00    +0.030 A 
ATOM     14  C   LIG    1        7.058  11.877  -2.135  0.00  0.00    -0.020 A 
ATOM     15  C   LIG    1        7.917  12.885  -2.517  0.00  0.00    +0.270 A 
ATOM     16  N   LIG    1        9.204  12.651  -2.687  0.00  0.00    -0.470 NA
ATOM     17  C   LIG    1        9.730  11.455  -2.498  0.00  0.00    +0.280 A 
ATOM     18  C   LIG    1        8.945  10.390  -2.110  0.00  0.00    +0.020 A 
ENDBRANCH   4  13
BRANCH   1  19
ATOM     19  S   LIG    1        3.295   7.640  -0.901  0.00  0.00    +0.100 S 
BRANCH  19  20
ATOM     20  C   LIG    1        3.628   5.998  -0.216  0.00  0.00    +0.010 C 
ATOM     21  C   LIG    1        4.267   6.143   1.167  0.00  0.00    +0.090 C 
BRANCH  20  24
ATOM     22  N   LIG    1        2.356   3.889   0.001  0.00  0.00    -0.660 N 
ATOM     23  H   LIG    1        3.202   3.419   0.068  0.00  0.00    +0.410 HD
ATOM     24  C   LIG    1        2.336   5.233  -0.094  0.00  0.00    +0.540 C 
ATOM     25  O   LIG    1        1.278   5.827  -0.082  0.00  0.00    -0.500 OA
BRANCH  22  30
ATOM     26  C   LIG    1       -2.515   0.980   0.014  0.00  0.00    +0.090 C 
ATOM     27  C   LIG    1       -1.220   1.751   0.008  0.00  0.00    -0.100 A 
ATOM     28  C   LIG    1       -1.113   2.914  -0.733  0.00  0.00    +0.030 A 
ATOM     29  C   LIG    1        0.070   3.626  -0.736  0.00  0.00    +0.010 A 
ATOM     30  C   LIG    1        1.155   3.170   0.002  0.00  0.00    +0.140 A 
ATOM     31  C   LIG    1        1.046   1.999   0.741  0.00  0.00    -0.010 A 
ATOM     32  C   LIG    1       -0.141   1.292   0.740  0.00  0.00    +0.030 A 
ENDBRANCH  22  30
ENDBRANCH  20  24
ENDBRANCH  19  20
ENDBRANCH   1  19
TORSDOF 6
