REMARK  Name = ZINCpe00000MGfrP.0
REMARK                            x       y       z     vdW  Elec       q    Type
REMARK                         _______ _______ _______ _____ _____    ______ ____
ROOT
ATOM      1  C   LIG    1        3.004   1.225   1.345  0.00  0.00    +0.190 C 
ATOM      2  N   LIG    1        1.549   1.024   1.367  0.00  0.00    -0.530 NA
ATOM      3  C   LIG    1        0.946   1.661   2.547  0.00  0.00    +0.150 C 
ATOM      4  C   LIG    1       -0.558   1.380   2.566  0.00  0.00    +0.220 C 
ATOM      5  O   LIG    1       -1.141   1.837   1.341  0.00  0.00    -0.380 OA
ATOM      6  C   LIG    1       -0.574   1.232   0.178  0.00  0.00    +0.170 C 
ATOM      7  C   LIG    1       -1.257   1.785  -1.071  0.00  0.00    +0.050 C 
ATOM      8  C   LIG    1       -1.063   3.290  -1.153  0.00  0.00    +0.280 C 
ATOM      9  N   LIG    1        0.374   3.586  -1.071  0.00  0.00    -0.590 N 
ATOM     10  C   LIG    1        1.139   3.049   0.062  0.00  0.00    +0.250 C 
ATOM     11  C   LIG    1        0.977   4.335  -2.015  0.00  0.00    +0.570 C 
ATOM     12  O   LIG    1        2.149   4.636  -1.895  0.00  0.00    -0.540 OA
ATOM     13  C   LIG    1        0.927   1.533   0.133  0.00  0.00    +0.150 C 
ENDROOT
BRANCH  11  14
ATOM     14  C   LIG    1        0.214   4.790  -3.196  0.00  0.00    -0.090 A 
ATOM     15  C   LIG    1       -0.983   5.489  -3.031  0.00  0.00    +0.030 A 
ATOM     16  C   LIG    1       -1.690   5.911  -4.138  0.00  0.00    +0.020 A 
ATOM     17  C   LIG    1       -1.214   5.644  -5.410  0.00  0.00    +0.030 A 
ATOM     18  C   LIG    1       -0.028   4.952  -5.580  0.00  0.00    +0.030 A 
ATOM     19  C   LIG    1        0.691   4.528  -4.482  0.00  0.00    -0.070 A 
BRANCH  19  20
ATOM     20  C   LIG    1        1.986   3.780  -4.670  0.00  0.00    +0.380 C 
BRANCH  20  21
ATOM     21  N   LIG    1        1.724   2.339  -4.647  0.00  0.00    -0.370 N 
ATOM     22  C   LIG    1        2.056   1.445  -5.595  0.00  0.00    +0.470 A 
ATOM     23  N   LIG    1        1.651   0.265  -5.199  0.00  0.00    -0.540 NA
ATOM     24  C   LIG    1        1.053   0.367  -4.013  0.00  0.00    +0.400 A 
ATOM     25  N   LIG    1        1.073   1.617  -3.633  0.00  0.00    -0.310 NA
ENDBRANCH  20  21
ENDBRANCH  19  20
ENDBRANCH  11  14
TORSDOF 3
