REMARK  Name = ZINCrg00000yQT6z.0
REMARK                            x       y       z     vdW  Elec       q    Type
REMARK                         _______ _______ _______ _____ _____    ______ ____
ROOT
ATOM      1  N   LIG    1       -2.908   0.869  -1.063  0.00  0.00    -0.730 N 
ATOM      2  H   LIG    1       -2.612   0.218  -0.408  0.00  0.00    +0.400 HD
ATOM      3  C   LIG    1       -3.768   0.505  -2.034  0.00  0.00    +0.510 C 
ATOM      4  O   LIG    1       -4.138   1.319  -2.853  0.00  0.00    -0.520 OA
ENDROOT
BRANCH   1   5
ATOM      5  C   LIG    1       -2.419   2.248  -0.997  0.00  0.00    +0.290 C 
BRANCH   5  16
ATOM      6  C   LIG    1       -0.317   0.003  -0.322  0.00  0.00    +0.320 C 
ATOM      7  N   LIG    1       -0.232   1.460  -0.199  0.00  0.00    -0.620 N 
ATOM      8  C   LIG    1        0.884   2.195  -0.344  0.00  0.00    +0.560 C 
ATOM      9  C   LIG    1        0.584   3.626  -0.151  0.00  0.00    -0.150 A 
ATOM     10  C   LIG    1        1.384   4.769  -0.197  0.00  0.00    +0.090 A 
ATOM     11  C   LIG    1        0.823   6.009   0.026  0.00  0.00    +0.020 A 
ATOM     12  C   LIG    1       -0.529   6.125   0.298  0.00  0.00    +0.050 A 
ATOM     13  C   LIG    1       -1.329   4.996   0.345  0.00  0.00    +0.030 A 
ATOM     14  C   LIG    1       -0.780   3.755   0.123  0.00  0.00    -0.080 A 
ATOM     15  O   LIG    1        1.984   1.743  -0.598  0.00  0.00    -0.520 OA
ATOM     16  C   LIG    1       -1.353   2.360   0.096  0.00  0.00    +0.270 C 
ENDBRANCH   5  16
ENDBRANCH   1   5
BRANCH   3  17
ATOM     17  C   LIG    1       -4.272  -0.914  -2.102  0.00  0.00    +0.310 C 
BRANCH  17  18
ATOM     18  N   LIG    1       -5.187  -1.054  -3.237  0.00  0.00    -1.110 NA
ATOM     19  H   LIG    1       -5.549  -0.264  -3.668  0.00  0.00    +0.430 HD
BRANCH  18  20
ATOM     20  S   LIG    1       -5.603  -2.561  -3.784  0.00  0.00    +2.700 S 
ATOM     21  O   LIG    1       -4.390  -3.286  -3.924  0.00  0.00    -0.950 OA
ATOM     22  O   LIG    1       -6.517  -2.360  -4.854  0.00  0.00    -0.950 OA
BRANCH  20  23
ATOM     23  C   LIG    1       -6.511  -3.351  -2.497  0.00  0.00    -0.700 A 
ATOM     24  C   LIG    1       -5.848  -4.109  -1.550  0.00  0.00    +0.160 A 
ATOM     25  C   LIG    1       -6.558  -4.725  -0.537  0.00  0.00    -0.030 A 
ATOM     26  C   LIG    1       -7.934  -4.592  -0.477  0.00  0.00    +0.160 A 
ATOM     27  C   LIG    1       -8.598  -3.837  -1.429  0.00  0.00    -0.020 A 
ATOM     28  F   LIG    1       -8.630  -5.198   0.510  0.00  0.00    -0.130 F 
ATOM     29  C   LIG    1       -7.885  -3.217  -2.438  0.00  0.00    +0.160 A 
ENDBRANCH  20  23
ENDBRANCH  18  20
ENDBRANCH  17  18
ENDBRANCH   3  17
TORSDOF 6
