REMARK  Name = ZINCtV00001bB3d8.0
REMARK                            x       y       z     vdW  Elec       q    Type
REMARK                         _______ _______ _______ _____ _____    ______ ____
ROOT
ATOM      1  C   LIG    1        1.426   2.063  -0.002  0.00  0.00    +0.090 C 
ATOM      2  C   LIG    1       -0.008   1.530  -0.007  0.00  0.00    +0.040 C 
ATOM      3  C   LIG    1        0.015  -0.000  -0.024  0.00  0.00    +0.030 C 
ATOM      4  C   LIG    1        0.716  -0.510   1.240  0.00  0.00    +0.270 C 
ATOM      5  N   LIG    1        2.043   0.112   1.328  0.00  0.00    -0.610 N 
ATOM      6  C   LIG    1        3.149  -0.645   1.467  0.00  0.00    +0.530 C 
ATOM      7  O   LIG    1        4.246  -0.129   1.440  0.00  0.00    -0.530 OA
ATOM      8  C   LIG    1        2.143   1.577   1.262  0.00  0.00    +0.290 C 
ENDROOT
BRANCH   6   9
ATOM      9  C   LIG    1        3.023  -2.135   1.656  0.00  0.00    -0.010 C 
ATOM     10  C   LIG    1        3.150  -2.834   0.301  0.00  0.00    +0.050 C 
ATOM     11  C   LIG    1        3.022  -4.346   0.493  0.00  0.00    +0.050 C 
ATOM     12  C   LIG    1        4.130  -4.838   1.426  0.00  0.00    +0.030 C 
ATOM     13  C   LIG    1        4.003  -4.139   2.781  0.00  0.00    +0.290 C 
ATOM     14  F   LIG    1        2.756  -4.434   3.343  0.00  0.00    -0.200 F 
ATOM     15  F   LIG    1        5.016  -4.589   3.635  0.00  0.00    -0.200 F 
ATOM     16  C   LIG    1        4.131  -2.627   2.589  0.00  0.00    +0.060 C 
ENDBRANCH   6   9
BRANCH   1  20
ATOM     17  C   LIG    1        1.817   5.612  -0.798  0.00  0.00    +0.080 A 
ATOM     18  C   LIG    1        1.163   5.998   0.301  0.00  0.00    -0.080 A 
ATOM     19  S   LIG    1        0.678   4.550   1.180  0.00  0.00    +0.120 S 
ATOM     20  C   LIG    1        1.403   3.570  -0.018  0.00  0.00    +0.060 A 
ATOM     21  N   LIG    1        1.932   4.307  -0.936  0.00  0.00    -0.460 NA
BRANCH  17  27
ATOM     22  C   LIG    1        4.620   8.175  -2.827  0.00  0.00    +0.020 C 
ATOM     23  C   LIG    1        3.458   8.828  -2.075  0.00  0.00    -0.060 C 
ATOM     24  C   LIG    1        2.367   9.228  -3.071  0.00  0.00    +0.010 C 
ATOM     25  C   LIG    1        1.865   7.983  -3.805  0.00  0.00    +0.010 C 
ATOM     26  C   LIG    1        1.291   6.990  -2.792  0.00  0.00    +0.010 C 
ATOM     27  C   LIG    1        2.382   6.590  -1.796  0.00  0.00    +0.080 C 
ATOM     28  C   LIG    1        3.960  10.073  -1.341  0.00  0.00    +0.030 C 
ATOM     29  C   LIG    1        2.884   7.835  -1.062  0.00  0.00    +0.030 C 
ENDBRANCH  17  27
ENDBRANCH   1  20
TORSDOF 3
