REMARK  Name = ZINCrH000004tOKz.0
REMARK                            x       y       z     vdW  Elec       q    Type
REMARK                         _______ _______ _______ _____ _____    ______ ____
ROOT
ATOM      1  O   LIG    1       -4.809   4.981   0.072  0.00  0.00    -0.520 OA
ATOM      2  C   LIG    1       -3.896   5.779   0.068  0.00  0.00    +0.530 C 
ATOM      3  N   LIG    1       -4.156   7.102   0.077  0.00  0.00    -0.610 N 
ATOM      4  C   LIG    1       -3.147   8.176   0.072  0.00  0.00    +0.250 C 
ATOM      5  C   LIG    1       -3.866   9.398   0.697  0.00  0.00    +0.040 C 
ATOM      6  C   LIG    1       -5.300   9.242   0.124  0.00  0.00    +0.050 C 
ATOM      7  C   LIG    1       -5.494   7.712   0.087  0.00  0.00    +0.270 C 
ENDROOT
BRANCH   7   8
ATOM      8  C   LIG    1       -6.246   7.319  -1.159  0.00  0.00    -0.080 A 
ATOM      9  C   LIG    1       -5.588   7.271  -2.374  0.00  0.00    +0.030 A 
ATOM     10  C   LIG    1       -6.271   6.905  -3.521  0.00  0.00    +0.020 A 
ATOM     11  C   LIG    1       -7.618   6.598  -3.449  0.00  0.00    +0.070 A 
ATOM     12  O   LIG    1       -8.304   6.241  -4.574  0.00  0.00    -0.320 OA
ATOM     13  C   LIG    1       -8.743   4.882  -4.632  0.00  0.00    +0.230 C 
ATOM     14  C   LIG    1      -10.068   4.711  -3.905  0.00  0.00    -0.020 C 
ATOM     15  C   LIG    1       -9.948   4.980  -2.413  0.00  0.00    +0.230 C 
ATOM     16  O   LIG    1       -9.608   6.346  -2.170  0.00  0.00    -0.320 OA
ATOM     17  C   LIG    1       -8.280   6.651  -2.230  0.00  0.00    +0.070 A 
ATOM     18  C   LIG    1       -7.593   7.011  -1.084  0.00  0.00    +0.030 A 
ENDBRANCH   7   8
BRANCH   2  19
ATOM     19  C   LIG    1       -2.470   5.292   0.052  0.00  0.00    +0.290 C 
BRANCH  19  20
ATOM     20  N   LIG    1       -2.454   3.827   0.045  0.00  0.00    -0.730 N 
ATOM     21  H   LIG    1       -3.289   3.333   0.050  0.00  0.00    +0.420 HD
BRANCH  20  22
ATOM     22  C   LIG    1       -1.236   3.141   0.030  0.00  0.00    +0.190 A 
ATOM     23  C   LIG    1       -0.041   3.846   0.022  0.00  0.00    -0.050 A 
ATOM     24  C   LIG    1        1.162   3.165   0.007  0.00  0.00    +0.050 A 
ATOM     25  C   LIG    1        1.176   1.783   0.000  0.00  0.00    -0.020 A 
ATOM     26  C   LIG    1       -0.013   1.076   0.008  0.00  0.00    +0.040 A 
ATOM     27  C   LIG    1       -1.219   1.750   0.017  0.00  0.00    +0.020 A 
ATOM     28  F   LIG    1       -2.380   1.060   0.019  0.00  0.00    -0.140 F 
ENDBRANCH  20  22
ENDBRANCH  19  20
ENDBRANCH   2  19
TORSDOF 4
