REMARK  Name = ZINCrH00000No4ui.0
REMARK                            x       y       z     vdW  Elec       q    Type
REMARK                         _______ _______ _______ _____ _____    ______ ____
ROOT
ATOM      1  N   LIG    1       -0.837   3.290   3.681  0.00  0.00    -0.570 N 
ENDROOT
BRANCH   1  10
ATOM      2  C   LIG    1        1.061   7.813   3.729  0.00  0.00    +0.160 C 
ATOM      3  C   LIG    1        0.828   6.472   4.377  0.00  0.00    +0.260 A 
ATOM      4  N   LIG    1        1.321   6.226   5.574  0.00  0.00    -0.520 NA
ATOM      5  C   LIG    1        1.131   5.049   6.172  0.00  0.00    +0.370 A 
ATOM      6  C   LIG    1        1.540   4.540   7.419  0.00  0.00    -0.210 A 
ATOM      7  C   LIG    1        1.041   3.228   7.510  0.00  0.00    +0.370 A 
ATOM      8  N   LIG    1        0.383   2.952   6.415  0.00  0.00    -0.320 NA
ATOM      9  N   LIG    1        0.410   4.060   5.562  0.00  0.00    -0.340 N 
ATOM     10  C   LIG    1       -0.114   4.274   4.315  0.00  0.00    +0.500 A 
ATOM     11  C   LIG    1        0.092   5.498   3.708  0.00  0.00    -0.160 A 
BRANCH   6  12
ATOM     12  C   LIG    1        2.316   5.228   8.407  0.00  0.00    +0.300 C 
ATOM     13  N   LIG    1        2.931   5.773   9.191  0.00  0.00    -0.440 NA
ENDBRANCH   6  12
ENDBRANCH   1  10
BRANCH   1  14
ATOM     14  C   LIG    1       -1.397   3.535   2.349  0.00  0.00    +0.310 C 
BRANCH  14  15
ATOM     15  C   LIG    1       -2.822   4.075   2.487  0.00  0.00    -0.080 C 
ATOM     16  C   LIG    1       -2.814   5.327   3.370  0.00  0.00    +0.000 C 
ATOM     17  C   LIG    1       -4.231   5.904   3.437  0.00  0.00    +0.200 C 
ATOM     18  O   LIG    1       -4.689   6.195   2.115  0.00  0.00    -0.380 OA
ATOM     19  C   LIG    1       -4.762   5.053   1.259  0.00  0.00    +0.210 C 
ATOM     20  C   LIG    1       -3.715   3.008   3.122  0.00  0.00    +0.020 C 
ATOM     21  C   LIG    1       -3.367   4.443   1.104  0.00  0.00    +0.020 C 
ENDBRANCH  14  15
ENDBRANCH   1  14
BRANCH   1  22
ATOM     22  C   LIG    1       -1.047   1.997   4.337  0.00  0.00    +0.370 C 
BRANCH  22  23
ATOM     23  C   LIG    1        0.003   1.021   3.871  0.00  0.00    -0.120 A 
ATOM     24  C   LIG    1       -0.208   0.161   2.874  0.00  0.00    -0.040 A 
ATOM     25  S   LIG    1        1.236  -0.808   2.615  0.00  0.00    +0.100 S 
ATOM     26  C   LIG    1        2.068   0.028   3.920  0.00  0.00    -0.050 A 
ATOM     27  C   LIG    1        1.258   0.945   4.450  0.00  0.00    +0.030 A 
ENDBRANCH  22  23
ENDBRANCH   1  22
TORSDOF 6
