REMARK  Name = ZINCrH00000No56C.0
REMARK                            x       y       z     vdW  Elec       q    Type
REMARK                         _______ _______ _______ _____ _____    ______ ____
ROOT
ATOM      1  N   LIG    1        2.024   4.554  -1.773  0.00  0.00    -0.470 N 
ATOM      2  C   LIG    1        1.793   3.356  -2.589  0.00  0.00    +0.210 C 
ATOM      3  C   LIG    1        2.331   2.126  -1.851  0.00  0.00    +0.060 C 
ATOM      4  C   LIG    1        1.647   2.011  -0.495  0.00  0.00    -0.070 C 
ATOM      5  C   LIG    1        1.823   3.289   0.314  0.00  0.00    +0.060 C 
ATOM      6  C   LIG    1        0.154   1.682  -0.669  0.00  0.00    +0.030 C 
ATOM      7  C   LIG    1        0.063   0.153  -0.493  0.00  0.00    +0.230 C 
ATOM      8  N   LIG    1        1.436  -0.341  -0.279  0.00  0.00    -0.620 N 
ATOM      9  C   LIG    1        1.903  -1.577  -0.541  0.00  0.00    +0.610 C 
ATOM     10  O   LIG    1        3.089  -1.821  -0.410  0.00  0.00    -0.520 OA
ATOM     11  C   LIG    1        2.198   0.799   0.284  0.00  0.00    +0.290 C 
ATOM     12  C   LIG    1        1.302   4.480  -0.496  0.00  0.00    +0.200 C 
ENDROOT
BRANCH   9  13
ATOM     13  C   LIG    1        0.984  -2.630  -0.985  0.00  0.00    -0.040 A 
ATOM     14  C   LIG    1        1.336  -3.892  -1.414  0.00  0.00    +0.070 A 
ATOM     15  C   LIG    1        0.151  -4.563  -1.735  0.00  0.00    -0.130 A 
ATOM     16  C   LIG    1       -0.881  -3.714  -1.510  0.00  0.00    +0.220 A 
ATOM     17 CL   LIG    1        0.025  -6.191  -2.325  0.00  0.00    -0.040 Cl
ATOM     18  N   LIG    1       -0.388  -2.536  -1.054  0.00  0.00    -0.540 N 
ATOM     19  H   LIG    1       -0.914  -1.756  -0.816  0.00  0.00    +0.420 HD
ENDBRANCH   9  13
BRANCH   1  22
ATOM     20  C   LIG    1        1.474   8.074  -2.613  0.00  0.00    +0.200 A 
ATOM     21  C   LIG    1        1.827   6.960  -1.878  0.00  0.00    -0.090 A 
ATOM     22  C   LIG    1        1.684   5.703  -2.469  0.00  0.00    +0.360 A 
ATOM     23  N   LIG    1        1.222   5.626  -3.713  0.00  0.00    -0.560 NA
ATOM     24  C   LIG    1        0.892   6.716  -4.377  0.00  0.00    +0.520 A 
ATOM     25  N   LIG    1        1.014   7.916  -3.847  0.00  0.00    -0.540 NA
BRANCH  20  27
ATOM     26  C   LIG    1        0.358   9.782  -1.203  0.00  0.00    +0.050 C 
ATOM     27  C   LIG    1        1.609   9.453  -2.021  0.00  0.00    +0.050 C 
ATOM     28  C   LIG    1        2.839   9.499  -1.112  0.00  0.00    +0.040 C 
ENDBRANCH  20  27
ENDBRANCH   1  22
TORSDOF 3
