REMARK  Name = ZINCvU000000072c.0
REMARK                            x       y       z     vdW  Elec       q    Type
REMARK                         _______ _______ _______ _____ _____    ______ ____
ROOT
ATOM      1  C   LIG    1       -2.243   2.965   2.495  0.00  0.00    +0.430 A 
ATOM      2  C   LIG    1       -1.491   2.636   1.380  0.00  0.00    -0.190 A 
ATOM      3  C   LIG    1       -1.645   3.482   0.145  0.00  0.00    +0.100 C 
ATOM      4  C   LIG    1       -0.469   3.260  -0.805  0.00  0.00    +0.030 C 
ATOM      5  C   LIG    1       -0.300   1.752  -1.022  0.00  0.00    +0.030 C 
ATOM      6  C   LIG    1        0.224   1.132   0.271  0.00  0.00    +0.130 C 
ATOM      7  C   LIG    1       -0.632   1.548   1.440  0.00  0.00    +0.230 A 
ATOM      8  N   LIG    1       -0.545   0.839   2.553  0.00  0.00    -0.480 NA
ATOM      9  C   LIG    1       -1.264   1.141   3.636  0.00  0.00    +0.300 A 
ATOM     10  C   LIG    1       -1.353   0.563   4.908  0.00  0.00    -0.210 A 
ATOM     11  C   LIG    1       -2.280   1.313   5.641  0.00  0.00    +0.140 A 
ATOM     12  N   LIG    1       -2.733   2.282   4.884  0.00  0.00    -0.300 NA
ATOM     13  C   LIG    1       -2.691   1.050   7.067  0.00  0.00    +0.160 C 
ATOM     14  N   LIG    1       -2.124   2.207   3.627  0.00  0.00    -0.320 N 
ENDROOT
BRANCH  10  15
ATOM     15  C   LIG    1       -0.605  -0.622   5.389  0.00  0.00    +0.010 A 
ATOM     16  C   LIG    1       -0.831  -1.873   4.816  0.00  0.00    +0.020 A 
ATOM     17  C   LIG    1       -0.128  -2.972   5.265  0.00  0.00    +0.000 A 
ATOM     18  C   LIG    1        0.792  -2.837   6.289  0.00  0.00    +0.000 A 
ATOM     19  C   LIG    1        1.017  -1.599   6.866  0.00  0.00    +0.000 A 
ATOM     20  C   LIG    1        0.324  -0.492   6.422  0.00  0.00    +0.010 A 
ENDBRANCH  10  15
BRANCH   1  21
ATOM     21  N   LIG    1       -3.102   4.042   2.464  0.00  0.00    -0.670 N 
ATOM     22  H   LIG    1       -3.810   4.079   1.801  0.00  0.00    +0.420 HD
BRANCH  21  26
ATOM     23  C   LIG    1       -2.662   7.139   5.219  0.00  0.00    +0.110 A 
ATOM     24  C   LIG    1       -3.765   7.112   4.375  0.00  0.00    +0.030 A 
ATOM     25  C   LIG    1       -3.911   6.087   3.463  0.00  0.00    -0.020 A 
ATOM     26  C   LIG    1       -2.954   5.082   3.388  0.00  0.00    +0.180 A 
ATOM     27  C   LIG    1       -1.854   5.106   4.236  0.00  0.00    -0.020 A 
ATOM     28  C   LIG    1       -1.706   6.135   5.145  0.00  0.00    +0.060 A 
BRANCH  23  31
ATOM     29  C   LIG    1       -1.135   9.841   7.352  0.00  0.00    +0.110 C 
ATOM     30  C   LIG    1       -1.287   8.653   6.437  0.00  0.00    +0.510 C 
ATOM     31  N   LIG    1       -2.514   8.180   6.145  0.00  0.00    -0.670 N 
ATOM     32  H   LIG    1       -3.296   8.560   6.577  0.00  0.00    +0.410 HD
ATOM     33  O   LIG    1       -0.304   8.122   5.964  0.00  0.00    -0.530 OA
ENDBRANCH  23  31
ENDBRANCH  21  26
ENDBRANCH   1  21
TORSDOF 4
