REMARK  Name = ZINCvU0000000A6X.0
REMARK                            x       y       z     vdW  Elec       q    Type
REMARK                         _______ _______ _______ _____ _____    ______ ____
ROOT
ATOM      1  C   LIG    1       -4.171   1.861   0.531  0.00  0.00    +0.360 A 
ATOM      2  N   LIG    1       -3.947   3.151   0.573  0.00  0.00    -0.530 NA
ATOM      3  C   LIG    1       -4.856   4.043   0.112  0.00  0.00    +0.180 A 
ATOM      4  C   LIG    1       -4.617   5.419   0.152  0.00  0.00    +0.040 A 
ATOM      5  C   LIG    1       -5.573   6.289  -0.324  0.00  0.00    +0.020 A 
ATOM      6  C   LIG    1       -6.772   5.813  -0.845  0.00  0.00    +0.020 A 
ATOM      7  C   LIG    1       -7.028   4.471  -0.895  0.00  0.00    +0.130 A 
ATOM      8 CL   LIG    1       -5.278   7.999  -0.275  0.00  0.00    -0.050 Cl
ATOM      9  C   LIG    1       -6.078   3.569  -0.419  0.00  0.00    -0.200 A 
ATOM     10  C   LIG    1       -6.305   2.118  -0.450  0.00  0.00    +0.560 A 
ATOM     11  O   LIG    1       -7.337   1.650  -0.894  0.00  0.00    -0.490 OA
ATOM     12  N   LIG    1       -5.325   1.321   0.035  0.00  0.00    -0.490 N 
ENDROOT
BRANCH  12  13
ATOM     13  C   LIG    1       -5.494  -0.070   0.027  0.00  0.00    +0.090 A 
ATOM     14  C   LIG    1       -5.084  -0.815  -1.072  0.00  0.00    +0.070 A 
ATOM     15  C   LIG    1       -5.247  -2.186  -1.075  0.00  0.00    +0.050 A 
ATOM     16  C   LIG    1       -5.828  -2.817   0.011  0.00  0.00    -0.010 A 
ATOM     17  C   LIG    1       -6.242  -2.077   1.105  0.00  0.00    +0.050 A 
ATOM     18 CL   LIG    1       -6.038  -4.541   0.001  0.00  0.00    -0.050 Cl
ATOM     19  C   LIG    1       -6.076  -0.706   1.115  0.00  0.00    +0.070 A 
ENDBRANCH  12  13
BRANCH   1  20
ATOM     20  S   LIG    1       -2.931   0.773   1.149  0.00  0.00    +0.100 S 
BRANCH  20  21
ATOM     21  C   LIG    1       -1.679   1.978   1.656  0.00  0.00    +0.110 C 
BRANCH  21  28
ATOM     22  C   LIG    1        1.052   5.496   3.920  0.00  0.00    +0.030 C 
ATOM     23  C   LIG    1        0.902   3.976   3.998  0.00  0.00    -0.030 C 
ATOM     24  C   LIG    1        2.206   3.359   4.508  0.00  0.00    +0.030 C 
ATOM     25  C   LIG    1        2.045   1.841   4.618  0.00  0.00    -0.020 C 
ATOM     26  C   LIG    1        1.745   1.261   3.232  0.00  0.00    +0.290 C 
ATOM     27  N   LIG    1        0.575   1.952   2.674  0.00  0.00    -0.600 N 
ATOM     28  C   LIG    1       -0.489   1.254   2.232  0.00  0.00    +0.530 C 
ATOM     29  O   LIG    1       -0.488   0.043   2.294  0.00  0.00    -0.520 OA
ATOM     30  C   LIG    1        0.891   1.517   5.569  0.00  0.00    +0.030 C 
ATOM     31  C   LIG    1        0.591   3.420   2.600  0.00  0.00    +0.280 C 
ENDBRANCH  21  28
ENDBRANCH  20  21
ENDBRANCH   1  20
TORSDOF 4
