REMARK  Name = ZINCqH0000003JW4.0
REMARK                            x       y       z     vdW  Elec       q    Type
REMARK                         _______ _______ _______ _____ _____    ______ ____
ROOT
ATOM      1  C   LIG    1       -0.015   1.208   0.015  0.00  0.00    +0.520 C 
ATOM      2  N   LIG    1       -1.191   1.867   0.018  0.00  0.00    -0.670 N 
ATOM      3  H   LIG    1       -1.205   2.834   0.092  0.00  0.00    +0.420 HD
ATOM      4  O   LIG    1        0.001  -0.005   0.005  0.00  0.00    -0.490 OA
ENDROOT
BRANCH   2   5
ATOM      5  C   LIG    1       -2.392   1.155  -0.086  0.00  0.00    +0.220 A 
ATOM      6  C   LIG    1       -2.510  -0.098   0.499  0.00  0.00    +0.060 A 
ATOM      7  C   LIG    1       -3.699  -0.796   0.400  0.00  0.00    +0.140 A 
ATOM      8  C   LIG    1       -4.766  -0.252  -0.291  0.00  0.00    -0.050 A 
ATOM      9  C   LIG    1       -4.650   0.994  -0.880  0.00  0.00    +0.140 A 
ATOM     10  C   LIG    1       -3.466   1.699  -0.780  0.00  0.00    -0.070 A 
ATOM     11 CL   LIG    1       -3.321   3.263  -1.520  0.00  0.00    -0.030 Cl
BRANCH   8  12
ATOM     12  N   LIG    1       -6.035  -1.006  -0.401  0.00  0.00    +0.030 N 
ATOM     13  O   LIG    1       -6.139  -2.103   0.117  0.00  0.00    -0.150 OA
ATOM     14  O   LIG    1       -6.976  -0.528  -1.009  0.00  0.00    -0.150 OA
ENDBRANCH   8  12
ENDBRANCH   2   5
BRANCH   1  15
ATOM     15  C   LIG    1        1.280   1.979   0.019  0.00  0.00    +0.220 C 
BRANCH  15  16
ATOM     16  N   LIG    1        2.409   1.039   0.008  0.00  0.00    -0.520 NA
ATOM     17  C   LIG    1        2.455   0.285  -1.252  0.00  0.00    +0.200 C 
BRANCH  16  18
ATOM     18  C   LIG    1        3.679   1.738   0.249  0.00  0.00    +0.240 C 
BRANCH  18  22
ATOM     19  C   LIG    1        6.784  -1.127   0.890  0.00  0.00    +0.130 A 
ATOM     20  C   LIG    1        6.510  -0.674  -0.392  0.00  0.00    -0.020 A 
ATOM     21  C   LIG    1        5.506   0.252  -0.597  0.00  0.00    +0.060 A 
ATOM     22  C   LIG    1        4.774   0.728   0.475  0.00  0.00    -0.120 A 
ATOM     23  C   LIG    1        5.048   0.282   1.755  0.00  0.00    +0.080 A 
ATOM     24  C   LIG    1        6.048  -0.648   1.964  0.00  0.00    -0.080 A 
BRANCH  19  25
ATOM     25  O   LIG    1        7.772  -2.037   1.095  0.00  0.00    -0.320 OA
BRANCH  25  27
ATOM     26  C   LIG    1        9.140  -3.476   2.472  0.00  0.00    +0.070 C 
ATOM     27  C   LIG    1        7.998  -2.458   2.441  0.00  0.00    +0.170 C 
ENDBRANCH  25  27
ENDBRANCH  19  25
ENDBRANCH  18  22
ENDBRANCH  16  18
ENDBRANCH  15  16
ENDBRANCH   1  15
TORSDOF 8
