REMARK  Name = ZINCqH0000031pIN.0
REMARK                            x       y       z     vdW  Elec       q    Type
REMARK                         _______ _______ _______ _____ _____    ______ ____
ROOT
ATOM      1  C   LIG    1        0.240   0.099   0.459  0.00  0.00    +0.250 C 
ATOM      2  C   LIG    1        1.316  -0.229   1.496  0.00  0.00    +0.060 C 
ENDROOT
BRANCH   1   3
ATOM      3  N   LIG    1       -1.070  -0.312   0.968  0.00  0.00    -0.710 N 
ATOM      4  H   LIG    1       -1.638   0.331   1.420  0.00  0.00    +0.410 HD
ATOM      5  C   LIG    1       -1.487  -1.584   0.808  0.00  0.00    +0.560 C 
ATOM      6  O   LIG    1       -0.775  -2.390   0.242  0.00  0.00    -0.510 OA
BRANCH   5   7
ATOM      7  C   LIG    1       -2.809  -1.998   1.322  0.00  0.00    -0.120 A 
ATOM      8  C   LIG    1       -3.627  -1.076   1.978  0.00  0.00    +0.070 A 
ATOM      9  C   LIG    1       -4.862  -1.468   2.451  0.00  0.00    +0.040 A 
ATOM     10  C   LIG    1       -5.288  -2.773   2.287  0.00  0.00    +0.080 A 
ATOM     11  C   LIG    1       -4.482  -3.695   1.642  0.00  0.00    -0.040 A 
ATOM     12 CL   LIG    1       -5.027  -5.332   1.441  0.00  0.00    -0.040 Cl
ATOM     13  C   LIG    1       -3.244  -3.316   1.158  0.00  0.00    +0.020 A 
ATOM     14 CL   LIG    1       -2.233  -4.472   0.350  0.00  0.00    -0.010 Cl
ENDBRANCH   5   7
ENDBRANCH   1   3
BRANCH   1  16
ATOM     15  N   LIG    1        1.297   2.166  -0.394  0.00  0.00    -0.600 N 
ATOM     16  C   LIG    1        0.234   1.582   0.193  0.00  0.00    +0.520 C 
ATOM     17  O   LIG    1       -0.730   2.249   0.504  0.00  0.00    -0.530 OA
BRANCH  15  18
ATOM     18  C   LIG    1        2.417   1.346  -0.864  0.00  0.00    +0.430 C 
BRANCH  18  20
ATOM     19  C   LIG    1        2.135   0.865  -3.450  0.00  0.00    +0.060 C 
ATOM     20  C   LIG    1        2.260   1.078  -2.302  0.00  0.00    -0.230 C 
ENDBRANCH  18  20
ENDBRANCH  15  18
BRANCH  15  21
ATOM     21  C   LIG    1        1.333   3.621  -0.564  0.00  0.00    +0.340 C 
BRANCH  21  22
ATOM     22  C   LIG    1        1.973   4.252   0.645  0.00  0.00    -0.110 A 
ATOM     23  C   LIG    1        1.193   4.634   1.720  0.00  0.00    +0.030 A 
ATOM     24  C   LIG    1        1.781   5.208   2.832  0.00  0.00    +0.000 A 
ATOM     25  C   LIG    1        3.148   5.411   2.864  0.00  0.00    +0.010 A 
ATOM     26  C   LIG    1        3.928   5.033   1.787  0.00  0.00    +0.000 A 
ATOM     27  C   LIG    1        3.340   4.454   0.677  0.00  0.00    +0.010 A 
ENDBRANCH  21  22
ENDBRANCH  15  21
ENDBRANCH   1  16
TORSDOF 7
