REMARK  Name = ZINCrg00000aGtOp.0
REMARK                            x       y       z     vdW  Elec       q    Type
REMARK                         _______ _______ _______ _____ _____    ______ ____
ROOT
ATOM      1  C   LIG    1        0.283   0.087   2.532  0.00  0.00    +0.200 C 
ATOM      2  N   LIG    1        0.080   1.542   2.543  0.00  0.00    -0.540 NA
ATOM      3  C   LIG    1       -0.588   1.971   3.779  0.00  0.00    +0.170 C 
ATOM      4  C   LIG    1       -0.618   3.502   3.834  0.00  0.00    +0.290 C 
ATOM      5  N   LIG    1       -1.226   4.003   2.592  0.00  0.00    -0.610 N 
ATOM      6  C   LIG    1       -0.698   3.510   1.311  0.00  0.00    +0.300 C 
ATOM      7  C   LIG    1       -2.240   4.889   2.627  0.00  0.00    +0.570 C 
ATOM      8  O   LIG    1       -2.791   5.225   1.596  0.00  0.00    -0.530 OA
ATOM      9  C   LIG    1       -0.665   1.978   1.355  0.00  0.00    +0.130 C 
ENDROOT
BRANCH   7  10
ATOM     10  C   LIG    1       -2.683   5.453   3.915  0.00  0.00    -0.080 A 
ATOM     11  C   LIG    1       -4.039   5.388   4.292  0.00  0.00    -0.070 A 
ATOM     12  C   LIG    1       -5.243   4.850   3.665  0.00  0.00    -0.050 A 
ATOM     13  C   LIG    1       -6.264   5.083   4.509  0.00  0.00    +0.230 A 
ATOM     14  N   LIG    1       -5.808   5.726   5.624  0.00  0.00    -0.590 N 
ATOM     15  H   LIG    1       -6.359   5.999   6.375  0.00  0.00    +0.420 HD
ATOM     16  C   LIG    1       -4.449   5.929   5.524  0.00  0.00    +0.090 A 
ATOM     17  C   LIG    1       -3.509   6.522   6.358  0.00  0.00    +0.010 A 
ATOM     18  C   LIG    1       -2.182   6.581   5.981  0.00  0.00    +0.020 A 
ATOM     19  C   LIG    1       -1.763   6.049   4.775  0.00  0.00    +0.020 A 
ENDBRANCH   7  10
BRANCH   9  20
ATOM     20  C   LIG    1        0.023   1.446   0.096  0.00  0.00    +0.290 C 
BRANCH  20  21
ATOM     21  N   LIG    1        1.427   1.862   0.095  0.00  0.00    -0.720 N 
ATOM     22  H   LIG    1        1.759   2.454   0.788  0.00  0.00    +0.410 HD
ATOM     23  C   LIG    1        2.259   1.423  -0.871  0.00  0.00    +0.600 C 
ATOM     24  O   LIG    1        1.844   0.682  -1.740  0.00  0.00    -0.550 OA
BRANCH  23  25
ATOM     25  C   LIG    1        3.673   1.842  -0.873  0.00  0.00    -0.300 A 
ATOM     26  C   LIG    1        4.635   1.475  -1.792  0.00  0.00    +0.330 A 
ATOM     27  N   LIG    1        5.782   2.072  -1.433  0.00  0.00    -0.460 N 
ATOM     28  H   LIG    1        6.631   1.995  -1.896  0.00  0.00    +0.450 HD
ATOM     29  N   LIG    1        5.548   2.825  -0.276  0.00  0.00    -0.290 NA
ATOM     30  C   LIG    1        4.295   2.699   0.062  0.00  0.00    +0.280 A 
ENDBRANCH  23  25
ENDBRANCH  20  21
ENDBRANCH   9  20
TORSDOF 4
