REMARK  Name = ZINCpk00000ebfh0.0
REMARK                            x       y       z     vdW  Elec       q    Type
REMARK                         _______ _______ _______ _____ _____    ______ ____
ROOT
ATOM      1  N   LIG    1       -2.732   2.804   0.495  0.00  0.00    -0.550 NA
ATOM      2  C   LIG    1       -1.382   2.937   1.040  0.00  0.00    +0.190 C 
ATOM      3  C   LIG    1       -0.802   1.560   1.266  0.00  0.00    +0.030 C 
ATOM      4  C   LIG    1       -0.010   1.121   0.022  0.00  0.00    +0.270 C 
ATOM      5  N   LIG    1       -0.703   1.515  -1.220  0.00  0.00    -0.580 N 
ATOM      6  C   LIG    1       -2.137   1.389  -1.385  0.00  0.00    +0.300 C 
ATOM      7  C   LIG    1        0.025   2.011  -2.239  0.00  0.00    +0.560 C 
ATOM      8  O   LIG    1        1.227   2.144  -2.119  0.00  0.00    -0.530 OA
ATOM      9  C   LIG    1       -2.833   2.687  -0.911  0.00  0.00    +0.190 C 
ENDROOT
BRANCH   7  10
ATOM     10  C   LIG    1       -0.640   2.397  -3.509  0.00  0.00    +0.140 A 
ATOM     11  C   LIG    1        0.116   2.760  -4.624  0.00  0.00    -0.020 A 
ATOM     12  C   LIG    1       -0.556   3.111  -5.787  0.00  0.00    +0.340 A 
ATOM     13  N   LIG    1       -1.877   3.090  -5.799  0.00  0.00    -0.500 NA
ATOM     14  C   LIG    1       -2.562   2.742  -4.726  0.00  0.00    +0.340 A 
ATOM     15  N   LIG    1       -1.968   2.396  -3.604  0.00  0.00    -0.480 NA
BRANCH  14  16
ATOM     16  C   LIG    1       -4.067   2.734  -4.790  0.00  0.00    +0.020 C 
ATOM     17  C   LIG    1       -4.718   2.935  -6.160  0.00  0.00    +0.060 C 
ATOM     18  C   LIG    1       -4.767   4.054  -5.117  0.00  0.00    +0.040 C 
ENDBRANCH  14  16
ENDBRANCH   7  10
BRANCH   1  19
ATOM     19  C   LIG    1       -3.611   3.867   1.000  0.00  0.00    +0.300 C 
BRANCH  19  23
ATOM     20  C   LIG    1       -2.961   7.949  -1.837  0.00  0.00    +0.350 C 
ATOM     21  N   LIG    1       -2.848   6.977  -0.746  0.00  0.00    -0.370 N 
ATOM     22  C   LIG    1       -3.505   5.801  -0.659  0.00  0.00    +0.240 A 
ATOM     23  C   LIG    1       -3.126   5.202   0.493  0.00  0.00    -0.270 A 
ATOM     24  C   LIG    1       -2.210   6.042   1.135  0.00  0.00    +0.240 A 
ATOM     25  N   LIG    1       -2.038   7.103   0.389  0.00  0.00    -0.300 NA
ENDBRANCH  19  23
ENDBRANCH   1  19
TORSDOF 4
