REMARK  Name = ZINCtV00000L6juh.0
REMARK                            x       y       z     vdW  Elec       q    Type
REMARK                         _______ _______ _______ _____ _____    ______ ____
ROOT
ATOM      1  C   LIG    1        1.089   1.659  -0.098  0.00  0.00    +0.090 A 
ATOM      2  C   LIG    1       -0.083   0.923  -0.164  0.00  0.00    +0.050 A 
ATOM      3  C   LIG    1       -1.298   1.569  -0.301  0.00  0.00    +0.080 A 
ATOM      4  C   LIG    1       -1.349   2.949  -0.362  0.00  0.00    -0.160 A 
ATOM      5  C   LIG    1       -0.184   3.691  -0.297  0.00  0.00    +0.100 A 
ATOM      6  C   LIG    1        1.039   3.050  -0.165  0.00  0.00    +0.140 A 
ENDROOT
BRANCH   4   7
ATOM      7  C   LIG    1       -2.677   3.647  -0.505  0.00  0.00    +0.510 C 
ATOM      8  F   LIG    1       -2.612   4.903   0.106  0.00  0.00    -0.170 F 
ATOM      9  F   LIG    1       -3.675   2.881   0.107  0.00  0.00    -0.170 F 
ATOM     10  F   LIG    1       -2.977   3.804  -1.863  0.00  0.00    -0.170 F 
ENDBRANCH   4   7
BRANCH   6  11
ATOM     11  N   LIG    1        2.220   3.800  -0.099  0.00  0.00    -0.660 N 
ATOM     12  H   LIG    1        3.036   3.454  -0.493  0.00  0.00    +0.420 HD
ATOM     13  C   LIG    1        2.224   5.001   0.512  0.00  0.00    +0.570 C 
ATOM     14  O   LIG    1        1.185   5.470   0.936  0.00  0.00    -0.500 OA
BRANCH  13  15
ATOM     15  C   LIG    1        3.489   5.748   0.666  0.00  0.00    -0.130 A 
ATOM     16  C   LIG    1        4.684   5.210   0.185  0.00  0.00    +0.050 A 
ATOM     17  C   LIG    1        5.862   5.915   0.328  0.00  0.00    +0.030 A 
ATOM     18  C   LIG    1        5.863   7.147   0.955  0.00  0.00    +0.060 A 
ATOM     19  C   LIG    1        4.682   7.685   1.440  0.00  0.00    -0.040 A 
ATOM     20 CL   LIG    1        4.693   9.233   2.225  0.00  0.00    -0.050 Cl
ATOM     21  C   LIG    1        3.496   6.993   1.299  0.00  0.00    +0.100 A 
ENDBRANCH  13  15
ENDBRANCH   6  11
BRANCH   1  22
ATOM     22  O   LIG    1        2.285   1.026   0.031  0.00  0.00    -0.250 OA
BRANCH  22  27
ATOM     23  C   LIG    1        4.672   0.353   2.698  0.00  0.00    +0.170 A 
ATOM     24  C   LIG    1        3.969   0.826   3.796  0.00  0.00    -0.100 A 
ATOM     25  C   LIG    1        2.706   1.364   3.631  0.00  0.00    +0.090 A 
ATOM     26  C   LIG    1        2.143   1.436   2.371  0.00  0.00    -0.090 A 
ATOM     27  C   LIG    1        2.841   0.959   1.270  0.00  0.00    +0.150 A 
ATOM     28  C   LIG    1        4.108   0.419   1.433  0.00  0.00    -0.040 A 
BRANCH  23  30
ATOM     29  C   LIG    1        6.433  -0.211   4.192  0.00  0.00    +0.250 C 
ATOM     30  O   LIG    1        5.914  -0.175   2.861  0.00  0.00    -0.310 OA
ENDBRANCH  23  30
ENDBRANCH  22  27
ENDBRANCH   1  22
TORSDOF 6
