REMARK  Name = ZINCpe000000SBb2.0
REMARK                            x       y       z     vdW  Elec       q    Type
REMARK                         _______ _______ _______ _____ _____    ______ ____
ROOT
ATOM      1  C   LIG    1       -8.655   1.158   0.049  0.00  0.00    +0.520 C 
ATOM      2  N   LIG    1       -9.813   0.468   0.051  0.00  0.00    -0.720 N 
ATOM      3  H   LIG    1       -9.800  -0.502   0.046  0.00  0.00    +0.410 HD
ATOM      4  O   LIG    1       -8.671   2.371   0.056  0.00  0.00    -0.540 OA
ENDROOT
BRANCH   2   5
ATOM      5  C   LIG    1      -11.092   1.183   0.061  0.00  0.00    +0.280 C 
ATOM      6  C   LIG    1      -11.611   1.407  -1.379  0.00  0.00    +0.230 C 
ATOM      7  O   LIG    1      -13.033   1.251  -1.232  0.00  0.00    -0.300 OA
ATOM      8  C   LIG    1      -13.287   0.420  -0.184  0.00  0.00    +0.120 A 
ATOM      9  C   LIG    1      -14.442  -0.291   0.133  0.00  0.00    -0.100 A 
ATOM     10  C   LIG    1      -15.645  -0.209  -0.771  0.00  0.00    +0.100 C 
ATOM     11  C   LIG    1      -14.489  -1.069   1.270  0.00  0.00    -0.040 A 
ATOM     12  C   LIG    1      -15.744  -1.835   1.603  0.00  0.00    +0.100 C 
ATOM     13  C   LIG    1      -13.391  -1.151   2.106  0.00  0.00    -0.020 A 
ATOM     14  C   LIG    1      -12.239  -0.450   1.798  0.00  0.00    +0.070 A 
ATOM     15  C   LIG    1      -12.188   0.325   0.660  0.00  0.00    -0.200 A 
ENDBRANCH   2   5
BRANCH   1  16
ATOM     16  C   LIG    1       -7.340   0.422   0.039  0.00  0.00    +0.080 C 
BRANCH  16  17
ATOM     17  C   LIG    1       -6.191   1.432   0.039  0.00  0.00    +0.070 C 
BRANCH  17  20
ATOM     18  N   LIG    1       -3.717   1.386   0.027  0.00  0.00    -0.730 N 
ATOM     19  H   LIG    1       -3.731   2.356   0.033  0.00  0.00    +0.410 HD
ATOM     20  C   LIG    1       -4.875   0.697   0.029  0.00  0.00    +0.520 C 
ATOM     21  O   LIG    1       -4.859  -0.516   0.022  0.00  0.00    -0.540 OA
BRANCH  18  22
ATOM     22  C   LIG    1       -2.439   0.671   0.017  0.00  0.00    +0.270 C 
BRANCH  22  23
ATOM     23  C   LIG    1       -1.290   1.681   0.017  0.00  0.00    +0.270 C 
BRANCH  23  26
ATOM     24  C   LIG    1        2.462   0.920  -0.017  0.00  0.00    +0.110 C 
ATOM     25  C   LIG    1        1.147   1.655   0.000  0.00  0.00    +0.510 C 
ATOM     26  N   LIG    1       -0.011   0.966   0.007  0.00  0.00    -0.730 N 
ATOM     27  H   LIG    1        0.002  -0.004   0.002  0.00  0.00    +0.400 HD
ATOM     28  O   LIG    1        1.130   2.868   0.007  0.00  0.00    -0.540 OA
ENDBRANCH  23  26
ENDBRANCH  22  23
ENDBRANCH  18  22
ENDBRANCH  17  20
ENDBRANCH  16  17
ENDBRANCH   1  16
TORSDOF 7
