REMARK  Name = ZINCvU0000000JOv.0
REMARK                            x       y       z     vdW  Elec       q    Type
REMARK                         _______ _______ _______ _____ _____    ______ ____
ROOT
ATOM      1  N   LIG    1        4.212   9.140   0.009  0.00  0.00    -0.510 N 
ATOM      2  C   LIG    1        3.829  10.431   0.019  0.00  0.00    +0.570 A 
ATOM      3  C   LIG    1        2.433  10.739   0.033  0.00  0.00    -0.230 A 
ATOM      4  C   LIG    1        1.532   9.672   0.036  0.00  0.00    +0.080 A 
ATOM      5  S   LIG    1       -0.114  10.295   0.055  0.00  0.00    +0.230 S 
ATOM      6  C   LIG    1        0.461  11.954   0.058  0.00  0.00    -0.160 A 
ATOM      7  N   LIG    1        1.993   8.408   0.021  0.00  0.00    -0.500 NA
ATOM      8  C   LIG    1        1.795  11.989   0.045  0.00  0.00    +0.090 A 
ATOM      9  O   LIG    1        4.660  11.324   0.015  0.00  0.00    -0.510 OA
ATOM     10  C   LIG    1        3.279   8.144   0.013  0.00  0.00    +0.380 A 
ENDROOT
BRANCH   6  11
ATOM     11  C   LIG    1       -0.411  13.146   0.073  0.00  0.00    -0.020 A 
ATOM     12  C   LIG    1        0.149  14.425   0.081  0.00  0.00    +0.030 A 
ATOM     13  C   LIG    1       -0.671  15.534   0.089  0.00  0.00    +0.020 A 
ATOM     14  C   LIG    1       -2.047  15.381   0.102  0.00  0.00    +0.010 A 
ATOM     15  C   LIG    1       -2.608  14.116   0.100  0.00  0.00    +0.020 A 
ATOM     16  C   LIG    1       -1.800  12.999   0.086  0.00  0.00    +0.010 A 
ENDBRANCH   6  11
BRANCH   1  17
ATOM     17  C   LIG    1        5.637   8.803  -0.006  0.00  0.00    +0.340 C 
BRANCH  17  19
ATOM     18  C   LIG    1        7.132   9.409  -1.838  0.00  0.00    +0.070 C 
ATOM     19  C   LIG    1        6.113   8.694  -1.432  0.00  0.00    -0.070 C 
ENDBRANCH  17  19
ENDBRANCH   1  17
BRANCH  10  20
ATOM     20  S   LIG    1        3.812   6.465  -0.001  0.00  0.00    +0.040 S 
BRANCH  20  21
ATOM     21  C   LIG    1        2.209   5.625   0.010  0.00  0.00    +0.120 C 
BRANCH  21  22
ATOM     22  C   LIG    1        2.426   4.111   0.001  0.00  0.00    +0.230 C 
BRANCH  22  23
ATOM     23  O   LIG    1        1.161   3.448   0.009  0.00  0.00    -0.300 OA
BRANCH  23  24
ATOM     24  C   LIG    1        1.176   2.089   0.002  0.00  0.00    +0.170 A 
ATOM     25  C   LIG    1        2.385   1.408  -0.013  0.00  0.00    -0.110 A 
ATOM     26  C   LIG    1        2.401   0.026  -0.021  0.00  0.00    +0.090 A 
ATOM     27  C   LIG    1        1.214  -0.680  -0.013  0.00  0.00    -0.110 A 
ATOM     28  C   LIG    1        0.002  -0.004   0.002  0.00  0.00    +0.170 A 
ATOM     29  C   LIG    1       -0.017   1.382   0.010  0.00  0.00    -0.050 A 
BRANCH  28  30
ATOM     30  O   LIG    1       -1.165  -0.700   0.009  0.00  0.00    -0.310 OA
ATOM     31  C   LIG    1       -1.070  -2.126   0.000  0.00  0.00    +0.250 C 
ENDBRANCH  28  30
ENDBRANCH  23  24
ENDBRANCH  22  23
ENDBRANCH  21  22
ENDBRANCH  20  21
ENDBRANCH  10  20
TORSDOF 9
