REMARK  Name = ZINCkj00000wPh1A.0
REMARK                            x       y       z     vdW  Elec       q    Type
REMARK                         _______ _______ _______ _____ _____    ______ ____
ROOT
ATOM      1  C   LIG    1       -2.321   3.953   0.950  0.00  0.00    +0.180 A 
ATOM      2  N   LIG    1       -3.555   3.567   0.823  0.00  0.00    -0.330 NA
ATOM      3  O   LIG    1       -4.260   4.142   1.626  0.00  0.00    +0.100 OA
ATOM      4  C   LIG    1       -3.519   4.974   2.364  0.00  0.00    +0.110 A 
ATOM      5  N   LIG    1       -2.282   4.857   1.945  0.00  0.00    -0.440 NA
ENDROOT
BRANCH   4   6
ATOM      6  C   LIG    1       -4.011   5.870   3.471  0.00  0.00    +0.230 C 
ATOM      7  C   LIG    1       -3.392   5.445   4.822  0.00  0.00    +0.080 C 
ATOM      8  C   LIG    1       -4.569   5.623   5.814  0.00  0.00    +0.300 C 
ATOM      9  N   LIG    1       -5.749   5.188   5.024  0.00  0.00    -0.510 N 
ATOM     10  H   LIG    1       -5.806   4.181   5.009  0.00  0.00    +0.440 HD
ATOM     11  H   LIG    1       -6.593   5.579   5.414  0.00  0.00    +0.440 HD
ATOM     12  C   LIG    1       -5.531   5.707   3.656  0.00  0.00    +0.320 C 
BRANCH   6  13
ATOM     13  O   LIG    1       -3.691   7.233   3.184  0.00  0.00    -0.520 OA
ATOM     14  H   LIG    1       -2.744   7.401   3.078  0.00  0.00    +0.410 HD
ENDBRANCH   6  13
ENDBRANCH   4   6
BRANCH   1  16
ATOM     15  C   LIG    1       -1.199   4.101  -1.256  0.00  0.00    +0.070 C 
ATOM     16  C   LIG    1       -1.147   3.471   0.137  0.00  0.00    +0.280 C 
BRANCH  16  17
ATOM     17  O   LIG    1       -1.202   2.048   0.019  0.00  0.00    -0.310 OA
BRANCH  17  18
ATOM     18  C   LIG    1       -0.027   1.401  -0.202  0.00  0.00    +0.120 A 
ATOM     19  C   LIG    1        0.012   0.014  -0.211  0.00  0.00    -0.020 A 
ATOM     20  C   LIG    1        1.208  -0.640  -0.430  0.00  0.00    +0.050 A 
ATOM     21  C   LIG    1        2.366   0.085  -0.641  0.00  0.00    -0.020 A 
ATOM     22  C   LIG    1        2.330   1.467  -0.633  0.00  0.00    +0.050 A 
ATOM     23  C   LIG    1        1.136   2.127  -0.414  0.00  0.00    -0.080 A 
ENDBRANCH  17  18
ENDBRANCH  16  17
ENDBRANCH   1  16
TORSDOF 5
