REMARK  Name = ZINCpe000000XH1W.0
REMARK                            x       y       z     vdW  Elec       q    Type
REMARK                         _______ _______ _______ _____ _____    ______ ____
ROOT
ATOM      1  N   LIG    1       -0.791   2.455  -0.316  0.00  0.00    -0.740 N 
ATOM      2  H   LIG    1       -0.647   1.783  -1.000  0.00  0.00    +0.400 HD
ATOM      3  C   LIG    1       -1.420   3.607  -0.624  0.00  0.00    +0.710 C 
ATOM      4  N   LIG    1       -1.849   3.824  -1.883  0.00  0.00    -0.720 N 
ATOM      5  H   LIG    1       -1.706   3.152  -2.567  0.00  0.00    +0.400 HD
ATOM      6  O   LIG    1       -1.601   4.449   0.234  0.00  0.00    -0.590 OA
ENDROOT
BRANCH   1  10
ATOM      7  N   LIG    1        1.639   1.089   2.844  0.00  0.00    -0.470 N 
ATOM      8  C   LIG    1        0.313   0.472   2.719  0.00  0.00    +0.220 C 
ATOM      9  C   LIG    1       -0.233   0.712   1.309  0.00  0.00    +0.030 C 
ATOM     10  C   LIG    1       -0.324   2.219   1.053  0.00  0.00    +0.250 C 
ATOM     11  C   LIG    1        1.061   2.845   1.237  0.00  0.00    +0.030 C 
ATOM     12  C   LIG    1        1.569   2.543   2.648  0.00  0.00    +0.200 C 
BRANCH   7  16
ATOM     13  C   LIG    1        5.385   1.427   6.020  0.00  0.00    +0.140 C 
ATOM     14  C   LIG    1        4.020   0.929   5.619  0.00  0.00    +0.190 A 
ATOM     15  C   LIG    1        3.488   1.261   4.389  0.00  0.00    -0.100 A 
ATOM     16  C   LIG    1        2.218   0.780   4.064  0.00  0.00    +0.360 A 
ATOM     17  N   LIG    1        1.576   0.015   4.941  0.00  0.00    -0.560 NA
ATOM     18  C   LIG    1        2.124  -0.282   6.103  0.00  0.00    +0.350 A 
ATOM     19  C   LIG    1        1.365  -1.152   7.070  0.00  0.00    +0.170 C 
ATOM     20  N   LIG    1        3.318   0.161   6.441  0.00  0.00    -0.540 NA
ENDBRANCH   7  16
ENDBRANCH   1  10
BRANCH   4  21
ATOM     21  C   LIG    1       -2.533   5.075  -2.217  0.00  0.00    +0.260 C 
BRANCH  21  22
ATOM     22  C   LIG    1       -1.512   6.136  -2.537  0.00  0.00    +0.510 C 
ATOM     23  O   LIG    1       -0.393   5.817  -2.880  0.00  0.00    -0.530 OA
ATOM     24  N   LIG    1       -1.841   7.440  -2.441  0.00  0.00    -0.850 N 
ATOM     25  H   LIG    1       -1.165   8.122  -2.575  0.00  0.00    +0.400 HD
ATOM     26  H   LIG    1       -2.755   7.695  -2.238  0.00  0.00    +0.400 HD
ENDBRANCH  21  22
BRANCH  21  27
ATOM     27  C   LIG    1       -3.436   4.854  -3.433  0.00  0.00    -0.010 C 
ATOM     28  C   LIG    1       -4.548   3.869  -3.070  0.00  0.00    +0.030 C 
ATOM     29  C   LIG    1       -2.607   4.285  -4.586  0.00  0.00    +0.030 C 
ENDBRANCH  21  27
ENDBRANCH   4  21
TORSDOF 5
