REMARK  Name = ZINCrg000000twOW.0
REMARK                            x       y       z     vdW  Elec       q    Type
REMARK                         _______ _______ _______ _____ _____    ______ ____
ROOT
ATOM      1  C   LIG    1       -0.014   1.212   0.009  0.00  0.00    +0.600 C 
ATOM      2  N   LIG    1        1.143   1.901   0.001  0.00  0.00    -0.710 N 
ATOM      3  H   LIG    1        1.130   2.871   0.007  0.00  0.00    +0.410 HD
ATOM      4  O   LIG    1        0.002  -0.004   0.002  0.00  0.00    -0.520 OA
ENDROOT
BRANCH   1  10
ATOM      5  O   LIG    1       -4.627   4.119   0.046  0.00  0.00    -0.500 OA
ATOM      6  C   LIG    1       -3.640   3.406   0.038  0.00  0.00    +0.520 A 
ATOM      7  N   LIG    1       -2.401   3.941   0.035  0.00  0.00    -0.460 N 
ATOM      8  H   LIG    1       -2.319   4.908   0.040  0.00  0.00    +0.440 HD
ATOM      9  N   LIG    1       -1.330   3.243   0.026  0.00  0.00    -0.200 NA
ATOM     10  C   LIG    1       -1.303   1.932   0.019  0.00  0.00    +0.060 A 
ATOM     11  C   LIG    1       -2.573   1.188   0.015  0.00  0.00    -0.040 A 
ATOM     12  C   LIG    1       -2.631  -0.201   0.013  0.00  0.00    +0.080 A 
ATOM     13  C   LIG    1       -3.861  -0.827   0.015  0.00  0.00    +0.050 A 
ATOM     14  C   LIG    1       -5.035  -0.086   0.025  0.00  0.00    +0.030 A 
ATOM     15  C   LIG    1       -4.999   1.292   0.033  0.00  0.00    +0.090 A 
ATOM     16  C   LIG    1       -3.769   1.942   0.031  0.00  0.00    -0.140 A 
ENDBRANCH   1  10
BRANCH   2  17
ATOM     17  C   LIG    1        2.422   1.186  -0.015  0.00  0.00    +0.350 C 
BRANCH  17  18
ATOM     18  C   LIG    1        3.554   2.181  -0.020  0.00  0.00    -0.190 A 
ATOM     19  C   LIG    1        4.092   2.637   1.175  0.00  0.00    +0.110 A 
ATOM     20  C   LIG    1        5.130   3.550   1.126  0.00  0.00    -0.050 A 
ATOM     21  C   LIG    1        5.597   3.978  -0.112  0.00  0.00    +0.320 A 
ATOM     22  N   LIG    1        5.057   3.519  -1.231  0.00  0.00    -0.520 NA
ATOM     23  C   LIG    1        4.070   2.643  -1.214  0.00  0.00    +0.310 A 
BRANCH  21  24
ATOM     24  N   LIG    1        6.640   4.895  -0.176  0.00  0.00    -0.480 N 
ATOM     25  C   LIG    1        6.312   6.118   0.571  0.00  0.00    +0.180 C 
ATOM     26  C   LIG    1        7.508   7.074   0.524  0.00  0.00    +0.230 C 
ATOM     27  O   LIG    1        7.841   7.345  -0.840  0.00  0.00    -0.380 OA
ATOM     28  C   LIG    1        8.167   6.176  -1.597  0.00  0.00    +0.230 C 
ATOM     29  C   LIG    1        6.978   5.211  -1.572  0.00  0.00    +0.190 C 
ENDBRANCH  21  24
ENDBRANCH  17  18
ENDBRANCH   2  17
TORSDOF 4
