REMARK  Name = ZINCpk00000KfKHY.0
REMARK                            x       y       z     vdW  Elec       q    Type
REMARK                         _______ _______ _______ _____ _____    ______ ____
ROOT
ATOM      1  C   LIG    1        1.113   2.007  -0.005  0.00  0.00    +0.410 A 
ATOM      2  N   LIG    1       -0.019   1.333  -0.002  0.00  0.00    -0.500 NA
ATOM      3  C   LIG    1        0.004  -0.008  -0.002  0.00  0.00    +0.140 A 
ATOM      4  C   LIG    1       -1.189  -0.748   0.001  0.00  0.00    +0.030 A 
ATOM      5  C   LIG    1       -1.139  -2.110   0.001  0.00  0.00    +0.050 A 
ATOM      6  C   LIG    1        0.080  -2.781  -0.003  0.00  0.00    +0.010 A 
ATOM      7  C   LIG    1        1.257  -2.094  -0.007  0.00  0.00    +0.070 A 
ATOM      8  C   LIG    1        1.244  -0.690  -0.007  0.00  0.00    +0.040 A 
ATOM      9  N   LIG    1        2.389   0.008  -0.010  0.00  0.00    -0.420 NA
ATOM     10  C   LIG    1        2.353   1.324  -0.009  0.00  0.00    +0.240 A 
ENDROOT
BRANCH  10  11
ATOM     11  N   LIG    1        3.537   2.046  -0.013  0.00  0.00    -0.480 N 
ATOM     12  C   LIG    1        4.351   1.717  -1.192  0.00  0.00    +0.170 C 
ATOM     13  C   LIG    1        5.617   2.577  -1.188  0.00  0.00    +0.230 C 
ATOM     14  O   LIG    1        6.327   2.366   0.036  0.00  0.00    -0.380 OA
ATOM     15  C   LIG    1        5.564   2.678   1.205  0.00  0.00    +0.230 C 
ATOM     16  C   LIG    1        4.297   1.818   1.225  0.00  0.00    +0.170 C 
ENDBRANCH  10  11
BRANCH   1  17
ATOM     17  N   LIG    1        1.089   3.393  -0.004  0.00  0.00    -0.690 N 
ATOM     18  H   LIG    1        1.917   3.893  -0.083  0.00  0.00    +0.420 HD
BRANCH  17  23
ATOM     19  C   LIG    1       -3.300   6.991  -0.265  0.00  0.00    +0.290 C 
ATOM     20  N   LIG    1       -2.159   6.075  -0.188  0.00  0.00    -0.610 N 
ATOM     21  C   LIG    1       -1.300   6.151   0.987  0.00  0.00    +0.270 C 
ATOM     22  C   LIG    1        0.054   5.500   0.704  0.00  0.00    +0.030 C 
ATOM     23  C   LIG    1       -0.186   4.104   0.115  0.00  0.00    +0.250 C 
ATOM     24  C   LIG    1       -0.817   4.266  -1.270  0.00  0.00    +0.070 C 
ATOM     25  C   LIG    1       -1.972   5.224  -1.197  0.00  0.00    +0.520 C 
ATOM     26  O   LIG    1       -2.776   5.223  -2.105  0.00  0.00    -0.550 OA
ENDBRANCH  17  23
ENDBRANCH   1  17
TORSDOF 3
