REMARK  Name = ZINCrD00000hQ5Pa.0
REMARK                            x       y       z     vdW  Elec       q    Type
REMARK                         _______ _______ _______ _____ _____    ______ ____
ROOT
ATOM      1  O   LIG    1       -1.765  -1.991  -3.218  0.00  0.00    -0.550 OA
ATOM      2  C   LIG    1       -1.338  -2.604  -2.260  0.00  0.00    +0.650 C 
ATOM      3  N   LIG    1       -1.435  -3.948  -2.222  0.00  0.00    -0.650 N 
ATOM      4  H   LIG    1       -1.165  -4.431  -1.425  0.00  0.00    +0.420 HD
ENDROOT
BRANCH   3   5
ATOM      5  C   LIG    1       -1.925  -4.647  -3.333  0.00  0.00    +0.190 A 
ATOM      6  C   LIG    1       -2.682  -5.796  -3.152  0.00  0.00    +0.030 A 
ATOM      7  C   LIG    1       -3.168  -6.482  -4.248  0.00  0.00    +0.090 A 
ATOM      8  C   LIG    1       -2.891  -6.029  -5.529  0.00  0.00    +0.030 A 
ATOM      9  C   LIG    1       -2.130  -4.883  -5.711  0.00  0.00    +0.050 A 
ATOM     10  C   LIG    1       -1.648  -4.194  -4.616  0.00  0.00    +0.050 A 
BRANCH   8  11
ATOM     11  O   LIG    1       -3.366  -6.707  -6.608  0.00  0.00    -0.660 OA
BRANCH  11  12
ATOM     12  S   LIG    1       -2.425  -7.788  -7.122  0.00  0.00    +2.740 S 
ATOM     13  F   LIG    1       -1.324  -7.062  -8.045  0.00  0.00    -0.480 F 
ATOM     14  O   LIG    1       -3.195  -8.611  -7.988  0.00  0.00    -0.920 OA
ATOM     15  O   LIG    1       -1.731  -8.289  -5.988  0.00  0.00    -0.940 OA
ENDBRANCH  11  12
ENDBRANCH   8  11
ENDBRANCH   3   5
BRANCH   2  16
ATOM     16  O   LIG    1       -0.767  -1.941  -1.236  0.00  0.00    -0.360 OA
BRANCH  16  17
ATOM     17  C   LIG    1       -0.697  -0.495  -1.345  0.00  0.00    +0.260 C 
BRANCH  17  18
ATOM     18  C   LIG    1       -0.022   0.079  -0.098  0.00  0.00    -0.010 C 
ATOM     19  C   LIG    1        1.477  -0.299  -0.078  0.00  0.00    +0.040 C 
ATOM     20  C   LIG    1        2.151   0.988   0.461  0.00  0.00    +0.180 C 
ATOM     21  N   LIG    1        1.357   2.076  -0.166  0.00  0.00    -0.480 N 
ATOM     22  C   LIG    1       -0.049   1.618  -0.135  0.00  0.00    +0.200 C 
BRANCH  21  23
ATOM     23  C   LIG    1        1.509   3.274   0.535  0.00  0.00    +0.080 A 
ATOM     24  C   LIG    1        1.087   3.367   1.855  0.00  0.00    -0.030 A 
ATOM     25  C   LIG    1        1.243   4.552   2.547  0.00  0.00    +0.010 A 
ATOM     26  C   LIG    1        1.809   5.649   1.923  0.00  0.00    +0.000 A 
ATOM     27  C   LIG    1        2.225   5.562   0.608  0.00  0.00    +0.020 A 
ATOM     28  C   LIG    1        2.077   4.378  -0.088  0.00  0.00    +0.040 A 
ENDBRANCH  21  23
ENDBRANCH  17  18
ENDBRANCH  16  17
ENDBRANCH   2  16
TORSDOF 7
