REMARK  Name = ZINCtV000002OfB2.0
REMARK                            x       y       z     vdW  Elec       q    Type
REMARK                         _______ _______ _______ _____ _____    ______ ____
ROOT
ATOM      1  O   LIG    1        0.752   2.314   0.409  0.00  0.00    -0.510 OA
ATOM      2  C   LIG    1        0.908   1.112   0.448  0.00  0.00    +0.530 C 
ATOM      3  N   LIG    1       -0.161   0.292   0.424  0.00  0.00    -0.670 N 
ATOM      4  H   LIG    1       -0.036  -0.666   0.349  0.00  0.00    +0.410 HD
ENDROOT
BRANCH   3   5
ATOM      5  C   LIG    1       -1.454   0.826   0.503  0.00  0.00    +0.100 A 
ATOM      6  C   LIG    1       -1.712   2.097   0.007  0.00  0.00    +0.060 A 
ATOM      7  C   LIG    1       -2.988   2.621   0.081  0.00  0.00    -0.060 A 
ATOM      8  C   LIG    1       -4.010   1.881   0.658  0.00  0.00    +0.120 A 
ATOM      9  C   LIG    1       -3.752   0.613   1.158  0.00  0.00    +0.010 A 
ATOM     10  C   LIG    1       -2.478   0.086   1.081  0.00  0.00    +0.030 A 
BRANCH   8  11
ATOM     11  O   LIG    1       -5.264   2.400   0.736  0.00  0.00    -0.310 OA
BRANCH  11  12
ATOM     12  C   LIG    1       -5.458   3.711   0.202  0.00  0.00    +0.240 C 
BRANCH  12  13
ATOM     13  C   LIG    1       -6.899   4.116   0.375  0.00  0.00    -0.100 A 
ATOM     14  C   LIG    1       -7.821   3.833  -0.616  0.00  0.00    +0.020 A 
ATOM     15  C   LIG    1       -9.144   4.200  -0.455  0.00  0.00    +0.010 A 
ATOM     16  C   LIG    1       -9.543   4.859   0.692  0.00  0.00    +0.010 A 
ATOM     17  C   LIG    1       -8.621   5.147   1.681  0.00  0.00    +0.010 A 
ATOM     18  C   LIG    1       -7.299   4.775   1.522  0.00  0.00    +0.020 A 
ENDBRANCH  12  13
ENDBRANCH  11  12
ENDBRANCH   8  11
ENDBRANCH   3   5
BRANCH   2  19
ATOM     19  C   LIG    1        2.298   0.534   0.524  0.00  0.00    -0.040 C 
ATOM     20  C   LIG    1        2.315  -0.676   1.474  0.00  0.00    +0.030 C 
ATOM     21  C   LIG    1        3.298  -0.329   2.612  0.00  0.00    +0.020 C 
ATOM     22  C   LIG    1        3.334   1.220   2.623  0.00  0.00    +0.010 C 
ATOM     23  C   LIG    1        3.271   1.574   1.117  0.00  0.00    +0.060 C 
BRANCH  19  24
ATOM     24  C   LIG    1        2.760   0.120  -0.850  0.00  0.00    -0.070 A 
ATOM     25  C   LIG    1        3.965  -0.541  -1.003  0.00  0.00    +0.050 A 
ATOM     26  C   LIG    1        4.386  -0.926  -2.262  0.00  0.00    +0.040 A 
ATOM     27  C   LIG    1        3.607  -0.641  -3.369  0.00  0.00    -0.030 A 
ATOM     28  C   LIG    1        2.404   0.025  -3.215  0.00  0.00    +0.040 A 
ATOM     29 CL   LIG    1        4.139  -1.119  -4.951  0.00  0.00    -0.070 Cl
ATOM     30  C   LIG    1        1.981   0.405  -1.956  0.00  0.00    +0.020 A 
ENDBRANCH  19  24
ENDBRANCH   2  19
TORSDOF 6
