REMARK  Name = ZINCrH00000No4Q8.0
REMARK                            x       y       z     vdW  Elec       q    Type
REMARK                         _______ _______ _______ _____ _____    ______ ____
ROOT
ATOM      1  O   LIG    1       -1.758  -1.167   1.481  0.00  0.00    -0.520 OA
ATOM      2  C   LIG    1       -2.542  -0.410   2.023  0.00  0.00    +0.560 C 
ATOM      3  N   LIG    1       -2.926   0.722   1.401  0.00  0.00    -0.590 N 
ENDROOT
BRANCH   3   4
ATOM      4  C   LIG    1       -3.784   1.685   2.096  0.00  0.00    +0.270 C 
ATOM      5  C   LIG    1       -3.152   2.078   3.443  0.00  0.00    +0.060 C 
ATOM      6  C   LIG    1       -4.212   2.807   4.292  0.00  0.00    -0.290 C 
ATOM      7  S   LIG    1       -5.819   2.140   3.725  0.00  0.00    +2.380 S 
ATOM      8  O   LIG    1       -6.393   1.354   4.760  0.00  0.00    -0.930 OA
ATOM      9  O   LIG    1       -6.574   3.182   3.122  0.00  0.00    -0.920 OA
ATOM     10  C   LIG    1       -5.155   1.037   2.421  0.00  0.00    -0.330 C 
ENDBRANCH   3   4
BRANCH   2  11
ATOM     11  C   LIG    1       -3.068  -0.730   3.351  0.00  0.00    -0.110 C 
ATOM     12  C   LIG    1       -2.609  -1.809   4.017  0.00  0.00    +0.140 C 
BRANCH  12  13
ATOM     13  C   LIG    1       -3.138  -2.131   5.352  0.00  0.00    -0.080 A 
ATOM     14  C   LIG    1       -4.112  -1.316   5.936  0.00  0.00    +0.040 A 
ATOM     15  C   LIG    1       -4.606  -1.625   7.185  0.00  0.00    +0.030 A 
ATOM     16  C   LIG    1       -4.132  -2.735   7.866  0.00  0.00    -0.020 A 
ATOM     17  C   LIG    1       -3.163  -3.544   7.295  0.00  0.00    +0.030 A 
ATOM     18 CL   LIG    1       -4.755  -3.113   9.441  0.00  0.00    -0.060 Cl
ATOM     19  C   LIG    1       -2.664  -3.249   6.045  0.00  0.00    +0.060 A 
ENDBRANCH  12  13
ENDBRANCH   2  11
BRANCH   3  20
ATOM     20  C   LIG    1       -2.485   0.990   0.030  0.00  0.00    +0.350 C 
BRANCH  20  21
ATOM     21  C   LIG    1       -1.183   1.747   0.060  0.00  0.00    -0.080 A 
ATOM     22  C   LIG    1       -1.187   3.129   0.088  0.00  0.00    +0.010 A 
ATOM     23  C   LIG    1        0.007   3.825   0.110  0.00  0.00    +0.040 A 
ATOM     24  C   LIG    1        1.207   3.140   0.109  0.00  0.00    -0.010 A 
ATOM     25  C   LIG    1        1.213   1.755   0.086  0.00  0.00    +0.100 A 
ATOM     26  F   LIG    1        2.385   1.084   0.086  0.00  0.00    -0.140 F 
ATOM     27  C   LIG    1        0.016   1.059   0.065  0.00  0.00    +0.010 A 
ENDBRANCH  20  21
ENDBRANCH   3  20
TORSDOF 5
