REMARK  Name = ZINCpk00000y6uDf.0
REMARK                            x       y       z     vdW  Elec       q    Type
REMARK                         _______ _______ _______ _____ _____    ______ ____
ROOT
ATOM      1  N   LIG    1       -0.018   1.470   0.010  0.00  0.00    -1.010 NA
ATOM      2  C   LIG    1        1.368   1.960  -0.001  0.00  0.00    +0.280 C 
ATOM      3  C   LIG    1        2.292   0.724   0.011  0.00  0.00    +0.010 C 
ATOM      4  C   LIG    1        1.380  -0.385   0.599  0.00  0.00    +0.080 C 
ATOM      5  C   LIG    1        0.002  -0.004   0.002  0.00  0.00    +0.290 C 
ENDROOT
BRANCH   4   6
ATOM      6  C   LIG    1        1.815  -1.749   0.127  0.00  0.00    -0.230 A 
ATOM      7  C   LIG    1        2.104  -2.809   0.915  0.00  0.00    +0.230 A 
ATOM      8  N   LIG    1        2.448  -3.837   0.111  0.00  0.00    -0.370 N 
ATOM      9  N   LIG    1        2.376  -3.391  -1.215  0.00  0.00    -0.290 NA
ATOM     10  C   LIG    1        2.835  -5.181   0.548  0.00  0.00    +0.360 C 
ATOM     11  C   LIG    1        1.996  -2.139  -1.204  0.00  0.00    +0.240 A 
ENDBRANCH   4   6
BRANCH   1  12
ATOM     12  S   LIG    1       -1.377   2.417   0.022  0.00  0.00    +2.710 S 
ATOM     13  O   LIG    1       -2.423   1.624  -0.522  0.00  0.00    -0.940 OA
ATOM     14  O   LIG    1       -0.994   3.674  -0.518  0.00  0.00    -0.940 OA
BRANCH  12  18
ATOM     15  C   LIG    1       -2.003   5.612   4.110  0.00  0.00    +0.120 C 
ATOM     16  C   LIG    1       -2.067   4.215   3.548  0.00  0.00    -0.150 A 
ATOM     17  C   LIG    1       -1.738   3.986   2.225  0.00  0.00    +0.200 A 
ATOM     18  C   LIG    1       -1.796   2.706   1.709  0.00  0.00    -0.730 A 
ATOM     19  C   LIG    1       -2.190   1.651   2.514  0.00  0.00    +0.220 A 
ATOM     20  C   LIG    1       -2.515   1.877   3.841  0.00  0.00    -0.050 A 
ATOM     21  F   LIG    1       -2.252   0.400   2.007  0.00  0.00    -0.110 F 
ATOM     22  C   LIG    1       -2.456   3.160   4.357  0.00  0.00    +0.180 A 
ATOM     23  F   LIG    1       -2.779   3.384   5.650  0.00  0.00    -0.120 F 
ENDBRANCH  12  18
ENDBRANCH   1  12
BRANCH   3  24
ATOM     24  C   LIG    1        3.504   0.963   0.914  0.00  0.00    +0.190 C 
BRANCH  24  25
ATOM     25  O   LIG    1        4.383   1.902   0.292  0.00  0.00    -0.570 OA
ATOM     26  H   LIG    1        5.175   2.102   0.809  0.00  0.00    +0.380 HD
ENDBRANCH  24  25
ENDBRANCH   3  24
TORSDOF 5
