REMARK  Name = ZINCtV00000AXWJp.0
REMARK                            x       y       z     vdW  Elec       q    Type
REMARK                         _______ _______ _______ _____ _____    ______ ____
ROOT
ATOM      1  C   LIG    1        6.066   2.097   0.285  0.00  0.00    +0.200 A 
ATOM      2  C   LIG    1        6.037   3.481   0.382  0.00  0.00    +0.040 A 
ATOM      3  C   LIG    1        7.212   4.204   0.317  0.00  0.00    +0.090 A 
ATOM      4  C   LIG    1        8.425   3.556   0.141  0.00  0.00    -0.110 A 
ATOM      5  C   LIG    1        8.473   2.182   0.036  0.00  0.00    +0.110 A 
ATOM      6 BR   LIG    1       10.024   4.563   0.046  0.00  0.00    -0.040 Br
ATOM      7  C   LIG    1        7.293   1.437   0.107  0.00  0.00    -0.170 A 
ENDROOT
BRANCH   1  10
ATOM      8  O   LIG    1        3.734   2.997  -0.621  0.00  0.00    -0.500 OA
ATOM      9  C   LIG    1        3.728   1.909  -0.077  0.00  0.00    +0.570 C 
ATOM     10  N   LIG    1        4.883   1.366   0.357  0.00  0.00    -0.670 N 
ATOM     11  H   LIG    1        4.890   0.467   0.719  0.00  0.00    +0.410 HD
BRANCH   9  12
ATOM     12  C   LIG    1        2.458   1.184   0.106  0.00  0.00    -0.140 A 
ATOM     13  C   LIG    1        2.447  -0.108   0.614  0.00  0.00    +0.060 A 
ATOM     14  C   LIG    1        1.249  -0.789   0.786  0.00  0.00    -0.010 A 
ATOM     15  C   LIG    1        0.051  -0.227   0.469  0.00  0.00    +0.070 A 
ATOM     16  C   LIG    1       -0.013   1.078  -0.050  0.00  0.00    -0.060 A 
ATOM     17  C   LIG    1       -1.242   1.675  -0.377  0.00  0.00    +0.020 A 
ATOM     18  C   LIG    1       -1.263   2.939  -0.884  0.00  0.00    +0.020 A 
ATOM     19  C   LIG    1       -0.084   3.656  -1.071  0.00  0.00    +0.020 A 
ATOM     20  C   LIG    1        1.125   3.110  -0.759  0.00  0.00    +0.040 A 
ATOM     21  C   LIG    1        1.185   1.810  -0.242  0.00  0.00    -0.010 A 
ENDBRANCH   9  12
ENDBRANCH   1  10
BRANCH   7  22
ATOM     22  C   LIG    1        7.336  -0.032  -0.005  0.00  0.00    +0.440 C 
ATOM     23  O   LIG    1        7.696  -0.704   0.943  0.00  0.00    -0.410 OA
BRANCH  22  24
ATOM     24  C   LIG    1        6.941  -0.689  -1.268  0.00  0.00    -0.170 A 
ATOM     25  C   LIG    1        6.637   0.081  -2.393  0.00  0.00    +0.090 A 
ATOM     26  C   LIG    1        6.270  -0.539  -3.570  0.00  0.00    +0.010 A 
ATOM     27  C   LIG    1        6.202  -1.919  -3.637  0.00  0.00    +0.070 A 
ATOM     28  C   LIG    1        6.502  -2.689  -2.527  0.00  0.00    +0.020 A 
ATOM     29  C   LIG    1        6.876  -2.083  -1.345  0.00  0.00    +0.010 A 
ATOM     30 CL   LIG    1        7.259  -3.050   0.046  0.00  0.00    -0.030 Cl
ENDBRANCH  22  24
ENDBRANCH   7  22
TORSDOF 4
