REMARK  Name = ZINCvU0000000Hd0.0
REMARK                            x       y       z     vdW  Elec       q    Type
REMARK                         _______ _______ _______ _____ _____    ______ ____
ROOT
ATOM      1  O   LIG    1       -2.692  -1.643   2.381  0.00  0.00    -0.530 OA
ATOM      2  C   LIG    1       -2.277  -0.546   2.709  0.00  0.00    +0.550 C 
ATOM      3  N   LIG    1       -1.179  -0.035   2.117  0.00  0.00    -0.650 N 
ATOM      4  H   LIG    1       -0.811   0.808   2.423  0.00  0.00    +0.420 HD
ENDROOT
BRANCH   3   5
ATOM      5  C   LIG    1       -0.570  -0.723   1.059  0.00  0.00    +0.170 A 
ATOM      6  C   LIG    1       -0.553  -2.109   1.050  0.00  0.00    +0.090 A 
ATOM      7  C   LIG    1        0.053  -2.786   0.008  0.00  0.00    -0.170 A 
ATOM      8  C   LIG    1        0.639  -2.085  -1.030  0.00  0.00    +0.060 A 
ATOM      9  C   LIG    1        0.621  -0.702  -1.032  0.00  0.00    +0.010 A 
ATOM     10  C   LIG    1        0.016  -0.015   0.009  0.00  0.00    +0.090 A 
BRANCH  10  11
ATOM     11  N   LIG    1       -0.003   1.384   0.010  0.00  0.00    -0.500 N 
ATOM     12  C   LIG    1       -0.784   1.900  -1.121  0.00  0.00    +0.180 C 
ATOM     13  C   LIG    1       -0.905   3.422  -1.007  0.00  0.00    +0.020 C 
ATOM     14  C   LIG    1        0.496   4.041  -1.005  0.00  0.00    +0.010 C 
ATOM     15  C   LIG    1        1.304   3.450   0.153  0.00  0.00    +0.020 C 
ATOM     16  C   LIG    1        1.361   1.928   0.006  0.00  0.00    +0.180 C 
ENDBRANCH  10  11
BRANCH   7  17
ATOM     17  C   LIG    1        0.075  -4.293   0.003  0.00  0.00    +0.510 C 
ATOM     18  F   LIG    1       -1.237  -4.779   0.005  0.00  0.00    -0.170 F 
ATOM     19  F   LIG    1        0.746  -4.754   1.141  0.00  0.00    -0.180 F 
ATOM     20  F   LIG    1        0.738  -4.746  -1.144  0.00  0.00    -0.180 F 
ENDBRANCH   7  17
ENDBRANCH   3   5
BRANCH   2  21
ATOM     21  C   LIG    1       -2.944   0.190   3.709  0.00  0.00    -0.060 C 
ATOM     22  C   LIG    1       -4.053  -0.326   4.308  0.00  0.00    +0.160 C 
BRANCH  22  23
ATOM     23  C   LIG    1       -4.721   0.410   5.307  0.00  0.00    -0.060 A 
ATOM     24  C   LIG    1       -4.148   1.010   6.424  0.00  0.00    +0.150 A 
ATOM     25  N   LIG    1       -5.110   1.602   7.113  0.00  0.00    -0.480 NA
ATOM     26  C   LIG    1       -6.282   1.419   6.504  0.00  0.00    +0.250 A 
ATOM     27  C   LIG    1       -7.582   1.842   6.830  0.00  0.00    +0.080 A 
ATOM     28  C   LIG    1       -8.620   1.506   6.012  0.00  0.00    +0.060 A 
ATOM     29  C   LIG    1       -8.376   0.746   4.860  0.00  0.00    +0.030 A 
ATOM     30  C   LIG    1       -7.118   0.348   4.563  0.00  0.00    +0.230 A 
ATOM     31 CL   LIG    1       -2.463   0.987   6.841  0.00  0.00    +0.020 Cl
ATOM     32  N   LIG    1       -6.076   0.684   5.370  0.00  0.00    -0.340 N 
ENDBRANCH  22  23
ENDBRANCH   2  21
TORSDOF 5
