REMARK  Name = ZINCrD000000C7q5.0
REMARK                            x       y       z     vdW  Elec       q    Type
REMARK                         _______ _______ _______ _____ _____    ______ ____
ROOT
ATOM      1  C   LIG    1        2.691   9.312   0.195  0.00  0.00    +0.160 A 
ATOM      2  C   LIG    1        1.537  10.079   0.288  0.00  0.00    +0.010 A 
ATOM      3  C   LIG    1        0.298   9.467   0.298  0.00  0.00    +0.050 A 
ATOM      4  C   LIG    1        0.203   8.092   0.216  0.00  0.00    -0.020 A 
ATOM      5  C   LIG    1        1.353   7.318   0.124  0.00  0.00    +0.160 A 
ATOM      6  C   LIG    1        2.599   7.929   0.119  0.00  0.00    +0.000 A 
ENDROOT
BRANCH   1   9
ATOM      7  O   LIG    1        3.237  11.541   1.543  0.00  0.00    -0.510 OA
ATOM      8  C   LIG    1        4.157  11.035   0.929  0.00  0.00    +0.570 C 
ATOM      9  N   LIG    1        3.945   9.931   0.185  0.00  0.00    -0.670 N 
ATOM     10  H   LIG    1        4.662   9.567  -0.357  0.00  0.00    +0.410 HD
BRANCH   8  11
ATOM     11  C   LIG    1        5.506  11.630   0.999  0.00  0.00    -0.130 A 
ATOM     12  C   LIG    1        6.564  11.050   0.295  0.00  0.00    +0.070 A 
ATOM     13  C   LIG    1        7.823  11.607   0.361  0.00  0.00    +0.040 A 
ATOM     14  C   LIG    1        8.044  12.744   1.127  0.00  0.00    +0.070 A 
ATOM     15  O   LIG    1        9.175  13.472   1.351  0.00  0.00    -0.300 OA
ATOM     16  C   LIG    1        8.898  14.263   2.522  0.00  0.00    +0.440 C 
ATOM     17  O   LIG    1        7.467  14.421   2.499  0.00  0.00    -0.300 OA
ATOM     18  C   LIG    1        6.992  13.327   1.833  0.00  0.00    +0.020 A 
ATOM     19  C   LIG    1        5.727  12.778   1.765  0.00  0.00    +0.110 A 
ENDBRANCH   8  11
ENDBRANCH   1   9
BRANCH   5  20
ATOM     20  N   LIG    1        1.256   5.926   0.041  0.00  0.00    -0.650 N 
ATOM     21  H   LIG    1        0.541   5.462   0.503  0.00  0.00    +0.420 HD
ATOM     22  C   LIG    1        2.156   5.229  -0.681  0.00  0.00    +0.580 C 
ATOM     23  O   LIG    1        2.996   5.816  -1.335  0.00  0.00    -0.510 OA
BRANCH  22  24
ATOM     24  C   LIG    1        2.121   3.748  -0.677  0.00  0.00    +0.070 A 
ATOM     25  C   LIG    1        3.054   3.034  -1.425  0.00  0.00    +0.040 A 
ATOM     26  C   LIG    1        3.013   1.648  -1.407  0.00  0.00    +0.070 A 
ATOM     27  C   LIG    1        2.032   1.026  -0.650  0.00  0.00    +0.000 A 
ATOM     28  C   LIG    1        1.136   1.800   0.070  0.00  0.00    +0.270 A 
ATOM     29  N   LIG    1        1.201   3.113   0.039  0.00  0.00    -0.460 NA
ENDBRANCH  22  24
ENDBRANCH   5  20
TORSDOF 4
