REMARK  Name = ZINCrH000004sz50.0
REMARK                            x       y       z     vdW  Elec       q    Type
REMARK                         _______ _______ _______ _____ _____    ______ ____
ROOT
ATOM      1  C   LIG    1        2.500   1.262  -0.481  0.00  0.00    +0.570 C 
ATOM      2  N   LIG    1        2.601  -0.074  -0.624  0.00  0.00    -0.700 N 
ATOM      3  H   LIG    1        1.809  -0.630  -0.561  0.00  0.00    +0.400 HD
ATOM      4  O   LIG    1        3.492   1.959  -0.559  0.00  0.00    -0.520 OA
ENDROOT
BRANCH   1  16
ATOM      5  C   LIG    1        2.341   4.087   0.095  0.00  0.00    +0.160 C 
ATOM      6  C   LIG    1        1.085   3.254   0.054  0.00  0.00    +0.220 A 
ATOM      7  N   LIG    1       -0.069   3.827   0.281  0.00  0.00    -0.480 NA
ATOM      8  C   LIG    1       -1.214   3.135   0.257  0.00  0.00    +0.150 A 
ATOM      9  C   LIG    1       -2.443   3.770   0.504  0.00  0.00    +0.070 A 
ATOM     10  C   LIG    1       -3.598   3.051   0.460  0.00  0.00    +0.060 A 
ATOM     11  C   LIG    1       -3.584   1.683   0.188  0.00  0.00    -0.040 A 
ATOM     12  C   LIG    1       -2.412   1.031  -0.052  0.00  0.00    +0.060 A 
ATOM     13 CL   LIG    1       -5.078   0.800   0.154  0.00  0.00    -0.060 Cl
ATOM     14  C   LIG    1       -1.202   1.746  -0.024  0.00  0.00    -0.110 A 
ATOM     15  C   LIG    1        0.026   1.107  -0.266  0.00  0.00    +0.130 A 
ATOM     16  C   LIG    1        1.181   1.880  -0.228  0.00  0.00    -0.180 A 
ENDBRANCH   1  16
BRANCH   2  17
ATOM     17  C   LIG    1        3.908  -0.687  -0.875  0.00  0.00    +0.350 C 
BRANCH  17  18
ATOM     18  C   LIG    1        3.748  -2.180  -0.995  0.00  0.00    -0.160 A 
ATOM     19  C   LIG    1        4.053  -3.006   0.073  0.00  0.00    +0.120 A 
ATOM     20  C   LIG    1        3.885  -4.376  -0.081  0.00  0.00    -0.030 A 
ATOM     21  C   LIG    1        3.434  -4.870  -1.289  0.00  0.00    +0.310 A 
ATOM     22  N   LIG    1        3.157  -4.058  -2.291  0.00  0.00    -0.500 NA
ATOM     23  C   LIG    1        3.298  -2.747  -2.181  0.00  0.00    +0.380 A 
BRANCH  23  24
ATOM     24  N   LIG    1        2.992  -1.924  -3.270  0.00  0.00    -0.330 N 
ATOM     25  C   LIG    1        3.014  -2.287  -4.578  0.00  0.00    +0.260 A 
ATOM     26  C   LIG    1        2.653  -1.207  -5.309  0.00  0.00    -0.100 A 
ATOM     27  C   LIG    1        2.413  -0.149  -4.425  0.00  0.00    +0.250 A 
ATOM     28  N   LIG    1        2.615  -0.577  -3.205  0.00  0.00    -0.270 NA
ENDBRANCH  23  24
ENDBRANCH  17  18
ENDBRANCH   2  17
TORSDOF 4
