REMARK  Name = ZINCtV000002OwRj.0
REMARK                            x       y       z     vdW  Elec       q    Type
REMARK                         _______ _______ _______ _____ _____    ______ ____
ROOT
ATOM      1  O   LIG    1       -2.566   4.714  -0.204  0.00  0.00    -0.510 OA
ATOM      2  C   LIG    1       -2.834   3.994  -1.146  0.00  0.00    +0.570 C 
ATOM      3  N   LIG    1       -4.121   3.710  -1.431  0.00  0.00    -0.670 N 
ATOM      4  H   LIG    1       -4.342   3.227  -2.243  0.00  0.00    +0.410 HD
ENDROOT
BRANCH   2   5
ATOM      5  C   LIG    1       -1.752   3.431  -1.977  0.00  0.00    -0.130 A 
ATOM      6  C   LIG    1       -2.064   2.604  -3.065  0.00  0.00    +0.030 A 
ATOM      7  C   LIG    1       -1.075   2.074  -3.836  0.00  0.00    +0.070 A 
ATOM      8  C   LIG    1        0.266   2.360  -3.553  0.00  0.00    +0.080 A 
ATOM      9  N   LIG    1        1.438   1.994  -4.127  0.00  0.00    -0.490 NA
ATOM     10  C   LIG    1        2.431   2.533  -3.479  0.00  0.00    +0.490 A 
ATOM     11  N   LIG    1        1.965   3.282  -2.446  0.00  0.00    -0.460 N 
ATOM     12  C   LIG    1        0.586   3.193  -2.464  0.00  0.00    +0.040 A 
ATOM     13  C   LIG    1       -0.422   3.725  -1.680  0.00  0.00    +0.110 A 
BRANCH  11  14
ATOM     14  C   LIG    1        2.774   4.043  -1.490  0.00  0.00    +0.190 C 
ATOM     15  C   LIG    1        4.272   4.169  -1.775  0.00  0.00    +0.060 C 
ATOM     16  C   LIG    1        3.781   3.265  -0.641  0.00  0.00    +0.030 C 
ENDBRANCH  11  14
ENDBRANCH   2   5
BRANCH   3  17
ATOM     17  C   LIG    1       -5.136   4.112  -0.558  0.00  0.00    +0.170 A 
ATOM     18  C   LIG    1       -4.979   5.259   0.210  0.00  0.00    +0.030 A 
ATOM     19  C   LIG    1       -5.983   5.656   1.072  0.00  0.00    +0.060 A 
ATOM     20  C   LIG    1       -7.144   4.914   1.175  0.00  0.00    -0.030 A 
ATOM     21  C   LIG    1       -7.306   3.767   0.410  0.00  0.00    +0.100 A 
ATOM     22  C   LIG    1       -6.304   3.368  -0.461  0.00  0.00    -0.010 A 
BRANCH  21  23
ATOM     23  O   LIG    1       -8.448   3.038   0.512  0.00  0.00    -0.250 OA
BRANCH  23  24
ATOM     24  C   LIG    1       -8.718   2.437   1.700  0.00  0.00    +0.140 A 
ATOM     25  C   LIG    1       -7.779   2.463   2.721  0.00  0.00    -0.050 A 
ATOM     26  C   LIG    1       -8.057   1.855   3.930  0.00  0.00    +0.090 A 
ATOM     27  C   LIG    1       -9.267   1.212   4.120  0.00  0.00    -0.120 A 
ATOM     28  C   LIG    1      -10.203   1.180   3.101  0.00  0.00    +0.090 A 
ATOM     29 BR   LIG    1       -9.642   0.375   5.773  0.00  0.00    -0.050 Br
ATOM     30  C   LIG    1       -9.931   1.790   1.893  0.00  0.00    +0.000 A 
ENDBRANCH  23  24
ENDBRANCH  21  23
ENDBRANCH   3  17
TORSDOF 5
