REMARK  Name = ZINCtV00001bB3tP.0
REMARK                            x       y       z     vdW  Elec       q    Type
REMARK                         _______ _______ _______ _____ _____    ______ ____
ROOT
ATOM      1  C   LIG    1       -0.043   1.477  -0.069  0.00  0.00    +0.150 A 
ATOM      2  C   LIG    1       -1.182   2.169   0.060  0.00  0.00    -0.030 A 
ATOM      3  S   LIG    1       -0.702   3.873   0.142  0.00  0.00    -0.000 S 
ATOM      4  C   LIG    1        1.033   3.542  -0.015  0.00  0.00    +0.390 A 
ATOM      5  N   LIG    1        2.018   4.419  -0.033  0.00  0.00    -0.520 NA
ATOM      6  N   LIG    1        1.129   2.183  -0.113  0.00  0.00    -0.500 N 
ENDROOT
BRANCH   1  13
ATOM      7  F   LIG    1       -1.178   0.115  -2.262  0.00  0.00    -0.130 F 
ATOM      8  C   LIG    1       -0.626  -0.625  -1.276  0.00  0.00    +0.130 A 
ATOM      9  C   LIG    1       -0.630  -2.004  -1.359  0.00  0.00    -0.010 A 
ATOM     10  C   LIG    1       -0.065  -2.763  -0.349  0.00  0.00    +0.070 A 
ATOM     11  C   LIG    1        0.505  -2.147   0.750  0.00  0.00    +0.010 A 
ATOM     12  C   LIG    1        0.520  -0.771   0.845  0.00  0.00    +0.070 A 
ATOM     13  C   LIG    1       -0.051   0.002  -0.167  0.00  0.00    -0.080 A 
ENDBRANCH   1  13
BRANCH   5  14
ATOM     14  C   LIG    1        1.746   5.756   0.077  0.00  0.00    +0.100 A 
ATOM     15  C   LIG    1        0.710   6.324  -0.668  0.00  0.00    +0.010 A 
ATOM     16  C   LIG    1        0.437   7.671  -0.550  0.00  0.00    -0.030 A 
ATOM     17  C   LIG    1        1.196   8.464   0.300  0.00  0.00    +0.090 A 
ATOM     18  C   LIG    1        2.230   7.905   1.038  0.00  0.00    +0.030 A 
ATOM     19  C   LIG    1        2.507   6.558   0.930  0.00  0.00    +0.060 A 
BRANCH  17  20
ATOM     20  O   LIG    1        0.926   9.792   0.409  0.00  0.00    -0.320 OA
BRANCH  20  21
ATOM     21  C   LIG    1       -0.151  10.302  -0.379  0.00  0.00    +0.590 C 
ATOM     22  F   LIG    1       -1.337   9.648  -0.028  0.00  0.00    -0.200 F 
ATOM     23  F   LIG    1        0.118  10.083  -1.735  0.00  0.00    -0.200 F 
ENDBRANCH  20  21
ENDBRANCH  17  20
ENDBRANCH   5  14
BRANCH   6  24
ATOM     24  C   LIG    1        2.424   1.514  -0.258  0.00  0.00    +0.250 C 
ATOM     25  C   LIG    1        3.293   1.815   0.965  0.00  0.00    +0.020 C 
ATOM     26  C   LIG    1        4.646   1.115   0.814  0.00  0.00    +0.020 C 
ATOM     27  C   LIG    1        5.346   1.625  -0.448  0.00  0.00    +0.010 C 
ATOM     28  C   LIG    1        4.476   1.325  -1.671  0.00  0.00    +0.020 C 
ATOM     29  C   LIG    1        3.124   2.024  -1.519  0.00  0.00    +0.020 C 
ENDBRANCH   6  24
TORSDOF 5
