REMARK  Name = ZINCqH00000518VY.0
REMARK                            x       y       z     vdW  Elec       q    Type
REMARK                         _______ _______ _______ _____ _____    ______ ____
ROOT
ATOM      1  O   LIG    1       -2.338   5.297   0.856  0.00  0.00    -0.530 OA
ATOM      2  C   LIG    1       -1.713   4.408   1.395  0.00  0.00    +0.540 C 
ATOM      3  N   LIG    1       -1.518   3.238   0.755  0.00  0.00    -0.630 N 
ATOM      4  C   LIG    1       -0.785   2.045   1.246  0.00  0.00    +0.280 C 
ATOM      5  C   LIG    1       -0.019   1.526   0.010  0.00  0.00    -0.010 C 
ATOM      6  C   LIG    1       -0.808   2.058  -1.204  0.00  0.00    +0.040 C 
ATOM      7  C   LIG    1       -1.984   2.853  -0.597  0.00  0.00    +0.280 C 
ENDROOT
BRANCH   6   8
ATOM      8  C   LIG    1        0.061   2.964  -2.037  0.00  0.00    -0.050 A 
ATOM      9  C   LIG    1        0.317   2.651  -3.359  0.00  0.00    +0.010 A 
ATOM     10  C   LIG    1        1.115   3.481  -4.125  0.00  0.00    +0.040 A 
ATOM     11  C   LIG    1        1.657   4.625  -3.570  0.00  0.00    -0.010 A 
ATOM     12  C   LIG    1        1.401   4.939  -2.246  0.00  0.00    +0.100 A 
ATOM     13  F   LIG    1        1.930   6.057  -1.702  0.00  0.00    -0.140 F 
ATOM     14  C   LIG    1        0.598   4.110  -1.481  0.00  0.00    -0.010 A 
ENDBRANCH   6   8
BRANCH   5  15
ATOM     15  C   LIG    1        0.002  -0.004   0.002  0.00  0.00    +0.180 C 
BRANCH  15  16
ATOM     16  O   LIG    1        0.805  -0.475   1.086  0.00  0.00    -0.570 OA
ATOM     17  H   LIG    1        0.863  -1.439   1.142  0.00  0.00    +0.380 HD
ENDBRANCH  15  16
ENDBRANCH   5  15
BRANCH   2  18
ATOM     18  C   LIG    1       -1.154   4.612   2.780  0.00  0.00    +0.070 C 
BRANCH  18  19
ATOM     19  C   LIG    1       -1.515   6.014   3.274  0.00  0.00    +0.110 C 
BRANCH  19  20
ATOM     20  C   LIG    1       -0.957   6.218   4.659  0.00  0.00    -0.050 A 
ATOM     21  C   LIG    1       -1.752   5.988   5.765  0.00  0.00    +0.030 A 
ATOM     22  C   LIG    1       -1.240   6.170   7.037  0.00  0.00    +0.060 A 
ATOM     23  C   LIG    1        0.066   6.592   7.203  0.00  0.00    +0.000 A 
ATOM     24  C   LIG    1        0.863   6.828   6.096  0.00  0.00    +0.110 A 
ATOM     25  F   LIG    1        2.139   7.241   6.257  0.00  0.00    -0.130 F 
ATOM     26  C   LIG    1        0.350   6.641   4.822  0.00  0.00    -0.080 A 
ATOM     27 CL   LIG    1        1.348   6.935   3.432  0.00  0.00    -0.040 Cl
ENDBRANCH  19  20
ENDBRANCH  18  19
ENDBRANCH   2  18
TORSDOF 6
