REMARK  Name = ZINCrD00000hQ5NB.0
REMARK                            x       y       z     vdW  Elec       q    Type
REMARK                         _______ _______ _______ _____ _____    ______ ____
ROOT
ATOM      1  C   LIG    1       -8.402  -2.533   1.036  0.00  0.00    -0.100 C 
ATOM      2  C   LIG    1       -7.690  -2.119   2.106  0.00  0.00    +0.140 C 
ENDROOT
BRANCH   2   3
ATOM      3  C   LIG    1       -6.438  -1.374   1.912  0.00  0.00    -0.120 A 
ATOM      4  C   LIG    1       -5.698  -0.943   3.019  0.00  0.00    +0.090 A 
ATOM      5  C   LIG    1       -4.526  -0.245   2.832  0.00  0.00    -0.010 A 
ATOM      6  C   LIG    1       -4.078   0.032   1.546  0.00  0.00    +0.140 A 
ATOM      7  C   LIG    1       -4.812  -0.388   0.443  0.00  0.00    -0.080 A 
ATOM      8  C   LIG    1       -5.982  -1.091   0.619  0.00  0.00    +0.070 A 
BRANCH   6   9
ATOM      9  O   LIG    1       -2.922   0.721   1.367  0.00  0.00    -0.310 OA
BRANCH   9  10
ATOM     10  C   LIG    1       -2.519   0.972   0.019  0.00  0.00    +0.270 C 
BRANCH  10  11
ATOM     11  C   LIG    1       -1.223   1.743   0.017  0.00  0.00    -0.150 A 
ATOM     12  C   LIG    1       -1.231   3.129   0.031  0.00  0.00    +0.090 A 
ATOM     13  C   LIG    1       -0.015   3.796   0.023  0.00  0.00    -0.030 A 
ATOM     14  C   LIG    1        1.155   3.062   0.007  0.00  0.00    +0.270 A 
ATOM     15  N   LIG    1        1.125   1.743   0.001  0.00  0.00    -0.490 NA
ATOM     16  C   LIG    1       -0.013   1.076   0.008  0.00  0.00    +0.290 A 
ENDBRANCH  10  11
ENDBRANCH   9  10
ENDBRANCH   6   9
ENDBRANCH   2   3
BRANCH   1  18
ATOM     17  O   LIG    1      -10.043  -3.518   2.355  0.00  0.00    -0.540 OA
ATOM     18  C   LIG    1       -9.648  -3.274   1.229  0.00  0.00    +0.550 C 
ATOM     19  N   LIG    1      -10.359  -3.687   0.161  0.00  0.00    -0.720 N 
ATOM     20  H   LIG    1      -10.044  -3.493  -0.735  0.00  0.00    +0.400 HD
BRANCH  19  21
ATOM     21  C   LIG    1      -11.607  -4.430   0.355  0.00  0.00    +0.230 C 
ATOM     22  C   LIG    1      -12.790  -3.449   0.489  0.00  0.00    +0.020 C 
ATOM     23  C   LIG    1      -13.378  -3.365  -0.941  0.00  0.00    +0.010 C 
ATOM     24  C   LIG    1      -13.247  -4.822  -1.451  0.00  0.00    +0.020 C 
ATOM     25  C   LIG    1      -11.897  -5.303  -0.879  0.00  0.00    -0.010 C 
BRANCH  25  26
ATOM     26  C   LIG    1      -11.996  -6.773  -0.469  0.00  0.00    +0.030 C 
BRANCH  26  27
ATOM     27  C   LIG    1      -12.160  -7.641  -1.718  0.00  0.00    +0.170 C 
BRANCH  27  28
ATOM     28  O   LIG    1      -12.252  -9.015  -1.335  0.00  0.00    -0.580 OA
ATOM     29  H   LIG    1      -12.358  -9.624  -2.078  0.00  0.00    +0.380 HD
ENDBRANCH  27  28
ENDBRANCH  26  27
ENDBRANCH  25  26
ENDBRANCH  19  21
ENDBRANCH   1  18
TORSDOF 9
