REMARK  Name = ZINCrg00000SjSnt.0
REMARK                            x       y       z     vdW  Elec       q    Type
REMARK                         _______ _______ _______ _____ _____    ______ ____
ROOT
ATOM      1  C   LIG    1       -2.689   1.757   2.564  0.00  0.00    +0.550 C 
ATOM      2  N   LIG    1       -4.008   1.627   2.808  0.00  0.00    -0.630 N 
ATOM      3  C   LIG    1       -4.845   2.100   3.962  0.00  0.00    +0.240 C 
ATOM      4  C   LIG    1       -5.956   2.899   3.217  0.00  0.00    +0.040 C 
ATOM      5  C   LIG    1       -6.126   2.126   1.887  0.00  0.00    +0.030 C 
ATOM      6  C   LIG    1       -5.528   0.769   4.400  0.00  0.00    +0.240 C 
ATOM      7  C   LIG    1       -5.699  -0.004   3.062  0.00  0.00    +0.030 C 
ATOM      8  C   LIG    1       -5.095   0.970   2.006  0.00  0.00    +0.240 C 
ATOM      9  O   LIG    1       -1.980   2.341   3.357  0.00  0.00    -0.510 OA
ENDROOT
BRANCH   1  15
ATOM     10  N   LIG    1       -0.682   0.838   1.542  0.00  0.00    -0.510 NA
ATOM     11  C   LIG    1       -0.066   0.303   0.320  0.00  0.00    +0.170 C 
ATOM     12  C   LIG    1       -0.176   1.341  -0.800  0.00  0.00    +0.220 C 
ATOM     13  O   LIG    1       -1.552   1.682  -0.993  0.00  0.00    -0.380 OA
ATOM     14  C   LIG    1       -2.185   2.208   0.177  0.00  0.00    +0.250 C 
ATOM     15  C   LIG    1       -2.094   1.178   1.306  0.00  0.00    +0.110 C 
BRANCH  10  17
ATOM     16  C   LIG    1        0.889  -0.070   3.186  0.00  0.00    +0.040 C 
ATOM     17  C   LIG    1       -0.546  -0.107   2.658  0.00  0.00    +0.150 C 
ENDBRANCH  10  17
ENDBRANCH   1  15
BRANCH   6  18
ATOM     18  N   LIG    1       -4.666   0.026   5.323  0.00  0.00    -0.720 N 
ATOM     19  H   LIG    1       -3.706   0.162   5.305  0.00  0.00    +0.400 HD
ATOM     20  C   LIG    1       -5.208  -0.846   6.196  0.00  0.00    +0.520 C 
ATOM     21  O   LIG    1       -6.408  -1.016   6.218  0.00  0.00    -0.520 OA
BRANCH  20  22
ATOM     22  C   LIG    1       -4.321  -1.611   7.145  0.00  0.00    +0.060 C 
BRANCH  22  23
ATOM     23  C   LIG    1       -5.180  -2.525   8.021  0.00  0.00    -0.040 C 
ATOM     24  C   LIG    1       -5.946  -3.508   7.135  0.00  0.00    +0.030 C 
ATOM     25  C   LIG    1       -6.173  -1.679   8.821  0.00  0.00    +0.030 C 
BRANCH  23  26
ATOM     26  C   LIG    1       -4.280  -3.301   8.985  0.00  0.00    +0.170 C 
BRANCH  26  27
ATOM     27  O   LIG    1       -5.082  -4.155   9.803  0.00  0.00    -0.380 OA
ATOM     28  C   LIG    1       -4.335  -4.929  10.743  0.00  0.00    +0.200 C 
ENDBRANCH  26  27
ENDBRANCH  23  26
ENDBRANCH  22  23
ENDBRANCH  20  22
ENDBRANCH   6  18
TORSDOF 7
