REMARK  Name = ZINCpe000000ZzLe.0
REMARK                            x       y       z     vdW  Elec       q    Type
REMARK                         _______ _______ _______ _____ _____    ______ ____
ROOT
ATOM      1  N   LIG    1       -2.859   1.408  -2.465  0.00  0.00    -0.700 N 
ATOM      2  H   LIG    1       -2.443   2.047  -3.065  0.00  0.00    +0.410 HD
ENDROOT
BRANCH   1   3
ATOM      3  C   LIG    1       -4.139   0.946  -2.725  0.00  0.00    +0.460 A 
ATOM      4  N   LIG    1       -4.720   0.070  -1.910  0.00  0.00    -0.570 NA
ATOM      5  C   LIG    1       -5.937  -0.371  -2.155  0.00  0.00    +0.390 A 
ATOM      6  N   LIG    1       -6.624   0.031  -3.205  0.00  0.00    -0.550 NA
ATOM      7  C   LIG    1       -6.112   0.903  -4.064  0.00  0.00    +0.200 A 
ATOM      8  C   LIG    1       -6.685   1.513  -5.324  0.00  0.00    +0.110 C 
ATOM      9  C   LIG    1       -5.470   2.090  -6.082  0.00  0.00    +0.040 C 
ATOM     10  C   LIG    1       -4.466   2.362  -4.941  0.00  0.00    +0.090 C 
ATOM     11  C   LIG    1       -4.843   1.395  -3.844  0.00  0.00    -0.280 A 
BRANCH   5  12
ATOM     12  C   LIG    1       -6.561  -1.363  -1.209  0.00  0.00    +0.030 C 
ATOM     13  C   LIG    1       -5.824  -1.651   0.101  0.00  0.00    +0.060 C 
ATOM     14  C   LIG    1       -5.845  -2.700  -1.013  0.00  0.00    +0.040 C 
ENDBRANCH   5  12
ENDBRANCH   1   3
BRANCH   1  15
ATOM     15  C   LIG    1       -2.134   0.933  -1.284  0.00  0.00    +0.290 C 
BRANCH  15  21
ATOM     16  O   LIG    1       -0.865   5.078  -1.945  0.00  0.00    -0.530 OA
ATOM     17  C   LIG    1       -0.638   3.897  -2.097  0.00  0.00    +0.490 C 
ATOM     18  C   LIG    1       -0.013   3.426  -3.383  0.00  0.00    +0.280 C 
ATOM     19  O   LIG    1       -0.356   2.051  -3.583  0.00  0.00    -0.360 OA
ATOM     20  C   LIG    1        0.016   1.216  -2.487  0.00  0.00    +0.250 C 
ATOM     21  C   LIG    1       -0.755   1.594  -1.232  0.00  0.00    +0.090 C 
ATOM     22  C   LIG    1       -0.013   1.086   0.008  0.00  0.00    +0.250 C 
ATOM     23  O   LIG    1       -0.683   1.548   1.183  0.00  0.00    -0.370 OA
ATOM     24  C   LIG    1       -0.720   2.971   1.312  0.00  0.00    +0.220 C 
ATOM     25  C   LIG    1       -1.514   3.563   0.142  0.00  0.00    +0.260 C 
ATOM     26  N   LIG    1       -0.950   3.037  -1.115  0.00  0.00    -0.600 N 
ENDBRANCH  15  21
ENDBRANCH   1  15
TORSDOF 4
