REMARK  Name = ZINCrH000004uZpZ.0
REMARK                            x       y       z     vdW  Elec       q    Type
REMARK                         _______ _______ _______ _____ _____    ______ ____
ROOT
ATOM      1  O   LIG    1        1.709  -0.857  -1.223  0.00  0.00    -0.530 OA
ATOM      2  C   LIG    1        2.663  -0.111  -1.110  0.00  0.00    +0.600 C 
ATOM      3  N   LIG    1        3.877  -0.498  -1.549  0.00  0.00    -0.710 N 
ATOM      4  H   LIG    1        4.637   0.097  -1.460  0.00  0.00    +0.400 HD
ENDROOT
BRANCH   2   5
ATOM      5  C   LIG    1        2.491   1.216  -0.493  0.00  0.00    -0.240 A 
ATOM      6  C   LIG    1        1.338   1.754  -0.001  0.00  0.00    +0.120 A 
ATOM      7  O   LIG    1        1.608   2.977   0.466  0.00  0.00    -0.170 OA
ATOM      8  C   LIG    1        2.908   3.272   0.310  0.00  0.00    +0.030 A 
ATOM      9  C   LIG    1        3.527   2.237  -0.279  0.00  0.00    -0.020 A 
BRANCH   8  10
ATOM     10  C   LIG    1        3.567   4.562   0.726  0.00  0.00    +0.050 C 
ATOM     11  C   LIG    1        2.741   5.539   1.565  0.00  0.00    +0.040 C 
ATOM     12  C   LIG    1        3.044   5.856   0.099  0.00  0.00    +0.050 C 
ENDBRANCH   8  10
BRANCH   6  13
ATOM     13  C   LIG    1       -0.013   1.086   0.008  0.00  0.00    +0.060 C 
ATOM     14  C   LIG    1       -1.136   1.773   0.788  0.00  0.00    +0.040 C 
ATOM     15  C   LIG    1       -1.150   1.781  -0.743  0.00  0.00    +0.050 C 
ENDBRANCH   6  13
ENDBRANCH   2   5
BRANCH   3  16
ATOM     16  C   LIG    1        4.047  -1.817  -2.163  0.00  0.00    +0.260 C 
ATOM     17  C   LIG    1        4.262  -1.766  -3.685  0.00  0.00    +0.090 C 
ATOM     18  C   LIG    1        5.767  -1.650  -3.389  0.00  0.00    -0.450 C 
ATOM     19  C   LIG    1        5.481  -2.365  -2.058  0.00  0.00    +0.090 C 
BRANCH  18  20
ATOM     20  S   LIG    1        6.806  -2.613  -4.522  0.00  0.00    +2.500 S 
ATOM     21  O   LIG    1        6.103  -3.753  -4.997  0.00  0.00    -0.930 OA
ATOM     22  O   LIG    1        8.127  -2.727  -4.011  0.00  0.00    -0.930 OA
BRANCH  20  23
ATOM     23  C   LIG    1        6.977  -1.585  -5.943  0.00  0.00    -0.660 A 
ATOM     24  C   LIG    1        6.068  -1.682  -6.979  0.00  0.00    +0.120 A 
ATOM     25  C   LIG    1        6.200  -0.872  -8.092  0.00  0.00    -0.010 A 
ATOM     26  C   LIG    1        7.246   0.028  -8.172  0.00  0.00    +0.070 A 
ATOM     27  C   LIG    1        8.158   0.121  -7.138  0.00  0.00    -0.010 A 
ATOM     28  C   LIG    1        8.024  -0.685  -6.023  0.00  0.00    +0.110 A 
ENDBRANCH  20  23
ENDBRANCH  18  20
ENDBRANCH   3  16
TORSDOF 6
