REMARK  Name = ZINCkj00000kIZf4.0
REMARK                            x       y       z     vdW  Elec       q    Type
REMARK                         _______ _______ _______ _____ _____    ______ ____
ROOT
ATOM      1  C   LIG    1       -1.210  -0.899   0.008  0.00  0.00    +0.280 C 
ATOM      2  O   LIG    1       -1.019  -1.954   0.952  0.00  0.00    -0.340 OA
ATOM      3  C   LIG    1       -2.127  -2.851   1.057  0.00  0.00    +0.220 C 
ATOM      4  C   LIG    1       -2.365  -3.526  -0.296  0.00  0.00    +0.010 C 
ATOM      5  C   LIG    1       -2.609  -2.450  -1.359  0.00  0.00    +0.020 C 
ATOM      6  C   LIG    1       -1.412  -1.495  -1.388  0.00  0.00    -0.020 C 
ENDROOT
BRANCH   1  12
ATOM      7  C   LIG    1       -1.207   2.199   0.020  0.00  0.00    +0.330 C 
ATOM      8  N   LIG    1       -0.016   1.346   0.009  0.00  0.00    -0.460 N 
ATOM      9  C   LIG    1        1.286   1.769  -0.001  0.00  0.00    +0.140 A 
ATOM     10  C   LIG    1        2.054   0.663  -0.014  0.00  0.00    +0.160 A 
ATOM     11  N   LIG    1        1.244  -0.406  -0.012  0.00  0.00    -0.450 NA
ATOM     12  C   LIG    1        0.002  -0.004   0.002  0.00  0.00    +0.170 A 
ENDBRANCH   1  12
BRANCH   6  13
ATOM     13  C   LIG    1       -1.679  -0.371  -2.390  0.00  0.00    +0.250 C 
BRANCH  13  14
ATOM     14  N   LIG    1       -1.753  -0.931  -3.746  0.00  0.00    -0.500 N 
ATOM     15  H   LIG    1       -2.501  -1.606  -3.791  0.00  0.00    +0.430 HD
ATOM     16  H   LIG    1       -0.879  -1.383  -3.972  0.00  0.00    +0.430 HD
BRANCH  14  17
ATOM     17  C   LIG    1       -2.009   0.148  -4.709  0.00  0.00    +0.170 C 
ATOM     18  C   LIG    1       -3.420   0.731  -4.487  0.00  0.00    +0.050 C 
ATOM     19  C   LIG    1       -3.930   1.044  -5.915  0.00  0.00    +0.060 C 
ATOM     20  C   LIG    1       -3.380  -0.144  -6.743  0.00  0.00    +0.020 C 
ATOM     21  C   LIG    1       -1.982  -0.407  -6.144  0.00  0.00    +0.170 C 
BRANCH  21  22
ATOM     22  O   LIG    1       -0.984   0.268  -6.912  0.00  0.00    -0.550 OA
ATOM     23  H   LIG    1       -0.918  -0.038  -7.826  0.00  0.00    +0.400 HD
ENDBRANCH  21  22
ENDBRANCH  14  17
ENDBRANCH  13  14
ENDBRANCH   6  13
TORSDOF 5
