REMARK  Name = ZINCtV000002rf31.0
REMARK                            x       y       z     vdW  Elec       q    Type
REMARK                         _______ _______ _______ _____ _____    ______ ____
ROOT
ATOM      1  C   LIG    1       -0.536   7.705   0.254  0.00  0.00    +0.150 A 
ATOM      2  C   LIG    1       -1.182   7.845   1.424  0.00  0.00    -0.100 A 
ATOM      3  S   LIG    1       -1.404   6.244   2.127  0.00  0.00    +0.110 S 
ATOM      4  C   LIG    1       -0.576   5.524   0.750  0.00  0.00    +0.320 A 
ATOM      5  N   LIG    1       -0.226   6.459  -0.079  0.00  0.00    -0.510 NA
ENDROOT
BRANCH   1   9
ATOM      6  C   LIG    1        0.447  11.029  -2.212  0.00  0.00    +0.150 A 
ATOM      7  C   LIG    1        0.796   9.743  -2.609  0.00  0.00    -0.020 A 
ATOM      8  C   LIG    1        0.479   8.664  -1.811  0.00  0.00    +0.080 A 
ATOM      9  C   LIG    1       -0.193   8.864  -0.606  0.00  0.00    -0.040 A 
ATOM     10  C   LIG    1       -0.547  10.154  -0.213  0.00  0.00    +0.050 A 
ATOM     11  C   LIG    1       -0.223  11.230  -1.012  0.00  0.00    +0.020 A 
BRANCH   6  13
ATOM     12  C   LIG    1        1.117  13.298  -2.463  0.00  0.00    +0.510 C 
ATOM     13  N   LIG    1        0.770  12.122  -3.023  0.00  0.00    -0.680 N 
ATOM     14  H   LIG    1        0.745  12.034  -3.989  0.00  0.00    +0.410 HD
ATOM     15  O   LIG    1        1.062  13.435  -1.260  0.00  0.00    -0.510 OA
BRANCH  12  16
ATOM     16  C   LIG    1        1.571  14.442  -3.333  0.00  0.00    +0.060 C 
BRANCH  16  18
ATOM     17  C   LIG    1        3.100  15.319  -1.562  0.00  0.00    +0.010 C 
ATOM     18  C   LIG    1        1.902  15.650  -2.454  0.00  0.00    +0.000 C 
ATOM     19  C   LIG    1        2.244  16.848  -3.342  0.00  0.00    +0.030 C 
ENDBRANCH  16  18
ENDBRANCH  12  16
ENDBRANCH   6  13
ENDBRANCH   1   9
BRANCH   4  20
ATOM     20  N   LIG    1       -0.340   4.169   0.575  0.00  0.00    -0.630 N 
ATOM     21  H   LIG    1        0.202   3.863  -0.168  0.00  0.00    +0.430 HD
BRANCH  20  22
ATOM     22  C   LIG    1       -0.884   3.244   1.471  0.00  0.00    +0.220 A 
ATOM     23  C   LIG    1       -2.088   3.517   2.108  0.00  0.00    -0.020 A 
ATOM     24  C   LIG    1       -2.619   2.604   2.998  0.00  0.00    +0.100 A 
ATOM     25  C   LIG    1       -1.957   1.416   3.250  0.00  0.00    +0.000 A 
ATOM     26  C   LIG    1       -0.762   1.139   2.612  0.00  0.00    +0.110 A 
ATOM     27  C   LIG    1       -0.225   2.047   1.722  0.00  0.00    -0.220 A 
BRANCH  27  28
ATOM     28  C   LIG    1        1.078   1.744   1.028  0.00  0.00    +0.510 C 
ATOM     29  F   LIG    1        0.877   1.729  -0.356  0.00  0.00    -0.180 F 
ATOM     30  F   LIG    1        2.019   2.727   1.352  0.00  0.00    -0.170 F 
ATOM     31  F   LIG    1        1.548   0.494   1.444  0.00  0.00    -0.170 F 
ENDBRANCH  27  28
ENDBRANCH  20  22
ENDBRANCH   4  20
TORSDOF 7
