REMARK  Name = ZINCkj00000GeRJt.0
REMARK                            x       y       z     vdW  Elec       q    Type
REMARK                         _______ _______ _______ _____ _____    ______ ____
ROOT
ATOM      1  N   LIG    1       -4.767   4.027  -2.493  0.00  0.00    -0.640 N 
ATOM      2  H   LIG    1       -4.577   3.893  -3.435  0.00  0.00    +0.420 HD
ATOM      3  C   LIG    1       -3.956   3.489  -1.560  0.00  0.00    +0.500 C 
ATOM      4  O   LIG    1       -4.236   3.590  -0.384  0.00  0.00    -0.510 OA
ENDROOT
BRANCH   1  10
ATOM      5  C   LIG    1       -8.305   4.956   0.791  0.00  0.00    +0.100 C 
ATOM      6  C   LIG    1       -7.616   5.250  -0.516  0.00  0.00    -0.070 A 
ATOM      7  C   LIG    1       -8.085   6.262  -1.333  0.00  0.00    +0.020 A 
ATOM      8  C   LIG    1       -7.456   6.534  -2.534  0.00  0.00    +0.030 A 
ATOM      9  C   LIG    1       -6.356   5.795  -2.921  0.00  0.00    -0.100 A 
ATOM     10  C   LIG    1       -5.881   4.778  -2.103  0.00  0.00    +0.120 A 
ATOM     11  C   LIG    1       -5.671   6.092  -4.230  0.00  0.00    +0.100 C 
ATOM     12  C   LIG    1       -6.519   4.503  -0.901  0.00  0.00    +0.020 A 
ENDBRANCH   1  10
BRANCH   3  13
ATOM     13  C   LIG    1       -2.703   2.764  -1.978  0.00  0.00    +0.300 C 
BRANCH  13  14
ATOM     14  N   LIG    1       -2.048   2.196  -0.792  0.00  0.00    -0.240 N 
ATOM     15  C   LIG    1       -1.671   3.281   0.123  0.00  0.00    +0.230 C 
ATOM     16  C   LIG    1       -0.983   2.692   1.357  0.00  0.00    +0.260 C 
ATOM     17  N   LIG    1       -0.928   1.226   1.219  0.00  0.00    -0.510 NA
ATOM     18  C   LIG    1       -0.155   0.863   0.019  0.00  0.00    +0.270 C 
ATOM     19  C   LIG    1       -2.292   0.680   1.116  0.00  0.00    +0.260 C 
ATOM     20  C   LIG    1       -0.847   1.464  -1.214  0.00  0.00    +0.220 C 
ATOM     21  C   LIG    1       -2.975   1.279  -0.116  0.00  0.00    +0.230 C 
ENDBRANCH  13  14
ENDBRANCH   3  13
TORSDOF 3
