REMARK  Name = ZINCvU0000000CLG.0
REMARK                            x       y       z     vdW  Elec       q    Type
REMARK                         _______ _______ _______ _____ _____    ______ ____
ROOT
ATOM      1  S   LIG    1        1.121   6.197  -0.035  0.00  0.00    -0.560 S 
ATOM      2  C   LIG    1        2.529   5.229   0.076  0.00  0.00    +0.560 C 
ENDROOT
BRANCH   2   3
ATOM      3  N   LIG    1        3.733   5.809   0.249  0.00  0.00    -0.520 N 
ATOM      4  C   LIG    1        4.965   5.005   0.246  0.00  0.00    +0.290 C 
ATOM      5  C   LIG    1        5.955   5.643  -0.742  0.00  0.00    +0.180 C 
ATOM      6  N   LIG    1        6.138   7.059  -0.397  0.00  0.00    -0.540 NA
ATOM      7  C   LIG    1        4.883   7.809  -0.538  0.00  0.00    +0.190 C 
ATOM      8  C   LIG    1        3.851   7.261   0.452  0.00  0.00    +0.320 C 
BRANCH   6   9
ATOM      9  C   LIG    1        7.206   7.663  -1.206  0.00  0.00    +0.220 C 
BRANCH   9  10
ATOM     10  C   LIG    1        8.398   6.740  -1.234  0.00  0.00    -0.030 C 
ATOM     11  C   LIG    1        8.902   6.344  -2.394  0.00  0.00    +0.010 C 
BRANCH  11  12
ATOM     12  C   LIG    1       10.071   5.439  -2.421  0.00  0.00    -0.060 A 
ATOM     13  C   LIG    1       10.649   5.005  -1.228  0.00  0.00    +0.010 A 
ATOM     14  C   LIG    1       11.736   4.156  -1.260  0.00  0.00    +0.000 A 
ATOM     15  C   LIG    1       12.260   3.744  -2.473  0.00  0.00    +0.000 A 
ATOM     16  C   LIG    1       11.695   4.176  -3.659  0.00  0.00    +0.000 A 
ATOM     17  C   LIG    1       10.604   5.020  -3.641  0.00  0.00    +0.010 A 
ENDBRANCH  11  12
ENDBRANCH   9  10
ENDBRANCH   6   9
ENDBRANCH   2   3
BRANCH   2  18
ATOM     18  N   LIG    1        2.432   3.888  -0.009  0.00  0.00    -0.700 N 
ATOM     19  H   LIG    1        2.147   3.372   0.761  0.00  0.00    +0.430 HD
BRANCH  18  20
ATOM     20  C   LIG    1        2.744   3.238  -1.210  0.00  0.00    +0.190 A 
ATOM     21  C   LIG    1        3.050   3.981  -2.343  0.00  0.00    -0.030 A 
ATOM     22  C   LIG    1        3.358   3.340  -3.526  0.00  0.00    +0.070 A 
ATOM     23  C   LIG    1        3.356   1.954  -3.586  0.00  0.00    +0.050 A 
ATOM     24  C   LIG    1        3.055   1.211  -2.454  0.00  0.00    +0.050 A 
ATOM     25  C   LIG    1        2.748   1.851  -1.269  0.00  0.00    -0.010 A 
BRANCH  23  26
ATOM     26  O   LIG    1        3.652   1.324  -4.753  0.00  0.00    -0.260 OA
BRANCH  26  27
ATOM     27  C   LIG    1        2.631   0.770  -5.457  0.00  0.00    +0.120 A 
ATOM     28  C   LIG    1        1.321   0.942  -5.033  0.00  0.00    -0.060 A 
ATOM     29  C   LIG    1        0.284   0.381  -5.752  0.00  0.00    +0.050 A 
ATOM     30  C   LIG    1        0.550  -0.360  -6.889  0.00  0.00    -0.020 A 
ATOM     31  C   LIG    1        1.855  -0.537  -7.311  0.00  0.00    +0.050 A 
ATOM     32  C   LIG    1        2.896   0.026  -6.598  0.00  0.00    -0.020 A 
ENDBRANCH  26  27
ENDBRANCH  23  26
ENDBRANCH  18  20
ENDBRANCH   2  18
TORSDOF 8
