REMARK  Name = ZINCpe00000MJJg7.0
REMARK                            x       y       z     vdW  Elec       q    Type
REMARK                         _______ _______ _______ _____ _____    ______ ____
ROOT
ATOM      1  C   LIG    1        7.088   1.013  -0.705  0.00  0.00    -0.080 C 
ATOM      2  C   LIG    1        8.423   0.836  -0.005  0.00  0.00    +0.030 C 
ATOM      3  C   LIG    1        9.022  -0.544  -0.240  0.00  0.00    +0.220 C 
ATOM      4  O   LIG    1        8.065  -1.516   0.202  0.00  0.00    -0.370 OA
ATOM      5  C   LIG    1        6.932  -1.574  -0.658  0.00  0.00    +0.240 C 
ATOM      6  C   LIG    1        6.218   1.954   0.176  0.00  0.00    +0.300 C 
ATOM      7  N   LIG    1        4.842   1.413   0.066  0.00  0.00    -0.620 N 
ATOM      8  C   LIG    1        3.684   2.098  -0.021  0.00  0.00    +0.590 C 
ATOM      9  O   LIG    1        3.700   3.309  -0.108  0.00  0.00    -0.520 OA
ATOM     10  C   LIG    1        5.038  -0.061   0.081  0.00  0.00    +0.290 C 
ATOM     11  C   LIG    1        6.258  -0.251  -0.846  0.00  0.00    -0.020 C 
ENDROOT
BRANCH   8  12
ATOM     12  C   LIG    1        2.390   1.371  -0.011  0.00  0.00    -0.010 A 
ATOM     13  C   LIG    1        1.889   0.843   1.165  0.00  0.00    -0.050 A 
ATOM     14  C   LIG    1        0.657   0.158   1.137  0.00  0.00    +0.520 A 
ATOM     15  N   LIG    1       -0.014   0.025  -0.021  0.00  0.00    -0.600 N 
ATOM     16  H   LIG    1       -0.861  -0.448  -0.030  0.00  0.00    +0.410 HD
ATOM     17  C   LIG    1        0.473   0.541  -1.178  0.00  0.00    +0.210 A 
ATOM     18  O   LIG    1        0.197  -0.310   2.166  0.00  0.00    -0.540 OA
ATOM     19  C   LIG    1        1.650   1.207  -1.202  0.00  0.00    -0.050 A 
BRANCH  17  20
ATOM     20  C   LIG    1       -0.310   0.371  -2.454  0.00  0.00    +0.000 C 
ATOM     21  C   LIG    1       -1.722  -0.207  -2.345  0.00  0.00    +0.040 C 
ATOM     22  C   LIG    1       -0.590  -1.057  -2.926  0.00  0.00    +0.050 C 
ENDBRANCH  17  20
ENDBRANCH   8  12
BRANCH   1  26
ATOM     23  C   LIG    1        8.149   3.423  -3.483  0.00  0.00    +0.290 C 
ATOM     24  N   LIG    1        7.942   2.817  -2.165  0.00  0.00    -0.730 N 
ATOM     25  H   LIG    1        8.265   3.266  -1.368  0.00  0.00    +0.400 HD
ATOM     26  C   LIG    1        7.301   1.636  -2.060  0.00  0.00    +0.520 C 
ATOM     27  O   LIG    1        6.896   1.075  -3.056  0.00  0.00    -0.530 OA
ENDBRANCH   1  26
TORSDOF 3
