REMARK  Name = ZINCrH000004v4tU.0
REMARK                            x       y       z     vdW  Elec       q    Type
REMARK                         _______ _______ _______ _____ _____    ______ ____
ROOT
ATOM      1  O   LIG    1       -1.256   2.804  -0.067  0.00  0.00    -0.500 OA
ATOM      2  C   LIG    1       -1.204   1.592   0.017  0.00  0.00    +0.560 C 
ATOM      3  N   LIG    1       -0.011   0.966   0.007  0.00  0.00    -0.670 N 
ATOM      4  H   LIG    1        0.028  -0.003   0.007  0.00  0.00    +0.420 HD
ENDROOT
BRANCH   2   5
ATOM      5  C   LIG    1       -2.451   0.806   0.130  0.00  0.00    -0.080 A 
ATOM      6  C   LIG    1       -2.396  -0.586   0.222  0.00  0.00    +0.030 A 
ATOM      7  C   LIG    1       -3.563  -1.313   0.334  0.00  0.00    +0.130 A 
ATOM      8  C   LIG    1       -4.786  -0.667   0.343  0.00  0.00    -0.650 A 
ATOM      9  C   LIG    1       -4.848   0.712   0.247  0.00  0.00    +0.130 A 
ATOM     10  C   LIG    1       -3.688   1.452   0.141  0.00  0.00    +0.070 A 
BRANCH   8  11
ATOM     11  S   LIG    1       -6.272  -1.605   0.478  0.00  0.00    +2.710 S 
ATOM     12  O   LIG    1       -7.255  -0.725   1.006  0.00  0.00    -0.940 OA
ATOM     13  O   LIG    1       -5.916  -2.833   1.097  0.00  0.00    -0.950 OA
BRANCH  11  14
ATOM     14  N   LIG    1       -6.757  -1.979  -1.060  0.00  0.00    -1.010 NA
ATOM     15  C   LIG    1       -7.653  -1.167  -1.897  0.00  0.00    +0.270 C 
ATOM     16  C   LIG    1       -7.839  -1.920  -3.232  0.00  0.00    +0.030 C 
ATOM     17  C   LIG    1       -7.500  -3.385  -2.853  0.00  0.00    +0.040 C 
ATOM     18  C   LIG    1       -6.367  -3.184  -1.815  0.00  0.00    +0.270 C 
ENDBRANCH  11  14
ENDBRANCH   8  11
ENDBRANCH   2   5
BRANCH   3  19
ATOM     19  C   LIG    1        1.171   1.713  -0.007  0.00  0.00    +0.170 A 
ATOM     20  C   LIG    1        1.228   2.911  -0.708  0.00  0.00    +0.030 A 
ATOM     21  C   LIG    1        2.395   3.650  -0.716  0.00  0.00    +0.090 A 
ATOM     22  C   LIG    1        3.509   3.192  -0.037  0.00  0.00    -0.200 A 
ATOM     23  C   LIG    1        3.458   1.997   0.657  0.00  0.00    +0.090 A 
ATOM     24  C   LIG    1        2.292   1.256   0.673  0.00  0.00    +0.000 A 
BRANCH  22  25
ATOM     25  C   LIG    1        4.783   3.997  -0.053  0.00  0.00    +0.510 C 
ATOM     26  F   LIG    1        5.486   3.781   1.137  0.00  0.00    -0.180 F 
ATOM     27  F   LIG    1        4.474   5.356  -0.172  0.00  0.00    -0.180 F 
ATOM     28  F   LIG    1        5.571   3.602  -1.139  0.00  0.00    -0.180 F 
ENDBRANCH  22  25
ENDBRANCH   3  19
TORSDOF 5
