REMARK  Name = ZINCvU0000000EaQ.0
REMARK                            x       y       z     vdW  Elec       q    Type
REMARK                         _______ _______ _______ _____ _____    ______ ____
ROOT
ATOM      1  N   LIG    1       -2.479   6.975   4.266  0.00  0.00    -0.670 N 
ATOM      2  H   LIG    1       -3.277   7.308   4.705  0.00  0.00    +0.410 HD
ATOM      3  C   LIG    1       -1.508   7.832   3.893  0.00  0.00    +0.550 C 
ATOM      4  O   LIG    1       -0.544   7.426   3.270  0.00  0.00    -0.510 OA
ENDROOT
BRANCH   1  11
ATOM      5  C   LIG    1       -3.546   5.154   6.169  0.00  0.00    +0.110 C 
ATOM      6  C   LIG    1       -2.842   4.680   4.924  0.00  0.00    -0.080 A 
ATOM      7  C   LIG    1       -2.703   3.326   4.685  0.00  0.00    +0.030 A 
ATOM      8  C   LIG    1       -2.064   2.883   3.544  0.00  0.00    +0.040 A 
ATOM      9  C   LIG    1       -1.547   3.805   2.632  0.00  0.00    -0.130 A 
ATOM     10  C   LIG    1       -1.688   5.172   2.873  0.00  0.00    +0.110 A 
ATOM     11  C   LIG    1       -2.336   5.606   4.019  0.00  0.00    +0.140 A 
BRANCH   9  12
ATOM     12  C   LIG    1       -0.858   3.334   1.412  0.00  0.00    +0.570 C 
ATOM     13  N   LIG    1       -0.723   2.013   1.181  0.00  0.00    -0.730 N 
ATOM     14  H   LIG    1       -1.079   1.371   1.816  0.00  0.00    +0.410 HD
ATOM     15  O   LIG    1       -0.413   4.138   0.616  0.00  0.00    -0.520 OA
BRANCH  13  16
ATOM     16  C   LIG    1       -0.041   1.546  -0.028  0.00  0.00    +0.320 C 
BRANCH  16  17
ATOM     17  C   LIG    1       -0.025   0.016  -0.046  0.00  0.00    +0.450 C 
ATOM     18  F   LIG    1        0.652  -0.457   1.083  0.00  0.00    -0.180 F 
ATOM     19  F   LIG    1        0.627  -0.429  -1.201  0.00  0.00    -0.170 F 
ATOM     20  F   LIG    1       -1.339  -0.464  -0.038  0.00  0.00    -0.180 F 
ENDBRANCH  16  17
ENDBRANCH  13  16
ENDBRANCH   9  12
ENDBRANCH   1  11
BRANCH   3  21
ATOM     21  C   LIG    1       -1.612   9.250   4.238  0.00  0.00    -0.070 C 
ATOM     22  C   LIG    1       -0.640  10.108   3.866  0.00  0.00    +0.140 C 
BRANCH  22  23
ATOM     23  C   LIG    1       -0.744  11.534   4.213  0.00  0.00    -0.070 A 
ATOM     24  C   LIG    1       -1.852  12.005   4.924  0.00  0.00    +0.090 A 
ATOM     25  C   LIG    1       -1.940  13.341   5.251  0.00  0.00    +0.040 A 
ATOM     26  C   LIG    1       -0.940  14.219   4.867  0.00  0.00    +0.020 A 
ATOM     27  C   LIG    1        0.158  13.761   4.157  0.00  0.00    -0.180 A 
ATOM     28 CL   LIG    1       -1.063  15.901   5.277  0.00  0.00    -0.030 Cl
ATOM     29  C   LIG    1        0.262  12.426   3.828  0.00  0.00    +0.130 A 
BRANCH  27  30
ATOM     30  C   LIG    1        1.240  14.724   3.743  0.00  0.00    +0.510 C 
ATOM     31  F   LIG    1        1.796  15.317   4.881  0.00  0.00    -0.170 F 
ATOM     32  F   LIG    1        0.694  15.714   2.920  0.00  0.00    -0.170 F 
ATOM     33  F   LIG    1        2.236  14.033   3.044  0.00  0.00    -0.170 F 
ENDBRANCH  27  30
ENDBRANCH  22  23
ENDBRANCH   3  21
TORSDOF 7
