REMARK  Name = ZINCtV00000tROKD.0
REMARK                            x       y       z     vdW  Elec       q    Type
REMARK                         _______ _______ _______ _____ _____    ______ ____
ROOT
ATOM      1  C   LIG    1       -2.030   1.919   1.350  0.00  0.00    +0.040 A 
ATOM      2  C   LIG    1       -0.735   1.510   1.265  0.00  0.00    +0.020 A 
ATOM      3  N   LIG    1       -0.170   1.717   2.493  0.00  0.00    -0.550 N 
ATOM      4  H   LIG    1        0.748   1.526   2.744  0.00  0.00    +0.430 HD
ATOM      5  C   LIG    1       -1.140   2.244   3.301  0.00  0.00    +0.280 A 
ATOM      6  C   LIG    1       -0.051   0.944   0.047  0.00  0.00    +0.150 C 
ATOM      7  N   LIG    1       -2.250   2.356   2.603  0.00  0.00    -0.440 NA
ENDROOT
BRANCH   1  11
ATOM      8  C   LIG    1       -4.891   1.820  -1.799  0.00  0.00    +0.010 A 
ATOM      9  C   LIG    1       -4.017   0.746  -1.615  0.00  0.00    +0.040 A 
ATOM     10  C   LIG    1       -3.092   0.779  -0.596  0.00  0.00    +0.020 A 
ATOM     11  C   LIG    1       -3.027   1.884   0.253  0.00  0.00    +0.010 A 
ATOM     12  C   LIG    1       -3.904   2.955   0.074  0.00  0.00    +0.040 A 
ATOM     13  C   LIG    1       -4.826   2.926  -0.948  0.00  0.00    +0.040 A 
BRANCH   8  15
ATOM     14  C   LIG    1       -6.643   1.760  -3.727  0.00  0.00    +0.050 C 
ATOM     15  C   LIG    1       -5.854   1.787  -2.858  0.00  0.00    -0.150 C 
ENDBRANCH   8  15
ENDBRANCH   1  11
BRANCH   5  16
ATOM     16  C   LIG    1       -0.970   2.621   4.712  0.00  0.00    +0.060 A 
ATOM     17  C   LIG    1       -1.937   3.147   5.520  0.00  0.00    +0.030 A 
ATOM     18  C   LIG    1       -1.349   3.356   6.776  0.00  0.00    +0.000 A 
ATOM     19  C   LIG    1       -0.052   2.949   6.681  0.00  0.00    +0.010 A 
ATOM     20  O   LIG    1        0.164   2.502   5.430  0.00  0.00    -0.160 OA
BRANCH  19  21
ATOM     21  C   LIG    1        0.947   2.989   7.769  0.00  0.00    +0.030 A 
ATOM     22  C   LIG    1        1.136   4.160   8.505  0.00  0.00    +0.050 A 
ATOM     23  C   LIG    1        2.071   4.189   9.519  0.00  0.00    +0.060 A 
ATOM     24  C   LIG    1        2.819   3.062   9.808  0.00  0.00    +0.030 A 
ATOM     25  C   LIG    1        2.636   1.897   9.083  0.00  0.00    +0.070 A 
ATOM     26  C   LIG    1        1.701   1.852   8.069  0.00  0.00    -0.170 A 
BRANCH  26  27
ATOM     27  C   LIG    1        1.499   0.582   7.285  0.00  0.00    +0.510 C 
ATOM     28  F   LIG    1        1.772   0.820   5.933  0.00  0.00    -0.170 F 
ATOM     29  F   LIG    1        0.175   0.153   7.425  0.00  0.00    -0.170 F 
ATOM     30  F   LIG    1        2.363  -0.407   7.768  0.00  0.00    -0.180 F 
ENDBRANCH  26  27
ENDBRANCH  19  21
ENDBRANCH   5  16
TORSDOF 5
