REMARK  Name = ZINCtV00000tROKD.1
REMARK                            x       y       z     vdW  Elec       q    Type
REMARK                         _______ _______ _______ _____ _____    ______ ____
ROOT
ATOM      1  C   LIG    1        4.312   5.581  -2.414  0.00  0.00    +0.030 A 
ATOM      2  C   LIG    1        3.621   6.633  -2.942  0.00  0.00    +0.040 A 
ATOM      3  N   LIG    1        2.387   6.620  -2.439  0.00  0.00    -0.450 NA
ATOM      4  C   LIG    1        2.261   5.608  -1.602  0.00  0.00    +0.290 A 
ATOM      5  C   LIG    1        4.160   7.634  -3.931  0.00  0.00    +0.150 C 
ATOM      6  N   LIG    1        3.447   4.928  -1.560  0.00  0.00    -0.550 N 
ATOM      7  H   LIG    1        3.643   4.138  -1.033  0.00  0.00    +0.430 HD
ENDROOT
BRANCH   1  11
ATOM      8  C   LIG    1        8.340   4.526  -3.236  0.00  0.00    +0.020 A 
ATOM      9  C   LIG    1        7.351   3.539  -3.210  0.00  0.00    +0.040 A 
ATOM     10  C   LIG    1        6.050   3.880  -2.944  0.00  0.00    +0.020 A 
ATOM     11  C   LIG    1        5.712   5.214  -2.700  0.00  0.00    -0.010 A 
ATOM     12  C   LIG    1        6.701   6.202  -2.731  0.00  0.00    +0.050 A 
ATOM     13  C   LIG    1        8.003   5.859  -2.991  0.00  0.00    +0.040 A 
BRANCH   8  15
ATOM     14  C   LIG    1       10.813   3.878  -3.742  0.00  0.00    +0.070 C 
ATOM     15  C   LIG    1        9.699   4.170  -3.514  0.00  0.00    -0.160 C 
ENDBRANCH   8  15
ENDBRANCH   1  11
BRANCH   4  16
ATOM     16  C   LIG    1        1.050   5.266  -0.847  0.00  0.00    +0.060 A 
ATOM     17  C   LIG    1       -0.136   5.944  -0.886  0.00  0.00    +0.030 A 
ATOM     18  C   LIG    1       -1.017   5.277  -0.024  0.00  0.00    +0.000 A 
ATOM     19  C   LIG    1       -0.331   4.227   0.512  0.00  0.00    +0.010 A 
ATOM     20  O   LIG    1        0.916   4.229   0.004  0.00  0.00    -0.160 OA
BRANCH  19  21
ATOM     21  C   LIG    1       -0.867   3.251   1.481  0.00  0.00    +0.030 A 
ATOM     22  C   LIG    1       -1.522   3.692   2.633  0.00  0.00    +0.050 A 
ATOM     23  C   LIG    1       -2.021   2.774   3.533  0.00  0.00    +0.060 A 
ATOM     24  C   LIG    1       -1.874   1.419   3.298  0.00  0.00    +0.030 A 
ATOM     25  C   LIG    1       -1.231   0.974   2.156  0.00  0.00    +0.070 A 
ATOM     26  C   LIG    1       -0.722   1.881   1.250  0.00  0.00    -0.170 A 
BRANCH  26  27
ATOM     27  C   LIG    1       -0.017   1.395   0.010  0.00  0.00    +0.510 C 
ATOM     28  F   LIG    1       -0.694   1.858  -1.124  0.00  0.00    -0.170 F 
ATOM     29  F   LIG    1        1.296   1.879  -0.000  0.00  0.00    -0.170 F 
ATOM     30  F   LIG    1        0.002  -0.004   0.002  0.00  0.00    -0.180 F 
ENDBRANCH  26  27
ENDBRANCH  19  21
ENDBRANCH   4  16
TORSDOF 5
