REMARK  Name = ZINCrH000004tY04.1
REMARK                            x       y       z     vdW  Elec       q    Type
REMARK                         _______ _______ _______ _____ _____    ______ ____
ROOT
ATOM      1  O   LIG    1       -1.413   7.546   2.351  0.00  0.00    -0.590 OA
ATOM      2  C   LIG    1       -2.388   7.413   3.065  0.00  0.00    +0.490 C 
ENDROOT
BRANCH   2   3
ATOM      3  N   LIG    1       -2.386   7.922   4.293  0.00  0.00    -0.650 NA
ATOM      4  C   LIG    1       -1.316   8.578   4.742  0.00  0.00    +0.480 A 
ATOM      5  C   LIG    1       -1.172   9.173   6.011  0.00  0.00    -0.090 A 
ATOM      6  C   LIG    1        0.056   9.733   6.079  0.00  0.00    +0.190 A 
ATOM      7  N   LIG    1        0.701   9.528   4.895  0.00  0.00    -0.480 N 
ATOM      8  H   LIG    1        1.596   9.830   4.676  0.00  0.00    +0.450 HD
ATOM      9  N   LIG    1       -0.152   8.804   4.050  0.00  0.00    -0.480 N 
ATOM     10  H   LIG    1        0.044   8.516   3.145  0.00  0.00    +0.460 HD
BRANCH   6  11
ATOM     11  C   LIG    1        0.619  10.470   7.266  0.00  0.00    +0.090 C 
ATOM     12  C   LIG    1        0.962  11.908   6.862  0.00  0.00    +0.010 C 
ATOM     13  C   LIG    1        1.605  12.624   8.052  0.00  0.00    +0.220 C 
ATOM     14  O   LIG    1        2.766  11.904   8.470  0.00  0.00    -0.380 OA
ATOM     15  C   LIG    1        2.500  10.569   8.904  0.00  0.00    +0.220 C 
ATOM     16  C   LIG    1        1.893   9.769   7.748  0.00  0.00    +0.010 C 
ENDBRANCH   6  11
ENDBRANCH   2   3
BRANCH   2  17
ATOM     17  C   LIG    1       -3.598   6.671   2.558  0.00  0.00    +0.150 C 
BRANCH  17  18
ATOM     18  C   LIG    1       -3.345   6.200   1.150  0.00  0.00    -0.160 A 
ATOM     19  C   LIG    1       -3.697   6.824   0.017  0.00  0.00    +0.220 A 
ATOM     20  O   LIG    1       -3.305   6.104  -1.049  0.00  0.00    -0.190 OA
ATOM     21  C   LIG    1       -2.677   4.975  -0.663  0.00  0.00    +0.050 A 
ATOM     22  C   LIG    1       -2.096   3.921  -1.353  0.00  0.00    +0.030 A 
ATOM     23  C   LIG    1       -1.512   2.875  -0.665  0.00  0.00    -0.070 A 
ATOM     24  C   LIG    1       -1.501   2.866   0.723  0.00  0.00    -0.110 A 
ATOM     25  C   LIG    1       -0.802   1.617   1.223  0.00  0.00    +0.070 C 
ATOM     26  C   LIG    1       -0.013   1.086   0.008  0.00  0.00    +0.030 C 
ATOM     27  C   LIG    1       -2.074   3.906   1.427  0.00  0.00    +0.060 A 
ATOM     28  C   LIG    1       -0.825   1.630  -1.186  0.00  0.00    +0.080 C 
ATOM     29  C   LIG    1       -2.664   4.965   0.742  0.00  0.00    -0.110 A 
ENDBRANCH  17  18
ENDBRANCH   2  17
TORSDOF 4
