REMARK  Name = ZINCrH000004tY04.0
REMARK                            x       y       z     vdW  Elec       q    Type
REMARK                         _______ _______ _______ _____ _____    ______ ____
ROOT
ATOM      1  O   LIG    1       -4.648   8.592   1.694  0.00  0.00    -0.710 OA
ATOM      2  C   LIG    1       -4.235   7.841   2.747  0.00  0.00    +0.360 C 
ATOM      3  C   LIG    1       -3.586   6.671   2.532  0.00  0.00    -0.230 C 
ENDROOT
BRANCH   3   4
ATOM      4  C   LIG    1       -3.329   6.214   1.157  0.00  0.00    -0.070 A 
ATOM      5  C   LIG    1       -3.676   6.845   0.006  0.00  0.00    +0.200 A 
ATOM      6  O   LIG    1       -3.271   6.119  -1.052  0.00  0.00    -0.210 OA
ATOM      7  C   LIG    1       -2.646   4.990  -0.659  0.00  0.00    +0.050 A 
ATOM      8  C   LIG    1       -2.060   3.938  -1.350  0.00  0.00    +0.020 A 
ATOM      9  C   LIG    1       -1.480   2.890  -0.662  0.00  0.00    -0.080 A 
ATOM     10  C   LIG    1       -1.476   2.878   0.726  0.00  0.00    -0.130 A 
ATOM     11  C   LIG    1       -0.778   1.628   1.227  0.00  0.00    +0.070 C 
ATOM     12  C   LIG    1        0.019   1.101   0.015  0.00  0.00    +0.030 C 
ATOM     13  C   LIG    1       -2.055   3.916   1.429  0.00  0.00    +0.060 A 
ATOM     14  C   LIG    1       -0.788   1.647  -1.182  0.00  0.00    +0.070 C 
ATOM     15  C   LIG    1       -2.641   4.975   0.745  0.00  0.00    -0.120 A 
ENDBRANCH   3   4
BRANCH   2  16
ATOM     16  N   LIG    1       -4.470   8.260   4.008  0.00  0.00    -0.570 N 
ATOM     17  H   LIG    1       -4.243   7.690   4.760  0.00  0.00    +0.430 HD
BRANCH  16  18
ATOM     18  C   LIG    1       -5.011   9.448   4.220  0.00  0.00    +0.490 C 
ATOM     19  C   LIG    1       -5.219  10.066   5.478  0.00  0.00    -0.100 C 
ATOM     20  C   LIG    1       -5.790  11.266   5.270  0.00  0.00    +0.220 C 
ATOM     21  N   LIG    1       -5.971  11.450   3.924  0.00  0.00    -0.460 N 
ATOM     22  H   LIG    1       -6.367  12.231   3.506  0.00  0.00    +0.460 HD
ATOM     23  N   LIG    1       -5.487  10.317   3.256  0.00  0.00    -0.420 NA
ATOM     24  H   LIG    1       -5.487  10.170   2.297  0.00  0.00    +0.470 HD
BRANCH  20  25
ATOM     25  C   LIG    1       -6.175  12.249   6.346  0.00  0.00    +0.080 C 
ATOM     26  C   LIG    1       -7.682  12.516   6.280  0.00  0.00    +0.010 C 
ATOM     27  C   LIG    1       -8.051  13.574   7.324  0.00  0.00    +0.220 C 
ATOM     28  O   LIG    1       -7.295  14.762   7.084  0.00  0.00    -0.380 OA
ATOM     29  C   LIG    1       -5.880  14.583   7.179  0.00  0.00    +0.220 C 
ATOM     30  C   LIG    1       -5.425  13.566   6.129  0.00  0.00    +0.010 C 
ENDBRANCH  20  25
ENDBRANCH  16  18
ENDBRANCH   2  16
TORSDOF 4
