REMARK  Name = ZINCpk00000KfLOF.0
REMARK                            x       y       z     vdW  Elec       q    Type
REMARK                         _______ _______ _______ _____ _____    ______ ____
ROOT
ATOM      1  N   LIG    1       -1.166   1.840  -0.367  0.00  0.00    -0.730 N 
ATOM      2  H   LIG    1       -1.189   2.809  -0.350  0.00  0.00    +0.400 HD
ATOM      3  C   LIG    1        0.011   1.191  -0.264  0.00  0.00    +0.560 C 
ATOM      4  O   LIG    1        0.040  -0.024  -0.285  0.00  0.00    -0.510 OA
ENDROOT
BRANCH   3   5
ATOM      5  C   LIG    1        1.268   1.958  -0.132  0.00  0.00    -0.100 A 
ATOM      6  C   LIG    1        1.253   3.350  -0.228  0.00  0.00    +0.040 A 
ATOM      7  C   LIG    1        2.430   4.060  -0.104  0.00  0.00    +0.020 A 
ATOM      8  C   LIG    1        3.623   3.395   0.116  0.00  0.00    +0.030 A 
ATOM      9  C   LIG    1        3.644   2.014   0.214  0.00  0.00    +0.020 A 
ATOM     10  C   LIG    1        2.474   1.293   0.096  0.00  0.00    -0.060 A 
BRANCH  10  11
ATOM     11  C   LIG    1        2.499  -0.209   0.208  0.00  0.00    +0.380 C 
BRANCH  11  12
ATOM     12  N   LIG    1        2.558  -0.798  -1.132  0.00  0.00    -0.360 N 
ATOM     13  C   LIG    1        3.477  -1.666  -1.590  0.00  0.00    +0.450 A 
ATOM     14  N   LIG    1        3.180  -1.953  -2.832  0.00  0.00    -0.550 NA
ATOM     15  C   LIG    1        2.088  -1.284  -3.202  0.00  0.00    +0.390 A 
ATOM     16  N   LIG    1        1.671  -0.563  -2.195  0.00  0.00    -0.280 NA
ENDBRANCH  11  12
ENDBRANCH  10  11
ENDBRANCH   3   5
BRANCH   1  18
ATOM     17  C   LIG    1       -2.639   0.736  -1.978  0.00  0.00    +0.040 C 
ATOM     18  C   LIG    1       -2.411   1.080  -0.504  0.00  0.00    +0.240 C 
BRANCH  18  19
ATOM     19  C   LIG    1       -3.581   1.921   0.010  0.00  0.00    +0.020 C 
BRANCH  19  20
ATOM     20  C   LIG    1       -3.416   2.160   1.512  0.00  0.00    +0.290 C 
BRANCH  20  21
ATOM     21  N   LIG    1       -4.537   2.966   2.004  0.00  0.00    -0.620 N 
ATOM     22  C   LIG    1       -4.541   4.432   2.058  0.00  0.00    +0.250 C 
ATOM     23  C   LIG    1       -6.027   4.832   2.211  0.00  0.00    +0.040 C 
ATOM     24  C   LIG    1       -6.623   3.573   2.882  0.00  0.00    +0.050 C 
ATOM     25  C   LIG    1       -5.690   2.456   2.470  0.00  0.00    +0.510 C 
ATOM     26  O   LIG    1       -5.946   1.273   2.548  0.00  0.00    -0.530 OA
ENDBRANCH  20  21
ENDBRANCH  19  20
ENDBRANCH  18  19
ENDBRANCH   1  18
TORSDOF 7
