REMARK  Name = ZINCpe000000XuHw.0
REMARK                            x       y       z     vdW  Elec       q    Type
REMARK                         _______ _______ _______ _____ _____    ______ ____
ROOT
ATOM      1  C   LIG    1       -1.279   5.982   0.387  0.00  0.00    +0.320 C 
ENDROOT
BRANCH   1  11
ATOM      2  C   LIG    1        3.549   5.931  -0.314  0.00  0.00    +0.100 C 
ATOM      3  C   LIG    1        2.300   5.129  -0.685  0.00  0.00    +0.180 C 
ATOM      4  O   LIG    1        2.319   3.874  -0.000  0.00  0.00    -0.300 OA
ATOM      5  C   LIG    1        1.159   3.164   0.008  0.00  0.00    +0.080 A 
ATOM      6  C   LIG    1        1.178   1.781   0.000  0.00  0.00    +0.030 A 
ATOM      7  C   LIG    1       -0.013   1.076   0.008  0.00  0.00    +0.030 A 
ATOM      8  C   LIG    1       -1.220   1.748   0.017  0.00  0.00    +0.020 A 
ATOM      9  C   LIG    1       -1.247   3.131   0.031  0.00  0.00    +0.000 A 
ATOM     10  C   LIG    1       -0.059   3.842   0.024  0.00  0.00    +0.090 A 
ATOM     11  N   LIG    1       -0.064   5.245   0.034  0.00  0.00    -0.550 N 
ATOM     12  C   LIG    1        1.070   5.905  -0.288  0.00  0.00    +0.490 C 
ATOM     13  O   LIG    1        1.099   7.117  -0.256  0.00  0.00    -0.500 OA
ENDBRANCH   1  11
BRANCH   1  14
ATOM     14  C   LIG    1       -2.100   6.247  -0.877  0.00  0.00    +0.040 C 
BRANCH  14  15
ATOM     15  C   LIG    1       -3.351   7.006  -0.513  0.00  0.00    +0.520 C 
ATOM     16  N   LIG    1       -4.232   7.352  -1.473  0.00  0.00    -0.610 N 
ATOM     17  C   LIG    1       -3.974   6.991  -2.869  0.00  0.00    +0.290 C 
ATOM     18  O   LIG    1       -3.564   7.305   0.642  0.00  0.00    -0.530 OA
BRANCH  16  19
ATOM     19  C   LIG    1       -5.447   8.089  -1.120  0.00  0.00    +0.280 C 
ATOM     20  C   LIG    1       -5.476   9.431  -1.874  0.00  0.00    +0.070 C 
ATOM     21  C   LIG    1       -6.912   9.995  -1.720  0.00  0.00    -0.310 C 
ATOM     22  S   LIG    1       -7.954   8.509  -1.974  0.00  0.00    +2.390 S 
ATOM     23  O   LIG    1       -8.994   8.492  -1.007  0.00  0.00    -0.930 OA
ATOM     24  O   LIG    1       -8.266   8.384  -3.355  0.00  0.00    -0.930 OA
ATOM     25  C   LIG    1       -6.688   7.268  -1.524  0.00  0.00    -0.320 C 
ENDBRANCH  16  19
ENDBRANCH  14  15
ENDBRANCH   1  14
TORSDOF 4
