REMARK  Name = ZINCrD00000hQ527.0
REMARK                            x       y       z     vdW  Elec       q    Type
REMARK                         _______ _______ _______ _____ _____    ______ ____
ROOT
ATOM      1  C   LIG    1        1.280   1.980   0.001  0.00  0.00    +0.210 C 
ATOM      2  C   LIG    1        1.841   2.553  -1.302  0.00  0.00    +0.100 C 
ENDROOT
BRANCH   1   3
ATOM      3  C   LIG    1        0.103   1.091  -0.308  0.00  0.00    +0.550 C 
ATOM      4  N   LIG    1       -1.108   1.633  -0.541  0.00  0.00    -0.600 N 
ATOM      5  C   LIG    1       -1.520   3.067  -0.544  0.00  0.00    +0.280 C 
ATOM      6  C   LIG    1       -3.038   2.893  -0.894  0.00  0.00    +0.000 C 
ATOM      7  C   LIG    1       -3.547   1.683  -0.051  0.00  0.00    +0.060 C 
ATOM      8  C   LIG    1       -2.982   1.824  -2.018  0.00  0.00    +0.060 C 
ATOM      9  C   LIG    1       -2.404   0.961  -0.875  0.00  0.00    +0.070 C 
ATOM     10  O   LIG    1        0.247  -0.113  -0.350  0.00  0.00    -0.510 OA
BRANCH   9  11
ATOM     11  C   LIG    1       -2.398  -0.564  -1.003  0.00  0.00    +0.420 C 
ATOM     12  F   LIG    1       -3.660  -1.003  -1.417  0.00  0.00    -0.200 F 
ATOM     13  F   LIG    1       -2.088  -1.135   0.236  0.00  0.00    -0.180 F 
ENDBRANCH   9  11
ENDBRANCH   1   3
BRANCH   1  14
ATOM     14  C   LIG    1        2.348   1.176   0.696  0.00  0.00    -0.090 A 
ATOM     15  C   LIG    1        2.772  -0.024   0.157  0.00  0.00    +0.100 A 
ATOM     16  C   LIG    1        3.752  -0.761   0.795  0.00  0.00    +0.020 A 
ATOM     17  C   LIG    1        4.308  -0.298   1.973  0.00  0.00    +0.070 A 
ATOM     18  C   LIG    1        3.884   0.901   2.513  0.00  0.00    -0.190 A 
ATOM     19  C   LIG    1        2.908   1.641   1.872  0.00  0.00    +0.090 A 
BRANCH  18  20
ATOM     20  C   LIG    1        4.489   1.405   3.798  0.00  0.00    +0.510 C 
ATOM     21  F   LIG    1        3.486   1.542   4.764  0.00  0.00    -0.180 F 
ATOM     22  F   LIG    1        5.093   2.647   3.573  0.00  0.00    -0.180 F 
ATOM     23  F   LIG    1        5.450   0.494   4.249  0.00  0.00    -0.180 F 
ENDBRANCH  18  20
ENDBRANCH   1  14
BRANCH   1  26
ATOM     24  C   LIG    1       -0.125   3.936   2.976  0.00  0.00    +0.110 C 
ATOM     25  C   LIG    1        0.319   2.808   2.080  0.00  0.00    +0.500 C 
ATOM     26  N   LIG    1        0.849   3.076   0.871  0.00  0.00    -0.730 N 
ATOM     27  H   LIG    1        0.946   3.996   0.577  0.00  0.00    +0.410 HD
ATOM     28  O   LIG    1        0.198   1.659   2.448  0.00  0.00    -0.510 OA
ENDBRANCH   1  26
TORSDOF 5
