REMARK  Name = ZINCpe00000VVGNC.0
REMARK                            x       y       z     vdW  Elec       q    Type
REMARK                         _______ _______ _______ _____ _____    ______ ____
ROOT
ATOM      1  C   LIG    1       -1.602   2.633  -1.369  0.00  0.00    +0.080 C 
ATOM      2  C   LIG    1       -1.332   2.051   0.019  0.00  0.00    +0.280 C 
ENDROOT
BRANCH   2   3
ATOM      3  C   LIG    1       -0.016   1.317   0.009  0.00  0.00    +0.430 A 
ATOM      4  N   LIG    1        0.002  -0.004   0.002  0.00  0.00    -0.620 NA
ATOM      5  C   LIG    1        1.163  -0.656  -0.013  0.00  0.00    +0.630 A 
ATOM      6  N   LIG    1        2.304   0.024  -0.020  0.00  0.00    -0.650 NA
ATOM      7  C   LIG    1        2.282   1.353  -0.012  0.00  0.00    +0.630 A 
ATOM      8  N   LIG    1        1.117   1.997   0.002  0.00  0.00    -0.610 NA
BRANCH   7   9
ATOM      9  N   LIG    1        3.465   2.063  -0.020  0.00  0.00    -0.800 N 
ATOM     10  H   LIG    1        3.448   3.033  -0.015  0.00  0.00    +0.420 HD
ATOM     11  H   LIG    1        4.313   1.593  -0.030  0.00  0.00    +0.420 HD
ENDBRANCH   7   9
BRANCH   5  12
ATOM     12  N   LIG    1        1.181  -2.035  -0.021  0.00  0.00    -0.580 N 
ATOM     13  C   LIG    1        2.458  -2.752  -0.037  0.00  0.00    +0.310 C 
ATOM     14  C   LIG    1       -0.079  -2.784  -0.013  0.00  0.00    +0.310 C 
ENDBRANCH   5  12
ENDBRANCH   2   3
BRANCH   2  15
ATOM     15  O   LIG    1       -1.279   3.127   0.993  0.00  0.00    -0.330 OA
BRANCH  15  16
ATOM     16  C   LIG    1       -2.438   3.471   1.587  0.00  0.00    +0.510 C 
ATOM     17  O   LIG    1       -3.464   2.889   1.300  0.00  0.00    -0.490 OA
BRANCH  16  18
ATOM     18  C   LIG    1       -2.460   4.557   2.589  0.00  0.00    -0.070 A 
ATOM     19  C   LIG    1       -1.281   5.225   2.925  0.00  0.00    +0.070 A 
ATOM     20  C   LIG    1       -1.309   6.242   3.857  0.00  0.00    +0.110 A 
ATOM     21  C   LIG    1       -2.501   6.593   4.466  0.00  0.00    -0.630 A 
ATOM     22  C   LIG    1       -3.673   5.932   4.141  0.00  0.00    +0.120 A 
ATOM     23  C   LIG    1       -3.659   4.917   3.207  0.00  0.00    +0.080 A 
BRANCH  21  24
ATOM     24  S   LIG    1       -2.528   7.889   5.660  0.00  0.00    +2.500 S 
ATOM     25  O   LIG    1       -3.857   8.389   5.604  0.00  0.00    -0.930 OA
ATOM     26  O   LIG    1       -1.421   8.709   5.312  0.00  0.00    -0.930 OA
ATOM     27  C   LIG    1       -2.228   7.053   7.241  0.00  0.00    -0.250 C 
ENDBRANCH  21  24
ENDBRANCH  16  18
ENDBRANCH  15  16
ENDBRANCH   2  15
TORSDOF 7
