REMARK  Name = ZINCpe000000X0nY.1
REMARK                            x       y       z     vdW  Elec       q    Type
REMARK                         _______ _______ _______ _____ _____    ______ ____
ROOT
ATOM      1  S   LIG    1        2.711   0.915  -0.020  0.00  0.00    +2.500 S 
ATOM      2  O   LIG    1        2.414  -0.338   0.581  0.00  0.00    -0.930 OA
ATOM      3  O   LIG    1        3.630   1.816   0.582  0.00  0.00    -0.930 OA
ENDROOT
BRANCH   1   4
ATOM      4  C   LIG    1        1.176   1.781   0.000  0.00  0.00    -0.660 A 
ATOM      5  C   LIG    1       -0.013   1.076   0.008  0.00  0.00    +0.140 A 
ATOM      6  C   LIG    1       -1.222   1.749   0.017  0.00  0.00    +0.010 A 
ATOM      7  C   LIG    1       -1.236   3.133   0.031  0.00  0.00    +0.120 A 
ATOM      8  O   LIG    1       -2.421   3.809   0.047  0.00  0.00    -0.320 OA
ATOM      9  C   LIG    1       -2.740   4.539  -1.140  0.00  0.00    +0.230 C 
ATOM     10  C   LIG    1       -2.084   5.911  -1.121  0.00  0.00    +0.000 C 
ATOM     11  C   LIG    1       -0.567   5.829  -1.153  0.00  0.00    +0.230 C 
ATOM     12  O   LIG    1       -0.068   5.206   0.032  0.00  0.00    -0.310 OA
ATOM     13  C   LIG    1       -0.042   3.841   0.024  0.00  0.00    +0.050 A 
ATOM     14  C   LIG    1        1.165   3.165   0.008  0.00  0.00    +0.140 A 
ENDBRANCH   1   4
BRANCH   1  15
ATOM     15  C   LIG    1        3.087   0.703  -1.781  0.00  0.00    -0.290 C 
BRANCH  15  16
ATOM     16  C   LIG    1        4.413  -0.046  -1.933  0.00  0.00    +0.080 C 
BRANCH  16  23
ATOM     17  C   LIG    1        6.987  -2.710  -6.872  0.00  0.00    +0.050 C 
ATOM     18  C   LIG    1        6.497  -2.520  -5.436  0.00  0.00    +0.110 C 
ATOM     19  C   LIG    1        6.175  -1.046  -5.195  0.00  0.00    +0.300 C 
ATOM     20  N   LIG    1        5.854  -0.858  -3.772  0.00  0.00    -0.610 N 
ATOM     21  C   LIG    1        6.792  -1.387  -2.771  0.00  0.00    +0.270 C 
ATOM     22  C   LIG    1        7.086  -2.853  -3.107  0.00  0.00    +0.170 C 
ATOM     23  C   LIG    1        4.726  -0.222  -3.396  0.00  0.00    +0.530 C 
ATOM     24  O   LIG    1        3.964   0.209  -4.236  0.00  0.00    -0.530 OA
ATOM     25  N   LIG    1        7.543  -2.951  -4.499  0.00  0.00    -0.690 NA
ATOM     26  H   LIG    1        7.856  -3.886  -4.712  0.00  0.00    +0.350 HD
ENDBRANCH  16  23
ENDBRANCH  15  16
ENDBRANCH   1  15
TORSDOF 4
