REMARK  Name = ZINCrD000000C69Y.0
REMARK                            x       y       z     vdW  Elec       q    Type
REMARK                         _______ _______ _______ _____ _____    ______ ____
ROOT
ATOM      1  C   LIG    1        0.622  -3.331  -3.407  0.00  0.00    +0.140 A 
ATOM      2  C   LIG    1        1.795  -3.124  -4.120  0.00  0.00    +0.030 A 
ATOM      3  C   LIG    1        2.916  -2.639  -3.476  0.00  0.00    +0.030 A 
ATOM      4  C   LIG    1        2.871  -2.359  -2.123  0.00  0.00    +0.020 A 
ATOM      5  C   LIG    1        1.704  -2.564  -1.410  0.00  0.00    -0.100 A 
ATOM      6  C   LIG    1        0.581  -3.053  -2.047  0.00  0.00    +0.020 A 
ENDROOT
BRANCH   1   9
ATOM      7  O   LIG    1        0.714  -5.120  -5.376  0.00  0.00    -0.500 OA
ATOM      8  C   LIG    1       -0.385  -4.691  -5.079  0.00  0.00    +0.590 C 
ATOM      9  N   LIG    1       -0.515  -3.823  -4.056  0.00  0.00    -0.670 N 
ATOM     10  H   LIG    1       -1.398  -3.539  -3.771  0.00  0.00    +0.410 HD
BRANCH   8  11
ATOM     11  C   LIG    1       -1.569  -5.117  -5.836  0.00  0.00    -0.230 A 
ATOM     12  C   LIG    1       -1.548  -5.972  -6.865  0.00  0.00    +0.140 A 
ATOM     13  C   LIG    1       -2.793  -6.247  -7.450  0.00  0.00    -0.120 A 
ATOM     14  C   LIG    1       -3.093  -7.100  -8.542  0.00  0.00    +0.150 A 
ATOM     15  C   LIG    1       -4.387  -7.242  -8.975  0.00  0.00    -0.010 A 
ATOM     16  C   LIG    1       -5.419  -6.553  -8.351  0.00  0.00    +0.090 A 
ATOM     17  C   LIG    1       -5.154  -5.720  -7.292  0.00  0.00    +0.040 A 
ATOM     18  F   LIG    1       -2.099  -7.777  -9.158  0.00  0.00    -0.130 F 
ATOM     19  C   LIG    1       -3.843  -5.558  -6.830  0.00  0.00    -0.100 A 
ATOM     20  S   LIG    1       -3.208  -4.582  -5.510  0.00  0.00    +0.140 S 
ENDBRANCH   8  11
ENDBRANCH   1   9
BRANCH   5  21
ATOM     21  C   LIG    1        1.659  -2.258   0.065  0.00  0.00    +0.380 C 
BRANCH  21  22
ATOM     22  N   LIG    1        1.247  -0.866   0.263  0.00  0.00    -0.570 N 
ATOM     23  C   LIG    1        2.101   0.174   0.330  0.00  0.00    +0.520 C 
ATOM     24  C   LIG    1        1.236   1.402   0.538  0.00  0.00    +0.320 C 
ATOM     25  N   LIG    1       -0.133   0.860   0.567  0.00  0.00    -0.730 N 
ATOM     26  H   LIG    1       -0.954   1.364   0.680  0.00  0.00    +0.440 HD
ATOM     27  O   LIG    1        3.310   0.137   0.243  0.00  0.00    -0.460 OA
ATOM     28  C   LIG    1       -0.024  -0.470   0.398  0.00  0.00    +0.700 C 
ATOM     29  O   LIG    1       -0.974  -1.228   0.371  0.00  0.00    -0.540 OA
ENDBRANCH  21  22
ENDBRANCH   5  21
TORSDOF 4
