REMARK  Name = ZINCpk00000KfLQR.0
REMARK                            x       y       z     vdW  Elec       q    Type
REMARK                         _______ _______ _______ _____ _____    ______ ____
ROOT
ATOM      1  C   LIG    1        3.067   1.130   1.694  0.00  0.00    -0.750 A 
ATOM      2  C   LIG    1        4.436   1.281   1.595  0.00  0.00    +0.280 A 
ATOM      3  C   LIG    1        5.277   0.271   2.024  0.00  0.00    -0.110 A 
ATOM      4  C   LIG    1        4.752  -0.897   2.545  0.00  0.00    +0.220 A 
ATOM      5  C   LIG    1        3.383  -1.056   2.642  0.00  0.00    -0.050 A 
ATOM      6  C   LIG    1        2.535  -0.042   2.217  0.00  0.00    +0.350 A 
ENDROOT
BRANCH   1   7
ATOM      7  S   LIG    1        1.996   2.420   1.153  0.00  0.00    +2.690 S 
ATOM      8  O   LIG    1        1.007   2.571   2.163  0.00  0.00    -0.950 OA
ATOM      9  O   LIG    1        2.834   3.483   0.721  0.00  0.00    -0.930 OA
BRANCH   7  10
ATOM     10  N   LIG    1        1.207   1.869  -0.195  0.00  0.00    -1.000 NA
BRANCH  10  12
ATOM     11  C   LIG    1       -0.030  -0.239  -0.253  0.00  0.00    +0.020 C 
ATOM     12  C   LIG    1       -0.127   1.277  -0.071  0.00  0.00    +0.280 C 
ENDBRANCH  10  12
BRANCH  10  13
ATOM     13  C   LIG    1        1.843   1.975  -1.510  0.00  0.00    +0.300 C 
ATOM     14  C   LIG    1        1.371   3.254  -2.204  0.00  0.00    +0.020 C 
ENDBRANCH  10  13
ENDBRANCH   7  10
ENDBRANCH   1   7
BRANCH   3  15
ATOM     15  N   LIG    1        6.745   0.439   1.921  0.00  0.00    +0.030 N 
ATOM     16  O   LIG    1        7.210   1.467   1.463  0.00  0.00    -0.160 OA
ATOM     17  O   LIG    1        7.487  -0.452   2.295  0.00  0.00    -0.160 OA
ENDBRANCH   3  15
BRANCH   6  18
ATOM     18  N   LIG    1        1.151  -0.200   2.314  0.00  0.00    -0.520 N 
ATOM     19  H   LIG    1        0.560   0.514   2.029  0.00  0.00    +0.430 HD
BRANCH  18  20
ATOM     20  N   LIG    1        0.616  -1.391   2.822  0.00  0.00    -0.530 N 
ATOM     21  H   LIG    1        1.206  -2.106   3.107  0.00  0.00    +0.440 HD
ATOM     22  C   LIG    1       -0.720  -1.544   2.916  0.00  0.00    +0.720 C 
ATOM     23  N   LIG    1       -1.541  -0.551   2.520  0.00  0.00    -0.740 N 
ATOM     24  H   LIG    1       -1.171   0.274   2.168  0.00  0.00    +0.390 HD
ATOM     25  O   LIG    1       -1.185  -2.577   3.357  0.00  0.00    -0.550 OA
BRANCH  23  26
ATOM     26  C   LIG    1       -2.993  -0.717   2.621  0.00  0.00    +0.300 C 
BRANCH  26  27
ATOM     27  C   LIG    1       -3.688   0.547   2.110  0.00  0.00    +0.140 C 
ATOM     28 CL   LIG    1       -5.475   0.342   2.235  0.00  0.00    -0.150 Cl
ENDBRANCH  26  27
ENDBRANCH  23  26
ENDBRANCH  18  20
ENDBRANCH   6  18
TORSDOF 9
