REMARK  Name = ZINCkj000005jM4h.1
REMARK                            x       y       z     vdW  Elec       q    Type
REMARK                         _______ _______ _______ _____ _____    ______ ____
ROOT
ATOM      1  N   LIG    1       -0.723   1.572  -1.182  0.00  0.00    -0.390 N 
ATOM      2  C   LIG    1       -0.013   1.086   0.008  0.00  0.00    +0.260 C 
ATOM      3  C   LIG    1       -0.729   1.579   1.267  0.00  0.00    +0.210 C 
ATOM      4  N   LIG    1       -0.764   3.049   1.263  0.00  0.00    -0.530 NA
ATOM      5  C   LIG    1       -1.451   3.551   0.065  0.00  0.00    +0.190 C 
ATOM      6  C   LIG    1       -2.897   3.052   0.057  0.00  0.00    +0.020 C 
ATOM      7  C   LIG    1       -0.729   3.041  -1.185  0.00  0.00    +0.280 C 
ATOM      8  H   LIG    1       -1.673   1.233  -1.169  0.00  0.00    +0.430 HD
ENDROOT
BRANCH   1   9
ATOM      9  C   LIG    1       -0.046   1.083  -2.390  0.00  0.00    +0.280 C 
BRANCH   9  11
ATOM     10  C   LIG    1        0.660  -0.961  -3.641  0.00  0.00    +0.050 C 
ATOM     11  C   LIG    1       -0.150  -0.442  -2.452  0.00  0.00    +0.160 C 
BRANCH  11  12
ATOM     12  O   LIG    1       -1.520  -0.820  -2.607  0.00  0.00    -0.580 OA
ATOM     13  H   LIG    1       -1.661  -1.775  -2.654  0.00  0.00    +0.410 HD
ENDBRANCH  11  12
ENDBRANCH   9  11
ENDBRANCH   1   9
BRANCH   4  14
ATOM     14  C   LIG    1       -1.395   3.563   2.486  0.00  0.00    +0.260 C 
BRANCH  14  15
ATOM     15  C   LIG    1       -0.529   3.234   3.675  0.00  0.00    -0.210 A 
ATOM     16  C   LIG    1       -0.837   2.160   4.490  0.00  0.00    +0.120 A 
ATOM     17  C   LIG    1       -0.010   1.890   5.571  0.00  0.00    -0.050 A 
ATOM     18  C   LIG    1        1.083   2.702   5.806  0.00  0.00    +0.190 A 
ATOM     19  N   LIG    1        1.349   3.724   5.014  0.00  0.00    -0.520 NA
ATOM     20 BR   LIG    1        2.211   2.345   7.281  0.00  0.00    +0.010 Br
ATOM     21  C   LIG    1        0.587   4.010   3.970  0.00  0.00    +0.440 A 
BRANCH  21  22
ATOM     22  N   LIG    1        0.904   5.096   3.162  0.00  0.00    -0.840 N 
ATOM     23  H   LIG    1        1.681   5.640   3.364  0.00  0.00    +0.410 HD
ATOM     24  H   LIG    1        0.348   5.310   2.397  0.00  0.00    +0.410 HD
ENDBRANCH  21  22
ENDBRANCH  14  15
ENDBRANCH   4  14
TORSDOF 6
