REMARK  Name = ZINCkj000005jM4h.0
REMARK                            x       y       z     vdW  Elec       q    Type
REMARK                         _______ _______ _______ _____ _____    ______ ____
ROOT
ATOM      1  N   LIG    1        2.330   1.212   1.069  0.00  0.00    -0.380 N 
ATOM      2  C   LIG    1        1.618   1.567   2.304  0.00  0.00    +0.280 C 
ATOM      3  C   LIG    1        2.195   0.769   3.474  0.00  0.00    +0.210 C 
ATOM      4  N   LIG    1        3.627   1.072   3.611  0.00  0.00    -0.530 NA
ATOM      5  C   LIG    1        4.350   0.744   2.374  0.00  0.00    +0.130 C 
ATOM      6  C   LIG    1        5.828   1.104   2.536  0.00  0.00    +0.080 C 
ATOM      7  C   LIG    1        3.755   1.543   1.212  0.00  0.00    +0.280 C 
ATOM      8  H   LIG    1        2.231   0.223   0.897  0.00  0.00    +0.420 HD
ENDROOT
BRANCH   1   9
ATOM      9  C   LIG    1        1.764   1.965  -0.057  0.00  0.00    +0.220 C 
BRANCH   9  11
ATOM     10  C   LIG    1        1.826   2.284  -2.534  0.00  0.00    +0.050 C 
ATOM     11  C   LIG    1        2.400   1.484  -1.363  0.00  0.00    +0.200 C 
BRANCH  11  12
ATOM     12  O   LIG    1        2.115   0.096  -1.549  0.00  0.00    -0.560 OA
ATOM     13  H   LIG    1        1.172  -0.108  -1.599  0.00  0.00    +0.390 HD
ENDBRANCH  11  12
ENDBRANCH   9  11
ENDBRANCH   1   9
BRANCH   4  14
ATOM     14  C   LIG    1        4.207   0.367   4.762  0.00  0.00    +0.260 C 
BRANCH  14  15
ATOM     15  C   LIG    1        3.557   0.856   6.030  0.00  0.00    -0.210 A 
ATOM     16  C   LIG    1        2.634   0.069   6.694  0.00  0.00    +0.120 A 
ATOM     17  C   LIG    1        2.063   0.557   7.861  0.00  0.00    -0.050 A 
ATOM     18  C   LIG    1        2.423   1.810   8.318  0.00  0.00    +0.190 A 
ATOM     19  N   LIG    1        3.304   2.542   7.660  0.00  0.00    -0.520 NA
ATOM     20 BR   LIG    1        1.645   2.486   9.903  0.00  0.00    +0.010 Br
ATOM     21  C   LIG    1        3.873   2.109   6.546  0.00  0.00    +0.440 A 
BRANCH  21  22
ATOM     22  N   LIG    1        4.795   2.913   5.886  0.00  0.00    -0.840 N 
ATOM     23  H   LIG    1        5.080   3.751   6.283  0.00  0.00    +0.410 HD
ATOM     24  H   LIG    1        5.154   2.636   5.029  0.00  0.00    +0.410 HD
ENDBRANCH  21  22
ENDBRANCH  14  15
ENDBRANCH   4  14
TORSDOF 6
