REMARK  Name = ZINCpe000027pH4T.0
REMARK                            x       y       z     vdW  Elec       q    Type
REMARK                         _______ _______ _______ _____ _____    ______ ____
ROOT
ATOM      1  C   LIG    1        1.369  -2.688   1.398  0.00  0.00    +0.530 C 
ATOM      2  N   LIG    1        1.406  -4.015   1.633  0.00  0.00    -0.620 N 
ATOM      3  C   LIG    1        1.304  -5.069   0.613  0.00  0.00    +0.260 C 
ATOM      4  C   LIG    1        1.424  -6.424   1.341  0.00  0.00    +0.090 C 
ATOM      5  C   LIG    1        2.145  -6.049   2.662  0.00  0.00    -0.470 C 
ATOM      6  C   LIG    1        1.548  -4.650   2.956  0.00  0.00    +0.310 C 
ATOM      7  O   LIG    1        1.457  -1.907   2.321  0.00  0.00    -0.520 OA
ENDROOT
BRANCH   5   8
ATOM      8  S   LIG    1        1.734  -7.222   3.983  0.00  0.00    +2.620 S 
ATOM      9  O   LIG    1        0.342  -7.507   3.981  0.00  0.00    -0.950 OA
ATOM     10  O   LIG    1        2.410  -6.877   5.185  0.00  0.00    -0.940 OA
BRANCH   8  11
ATOM     11  N   LIG    1        2.442  -8.642   3.510  0.00  0.00    -1.120 NA
ATOM     12  H   LIG    1        1.891  -9.411   3.294  0.00  0.00    +0.420 HD
BRANCH  11  13
ATOM     13  C   LIG    1        3.901  -8.737   3.417  0.00  0.00    +0.250 C 
ATOM     14  C   LIG    1        4.312 -10.209   3.333  0.00  0.00    +0.040 C 
ENDBRANCH  11  13
ENDBRANCH   8  11
ENDBRANCH   5   8
BRANCH   1  15
ATOM     15  C   LIG    1        1.219  -2.176  -0.011  0.00  0.00    +0.110 C 
BRANCH  15  21
ATOM     16  C   LIG    1        2.403   0.036  -0.012  0.00  0.00    +0.160 A 
ATOM     17  C   LIG    1        2.386   1.425  -0.001  0.00  0.00    +0.020 A 
ATOM     18  C   LIG    1        1.181   2.100   0.023  0.00  0.00    +0.030 A 
ATOM     19  C   LIG    1       -0.008   1.394   0.035  0.00  0.00    +0.000 A 
ATOM     20  C   LIG    1        0.005   0.011   0.024  0.00  0.00    +0.030 A 
ATOM     21  C   LIG    1        1.206  -0.669   0.001  0.00  0.00    -0.100 A 
BRANCH  16  23
ATOM     22  C   LIG    1        4.669  -0.139  -0.712  0.00  0.00    +0.540 C 
ATOM     23  N   LIG    1        3.621  -0.650  -0.035  0.00  0.00    -0.670 N 
ATOM     24  H   LIG    1        3.712  -1.493   0.435  0.00  0.00    +0.410 HD
ATOM     25  O   LIG    1        4.581   0.956  -1.233  0.00  0.00    -0.520 OA
BRANCH  22  27
ATOM     26  C   LIG    1        6.953  -0.403  -1.487  0.00  0.00    +0.160 C 
ATOM     27  C   LIG    1        5.919  -0.907  -0.820  0.00  0.00    -0.090 C 
ENDBRANCH  22  27
ENDBRANCH  16  23
ENDBRANCH  15  21
ENDBRANCH   1  15
TORSDOF 7
