REMARK  Name = ZINCpk00000RRyH9.0
REMARK                            x       y       z     vdW  Elec       q    Type
REMARK                         _______ _______ _______ _____ _____    ______ ____
ROOT
ATOM      1  N   LIG    1        2.779  -3.467   4.442  0.00  0.00    -0.740 N 
ATOM      2  H   LIG    1        1.927  -3.825   4.145  0.00  0.00    +0.400 HD
ATOM      3  C   LIG    1        3.264  -3.800   5.654  0.00  0.00    +0.710 C 
ATOM      4  N   LIG    1        2.567  -4.631   6.454  0.00  0.00    -0.740 N 
ATOM      5  H   LIG    1        1.716  -4.989   6.157  0.00  0.00    +0.400 HD
ATOM      6  O   LIG    1        4.331  -3.352   6.026  0.00  0.00    -0.580 OA
ENDROOT
BRANCH   4   7
ATOM      7  C   LIG    1        3.094  -4.994   7.772  0.00  0.00    +0.260 C 
ATOM      8  C   LIG    1        1.937  -5.386   8.695  0.00  0.00    +0.040 C 
ATOM      9  C   LIG    1        2.463  -5.541  10.127  0.00  0.00    +0.180 C 
ATOM     10  C   LIG    1        3.699  -6.407  10.085  0.00  0.00    +0.270 A 
ATOM     11  N   LIG    1        4.285  -7.014  11.077  0.00  0.00    -0.540 NA
ATOM     12  C   LIG    1        5.351  -7.683  10.630  0.00  0.00    +0.420 A 
ATOM     13  N   LIG    1        5.454  -7.504   9.337  0.00  0.00    -0.310 NA
ATOM     14  N   LIG    1        4.391  -6.677   8.962  0.00  0.00    -0.370 N 
ATOM     15  C   LIG    1        4.058  -6.177   7.628  0.00  0.00    +0.310 C 
ENDBRANCH   4   7
BRANCH   1  17
ATOM     16  C   LIG    1        4.567  -3.368   2.776  0.00  0.00    +0.040 C 
ATOM     17  C   LIG    1        3.537  -2.564   3.572  0.00  0.00    +0.310 C 
BRANCH  17  18
ATOM     18  C   LIG    1        2.594  -1.874   2.620  0.00  0.00    -0.090 A 
ATOM     19  C   LIG    1        1.552  -2.579   2.049  0.00  0.00    +0.020 A 
ATOM     20  C   LIG    1        0.686  -1.950   1.174  0.00  0.00    +0.030 A 
ATOM     21  C   LIG    1        0.861  -0.609   0.868  0.00  0.00    +0.050 A 
ATOM     22  O   LIG    1        0.002  -0.004   0.002  0.00  0.00    -0.310 OA
ATOM     23  C   LIG    1       -0.017   1.427   0.010  0.00  0.00    +0.220 C 
ATOM     24  C   LIG    1        1.433   1.928  -0.001  0.00  0.00    +0.230 C 
ATOM     25  O   LIG    1        2.092   1.420   1.164  0.00  0.00    -0.310 OA
ATOM     26  C   LIG    1        1.907   0.101   1.445  0.00  0.00    +0.060 A 
ATOM     27  C   LIG    1        2.773  -0.536   2.321  0.00  0.00    +0.040 A 
ENDBRANCH  17  18
ENDBRANCH   1  17
TORSDOF 3
