REMARK  Name = ZINCpe000000V6xh.0
REMARK                            x       y       z     vdW  Elec       q    Type
REMARK                         _______ _______ _______ _____ _____    ______ ____
ROOT
ATOM      1  N   LIG    1        9.143  -2.980   1.464  0.00  0.00    -1.120 NA
ATOM      2  H   LIG    1        8.836  -3.373   2.296  0.00  0.00    +0.420 HD
ENDROOT
BRANCH   1   3
ATOM      3  S   LIG    1       10.665  -2.333   1.366  0.00  0.00    +2.610 S 
ATOM      4  O   LIG    1       11.229  -2.937   0.210  0.00  0.00    -0.940 OA
ATOM      5  O   LIG    1       11.223  -2.553   2.654  0.00  0.00    -0.940 OA
BRANCH   3   6
ATOM      6  C   LIG    1       10.386  -0.562   1.087  0.00  0.00    -0.300 C 
BRANCH   6   7
ATOM      7  C   LIG    1       11.722   0.180   1.150  0.00  0.00    -0.120 C 
ATOM      8  C   LIG    1       12.127   1.011  -0.070  0.00  0.00    +0.070 C 
ATOM      9  C   LIG    1       12.845  -0.306   0.231  0.00  0.00    +0.040 C 
BRANCH   7  10
ATOM     10  C   LIG    1       12.118   0.711   2.529  0.00  0.00    +0.150 C 
BRANCH  10  11
ATOM     11  C   LIG    1       11.140   1.774   2.958  0.00  0.00    +0.460 C 
ATOM     12  O   LIG    1       10.272   2.138   2.200  0.00  0.00    -0.500 OA
BRANCH  11  14
ATOM     13  C   LIG    1       10.257   3.335   4.528  0.00  0.00    +0.250 C 
ATOM     14  O   LIG    1       11.232   2.316   4.183  0.00  0.00    -0.360 OA
ENDBRANCH  11  14
ENDBRANCH  10  11
ENDBRANCH   7  10
ENDBRANCH   6   7
ENDBRANCH   3   6
ENDBRANCH   1   3
BRANCH   1  15
ATOM     15  C   LIG    1        8.261  -2.959   0.295  0.00  0.00    +0.450 C 
BRANCH  15  16
ATOM     16  C   LIG    1        7.112  -3.909   0.514  0.00  0.00    +0.170 A 
ATOM     17  N   LIG    1        5.959  -3.621   1.065  0.00  0.00    -0.450 NA
ATOM     18  C   LIG    1        5.252  -4.774   1.050  0.00  0.00    +0.210 A 
ATOM     19  N   LIG    1        6.012  -5.686   0.502  0.00  0.00    -0.360 NA
ATOM     20  O   LIG    1        7.079  -5.204   0.185  0.00  0.00    +0.100 OA
BRANCH  18  21
ATOM     21  C   LIG    1        3.873  -4.968   1.565  0.00  0.00    +0.020 A 
ATOM     22  C   LIG    1        3.249  -6.216   1.491  0.00  0.00    +0.000 A 
ATOM     23  C   LIG    1        1.966  -6.353   1.982  0.00  0.00    +0.270 A 
ATOM     24  N   LIG    1        1.332  -5.327   2.515  0.00  0.00    -0.470 NA
ATOM     25  C   LIG    1        1.885  -4.133   2.604  0.00  0.00    +0.270 A 
ATOM     26  C   LIG    1        3.165  -3.909   2.137  0.00  0.00    +0.020 A 
ENDBRANCH  18  21
ENDBRANCH  15  16
ENDBRANCH   1  15
TORSDOF 9
