REMARK  Name = ZINCtV00000L6l1f.0
REMARK                            x       y       z     vdW  Elec       q    Type
REMARK                         _______ _______ _______ _____ _____    ______ ____
ROOT
ATOM      1  C   LIG    1        4.854   5.923  -1.294  0.00  0.00    +0.440 A 
ATOM      2  C   LIG    1        4.126   6.148  -2.444  0.00  0.00    -0.060 A 
ATOM      3  C   LIG    1        2.973   5.399  -2.677  0.00  0.00    +0.230 A 
ATOM      4  N   LIG    1        2.585   4.490  -1.809  0.00  0.00    -0.460 NA
ATOM      5  C   LIG    1        3.279   4.260  -0.689  0.00  0.00    +0.300 A 
ATOM      6  C   LIG    1        3.088   3.370   0.375  0.00  0.00    -0.160 A 
ATOM      7  C   LIG    1        4.136   3.577   1.281  0.00  0.00    +0.040 A 
ATOM      8  N   LIG    1        4.922   4.515   0.811  0.00  0.00    -0.250 NA
ATOM      9  C   LIG    1        2.168   5.633  -3.929  0.00  0.00    +0.160 C 
ATOM     10  N   LIG    1        4.419   4.968  -0.413  0.00  0.00    -0.320 N 
ENDROOT
BRANCH   6  11
ATOM     11  C   LIG    1        1.982   2.397   0.520  0.00  0.00    -0.010 A 
ATOM     12  C   LIG    1        2.248   1.027   0.509  0.00  0.00    +0.020 A 
ATOM     13  C   LIG    1        1.213   0.125   0.644  0.00  0.00    +0.000 A 
ATOM     14  C   LIG    1       -0.088   0.576   0.783  0.00  0.00    -0.080 A 
ATOM     15  C   LIG    1       -0.358   1.933   0.799  0.00  0.00    +0.000 A 
ATOM     16  C   LIG    1       -1.215  -0.415   0.923  0.00  0.00    +0.090 C 
ATOM     17  C   LIG    1        0.669   2.845   0.666  0.00  0.00    +0.040 A 
ENDBRANCH   6  11
BRANCH   7  18
ATOM     18  C   LIG    1        4.331   2.840   2.580  0.00  0.00    +0.560 C 
ATOM     19  F   LIG    1        3.085   2.459   3.091  0.00  0.00    -0.150 F 
ATOM     20  F   LIG    1        4.976   3.675   3.498  0.00  0.00    -0.160 F 
ATOM     21  F   LIG    1        5.111   1.700   2.357  0.00  0.00    -0.160 F 
ENDBRANCH   7  18
BRANCH   1  22
ATOM     22  N   LIG    1        5.998   6.647  -1.035  0.00  0.00    -0.670 N 
ATOM     23  H   LIG    1        6.737   6.629  -1.664  0.00  0.00    +0.430 HD
BRANCH  22  28
ATOM     24  C   LIG    1        6.389   9.734   3.708  0.00  0.00    +0.100 C 
ATOM     25  C   LIG    1        6.285   8.914   2.447  0.00  0.00    -0.110 A 
ATOM     26  C   LIG    1        7.391   8.760   1.631  0.00  0.00    +0.050 A 
ATOM     27  C   LIG    1        7.299   8.009   0.476  0.00  0.00    -0.030 A 
ATOM     28  C   LIG    1        6.095   7.408   0.134  0.00  0.00    +0.180 A 
ATOM     29  C   LIG    1        4.984   7.568   0.953  0.00  0.00    -0.040 A 
ATOM     30  C   LIG    1        5.085   8.316   2.110  0.00  0.00    +0.040 A 
ENDBRANCH  22  28
ENDBRANCH   1  22
TORSDOF 4
