REMARK  Name = ZINCpk00001AZiZx.0
REMARK                            x       y       z     vdW  Elec       q    Type
REMARK                         _______ _______ _______ _____ _____    ______ ____
ROOT
ATOM      1  N   LIG    1        1.186   3.462   0.009  0.00  0.00    -0.480 N 
ATOM      2  C   LIG    1        0.401   3.992  -1.114  0.00  0.00    +0.200 C 
ATOM      3  C   LIG    1        0.269   5.511  -0.969  0.00  0.00    +0.310 C 
ATOM      4  N   LIG    1        1.616   6.085  -0.826  0.00  0.00    -0.590 N 
ATOM      5  C   LIG    1        2.513   5.512   0.189  0.00  0.00    +0.310 C 
ATOM      6  C   LIG    1        2.018   7.109  -1.605  0.00  0.00    +0.650 C 
ATOM      7  O   LIG    1        3.134   7.571  -1.473  0.00  0.00    -0.570 OA
ATOM      8  C   LIG    1        2.555   3.992  -0.001  0.00  0.00    +0.210 C 
ENDROOT
BRANCH   1  14
ATOM      9  C   LIG    1        3.726  -0.595  -0.037  0.00  0.00    +0.130 C 
ATOM     10  C   LIG    1        2.390   0.100  -0.020  0.00  0.00    +0.160 A 
ATOM     11  C   LIG    1        1.231  -0.650  -0.013  0.00  0.00    -0.070 A 
ATOM     12  C   LIG    1        0.002  -0.004   0.002  0.00  0.00    +0.090 A 
ATOM     13  C   LIG    1       -0.017   1.379   0.010  0.00  0.00    -0.050 A 
ATOM     14  C   LIG    1        1.190   2.072   0.002  0.00  0.00    +0.320 A 
ATOM     15  N   LIG    1        2.342   1.419  -0.013  0.00  0.00    -0.520 NA
ENDBRANCH   1  14
BRANCH   6  16
ATOM     16  O   LIG    1        1.183   7.620  -2.529  0.00  0.00    -0.340 OA
BRANCH  16  17
ATOM     17  C   LIG    1        1.683   8.722  -3.332  0.00  0.00    +0.320 C 
BRANCH  17  18
ATOM     18  C   LIG    1        0.601   9.166  -4.319  0.00  0.00    +0.100 C 
ATOM     19  C   LIG    1        0.847   8.897  -5.805  0.00  0.00    +0.070 C 
ATOM     20  C   LIG    1        0.936  10.324  -5.261  0.00  0.00    +0.110 C 
BRANCH  18  21
ATOM     21  N   LIG    1       -0.777   9.067  -3.832  0.00  0.00    -0.130 N 
ATOM     22  N   LIG    1       -1.720   9.888  -4.135  0.00  0.00    -0.300 NA
ATOM     23  C   LIG    1       -2.823   9.505  -3.532  0.00  0.00    +0.180 A 
ATOM     24  C   LIG    1       -2.484   8.361  -2.806  0.00  0.00    +0.160 A 
ATOM     25  N   LIG    1       -1.208   8.151  -3.039  0.00  0.00    -0.260 NA
ENDBRANCH  18  21
ENDBRANCH  17  18
ENDBRANCH  16  17
ENDBRANCH   6  16
TORSDOF 5
