REMARK  Name = ZINCrD00000cC7av.0
REMARK                            x       y       z     vdW  Elec       q    Type
REMARK                         _______ _______ _______ _____ _____    ______ ____
ROOT
ATOM      1  C   LIG    1       -5.441   3.867  -1.984  0.00  0.00    +0.270 C 
ENDROOT
BRANCH   1   2
ATOM      2  N   LIG    1       -4.356   3.196  -1.263  0.00  0.00    -0.610 N 
ATOM      3  C   LIG    1       -3.073   3.495  -1.548  0.00  0.00    +0.520 C 
ATOM      4  O   LIG    1       -2.817   4.319  -2.400  0.00  0.00    -0.530 OA
ATOM      5  C   LIG    1       -4.666   2.201  -0.234  0.00  0.00    +0.290 C 
BRANCH   3   6
ATOM      6  C   LIG    1       -1.957   2.805  -0.807  0.00  0.00    +0.000 C 
ATOM      7  C   LIG    1       -1.981   3.186   0.688  0.00  0.00    +0.050 C 
ATOM      8  C   LIG    1       -0.510   3.314   1.135  0.00  0.00    +0.050 C 
ATOM      9  C   LIG    1        0.351   3.006  -0.107  0.00  0.00    -0.020 C 
ATOM     10  C   LIG    1       -0.581   3.312  -1.306  0.00  0.00    +0.090 C 
BRANCH   9  11
ATOM     11  C   LIG    1        1.584   3.912  -0.142  0.00  0.00    +0.460 C 
ATOM     12  F   LIG    1        2.310   3.666  -1.313  0.00  0.00    -0.180 F 
ATOM     13  F   LIG    1        2.389   3.647   0.971  0.00  0.00    -0.180 F 
ATOM     14  F   LIG    1        1.179   5.251  -0.117  0.00  0.00    -0.180 F 
ENDBRANCH   9  11
ENDBRANCH   3   6
ENDBRANCH   1   2
BRANCH   1  15
ATOM     15  C   LIG    1       -5.799   3.060  -3.234  0.00  0.00    +0.270 C 
BRANCH  15  17
ATOM     16  C   LIG    1       -8.167   3.432  -3.669  0.00  0.00    +0.600 C 
ATOM     17  N   LIG    1       -6.884   3.731  -3.954  0.00  0.00    -0.600 N 
ATOM     18  C   LIG    1       -6.575   4.726  -4.983  0.00  0.00    +0.300 C 
ATOM     19  O   LIG    1       -8.427   2.679  -2.750  0.00  0.00    -0.530 OA
BRANCH  16  21
ATOM     20  C   LIG    1      -10.591   3.896  -4.236  0.00  0.00    +0.060 A 
ATOM     21  C   LIG    1       -9.256   4.018  -4.473  0.00  0.00    -0.080 A 
ATOM     22  N   LIG    1       -9.115   4.786  -5.586  0.00  0.00    -0.460 NA
ATOM     23  C   LIG    1      -10.298   5.110  -6.015  0.00  0.00    +0.430 A 
ATOM     24  O   LIG    1      -11.223   4.580  -5.203  0.00  0.00    -0.190 OA
BRANCH  20  26
ATOM     25  C   LIG    1      -12.074   4.098  -2.259  0.00  0.00    +0.040 C 
ATOM     26  C   LIG    1      -11.236   3.137  -3.105  0.00  0.00    +0.100 C 
ATOM     27  C   LIG    1      -12.137   2.040  -3.675  0.00  0.00    +0.040 C 
ENDBRANCH  20  26
ENDBRANCH  16  21
ENDBRANCH  15  17
ENDBRANCH   1  15
TORSDOF 7
