REMARK  Name = ZINCpe000000SQos.0
REMARK                            x       y       z     vdW  Elec       q    Type
REMARK                         _______ _______ _______ _____ _____    ______ ____
ROOT
ATOM      1  N   LIG    1        4.241  -0.297  -5.782  0.00  0.00    -0.710 N 
ATOM      2  H   LIG    1        4.994   0.300  -5.909  0.00  0.00    +0.410 HD
ATOM      3  C   LIG    1        3.870  -0.661  -4.539  0.00  0.00    +0.520 C 
ATOM      4  O   LIG    1        2.928  -1.409  -4.381  0.00  0.00    -0.530 OA
ENDROOT
BRANCH   3   5
ATOM      5  C   LIG    1        4.627  -0.140  -3.344  0.00  0.00    +0.000 C 
ATOM      6  C   LIG    1        4.543   1.402  -3.266  0.00  0.00    +0.080 C 
ATOM      7  C   LIG    1        4.446   1.693  -1.784  0.00  0.00    +0.520 C 
ATOM      8  N   LIG    1        4.112   0.576  -1.115  0.00  0.00    -0.620 N 
ATOM      9  O   LIG    1        4.640   2.777  -1.275  0.00  0.00    -0.520 OA
ATOM     10  C   LIG    1        3.946  -0.562  -2.026  0.00  0.00    +0.300 C 
BRANCH   8  11
ATOM     11  C   LIG    1        3.942   0.504   0.339  0.00  0.00    +0.420 C 
BRANCH  11  12
ATOM     12  C   LIG    1        2.508   0.802   0.692  0.00  0.00    -0.040 A 
ATOM     13  C   LIG    1        1.518  -0.103   0.796  0.00  0.00    -0.040 A 
ATOM     14  C   LIG    1        0.346   0.610   1.139  0.00  0.00    -0.070 A 
ATOM     15  C   LIG    1        0.692   1.906   1.234  0.00  0.00    +0.170 A 
ATOM     16  O   LIG    1        2.001   2.017   0.959  0.00  0.00    -0.170 OA
ENDBRANCH  11  12
ENDBRANCH   8  11
ENDBRANCH   3   5
BRANCH   1  17
ATOM     17  C   LIG    1        3.505  -0.804  -6.944  0.00  0.00    +0.280 C 
BRANCH  17  19
ATOM     18  C   LIG    1        5.582  -0.995  -8.319  0.00  0.00    +0.060 C 
ATOM     19  C   LIG    1        4.200  -0.345  -8.227  0.00  0.00    +0.090 C 
ATOM     20  C   LIG    1        3.360  -0.760  -9.437  0.00  0.00    +0.020 C 
BRANCH  19  21
ATOM     21  N   LIG    1        4.346   1.116  -8.210  0.00  0.00    -0.530 NA
ATOM     22  C   LIG    1        3.039   1.774  -8.068  0.00  0.00    +0.150 C 
ATOM     23  C   LIG    1        3.242   3.290  -7.994  0.00  0.00    +0.220 C 
ATOM     24  O   LIG    1        3.946   3.729  -9.159  0.00  0.00    -0.380 OA
ATOM     25  C   LIG    1        5.223   3.108  -9.328  0.00  0.00    +0.220 C 
ATOM     26  C   LIG    1        5.040   1.591  -9.416  0.00  0.00    +0.150 C 
ENDBRANCH  19  21
ENDBRANCH  17  19
ENDBRANCH   1  17
TORSDOF 6
