REMARK  Name = ZINCnE000008JjoE.0
REMARK                            x       y       z     vdW  Elec       q    Type
REMARK                         _______ _______ _______ _____ _____    ______ ____
ROOT
ATOM      1  C   LIG    1       -3.178   4.770   0.044  0.00  0.00    +0.390 A 
ATOM      2  N   LIG    1       -4.466   4.916   0.051  0.00  0.00    -0.470 NA
ATOM      3  C   LIG    1       -5.314   3.855   0.050  0.00  0.00    +0.130 A 
ATOM      4  C   LIG    1       -4.782   2.547   0.040  0.00  0.00    -0.090 A 
ATOM      5  C   LIG    1       -3.318   2.398   0.031  0.00  0.00    +0.320 A 
ATOM      6  N   LIG    1       -2.525   1.353   0.021  0.00  0.00    -0.480 NA
ATOM      7  C   LIG    1       -1.233   1.760   0.018  0.00  0.00    +0.070 A 
ATOM      8  C   LIG    1       -0.013   1.076   0.008  0.00  0.00    +0.060 A 
ATOM      9  C   LIG    1        1.160   1.776   0.001  0.00  0.00    +0.020 A 
ATOM     10  C   LIG    1        1.156   3.163   0.008  0.00  0.00    +0.030 A 
ATOM     11  C   LIG    1       -0.034   3.859   0.023  0.00  0.00    +0.040 A 
ATOM     12  C   LIG    1       -1.237   3.167   0.031  0.00  0.00    +0.040 A 
ATOM     13  C   LIG    1       -5.634   1.446   0.038  0.00  0.00    +0.080 A 
ATOM     14  C   LIG    1       -6.999   1.643   0.045  0.00  0.00    +0.000 A 
ATOM     15  C   LIG    1       -7.526   2.927   0.056  0.00  0.00    +0.050 A 
ATOM     16  C   LIG    1       -6.699   4.029   0.058  0.00  0.00    +0.060 A 
ATOM     17  N   LIG    1       -2.564   3.552   0.046  0.00  0.00    -0.450 N 
ENDROOT
BRANCH   1  18
ATOM     18  C   LIG    1       -2.317   6.007   0.047  0.00  0.00    +0.100 C 
BRANCH  18  19
ATOM     19  C   LIG    1       -3.209   7.250   0.059  0.00  0.00    +0.070 C 
BRANCH  19  20
ATOM     20  C   LIG    1       -2.334   8.505   0.062  0.00  0.00    -0.070 C 
BRANCH  20  22
ATOM     21  O   LIG    1       -4.426   9.609   0.080  0.00  0.00    -0.690 OA
ATOM     22  C   LIG    1       -3.213   9.729   0.074  0.00  0.00    +0.490 C 
ATOM     23  O   LIG    1       -2.711  10.840   0.078  0.00  0.00    -0.710 OA
ENDBRANCH  20  22
ENDBRANCH  19  20
ENDBRANCH  18  19
ENDBRANCH   1  18
TORSDOF 4
