REMARK  Name = ZINCvU0000000DOM.0
REMARK                            x       y       z     vdW  Elec       q    Type
REMARK                         _______ _______ _______ _____ _____    ______ ____
ROOT
ATOM      1  C   LIG    1        2.278  -1.243   7.771  0.00  0.00    +0.290 A 
ATOM      2  N   LIG    1        1.395  -1.014   6.836  0.00  0.00    -0.490 NA
ATOM      3  C   LIG    1        1.934  -0.242   5.882  0.00  0.00    +0.280 A 
ATOM      4  N   LIG    1        3.180   0.022   6.209  0.00  0.00    -0.270 NA
ATOM      5  N   LIG    1        3.420  -0.615   7.437  0.00  0.00    -0.380 N 
ENDROOT
BRANCH   1  13
ATOM      6  C   LIG    1       -0.110  -5.878   9.231  0.00  0.00    +0.100 C 
ATOM      7  C   LIG    1       -0.216  -4.672  10.128  0.00  0.00    -0.090 A 
ATOM      8  C   LIG    1       -0.981  -4.732  11.274  0.00  0.00    +0.040 A 
ATOM      9  C   LIG    1       -1.084  -3.631  12.104  0.00  0.00    -0.010 A 
ATOM     10  C   LIG    1       -0.413  -2.464  11.784  0.00  0.00    +0.060 A 
ATOM     11  C   LIG    1        0.354  -2.403  10.642  0.00  0.00    -0.170 A 
ATOM     12  C   LIG    1        1.195  -1.294  10.039  0.00  0.00    +0.100 C 
ATOM     13  C   LIG    1        2.056  -2.068   9.012  0.00  0.00    +0.270 C 
ATOM     14  O   LIG    1        1.245  -3.219   8.720  0.00  0.00    -0.270 OA
ATOM     15  C   LIG    1        0.460  -3.500   9.797  0.00  0.00    +0.100 A 
ENDBRANCH   1  13
BRANCH   3  16
ATOM     16  C   LIG    1        1.242   0.230   4.658  0.00  0.00    +0.010 A 
ATOM     17  C   LIG    1        1.917   1.032   3.740  0.00  0.00    +0.060 A 
ATOM     18  C   LIG    1        1.274   1.466   2.599  0.00  0.00    +0.020 A 
ATOM     19  C   LIG    1       -0.050   1.114   2.370  0.00  0.00    +0.070 A 
ATOM     20  C   LIG    1       -0.728   0.313   3.285  0.00  0.00    +0.120 A 
ATOM     21  F   LIG    1       -2.014  -0.032   3.058  0.00  0.00    -0.120 F 
ATOM     22  C   LIG    1       -0.086  -0.128   4.425  0.00  0.00    +0.050 A 
BRANCH  19  23
ATOM     23  N   LIG    1       -0.700   1.560   1.217  0.00  0.00    -0.510 N 
ATOM     24  C   LIG    1       -0.822   3.023   1.213  0.00  0.00    +0.210 C 
ATOM     25  C   LIG    1       -0.013   1.086   0.008  0.00  0.00    +0.210 C 
ENDBRANCH  19  23
ENDBRANCH   3  16
BRANCH   5  26
ATOM     26  C   LIG    1        4.670  -0.603   8.201  0.00  0.00    +0.270 C 
ATOM     27  C   LIG    1        5.027   0.838   8.573  0.00  0.00    +0.110 C 
BRANCH  26  28
ATOM     28  C   LIG    1        5.792  -1.204   7.353  0.00  0.00    +0.450 C 
ATOM     29  F   LIG    1        5.466  -2.521   7.013  0.00  0.00    -0.170 F 
ATOM     30  F   LIG    1        6.986  -1.193   8.082  0.00  0.00    -0.170 F 
ATOM     31  F   LIG    1        5.951  -0.448   6.187  0.00  0.00    -0.160 F 
ENDBRANCH  26  28
ENDBRANCH   5  26
TORSDOF 5
