REMARK  Name = ZINCpe000000TGYt.0
REMARK                            x       y       z     vdW  Elec       q    Type
REMARK                         _______ _______ _______ _____ _____    ______ ____
ROOT
ATOM      1  C   LIG    1        2.758   4.016   0.165  0.00  0.00    +0.480 C 
ATOM      2  N   LIG    1        2.982   5.344   0.212  0.00  0.00    -0.670 N 
ATOM      3  H   LIG    1        2.248   5.965   0.087  0.00  0.00    +0.410 HD
ATOM      4  O   LIG    1        3.655   3.240   0.414  0.00  0.00    -0.520 OA
ENDROOT
BRANCH   2   5
ATOM      5  C   LIG    1        4.276   5.827   0.441  0.00  0.00    +0.120 A 
ATOM      6  C   LIG    1        5.124   5.158   1.313  0.00  0.00    +0.080 A 
ATOM      7  C   LIG    1        6.402   5.634   1.532  0.00  0.00    +0.020 A 
ATOM      8  C   LIG    1        6.832   6.782   0.893  0.00  0.00    +0.100 A 
ATOM      9  C   LIG    1        5.988   7.454   0.028  0.00  0.00    -0.640 A 
ATOM     10  C   LIG    1        4.711   6.980  -0.200  0.00  0.00    +0.100 A 
BRANCH   9  11
ATOM     11  S   LIG    1        6.542   8.916  -0.784  0.00  0.00    +2.500 S 
ATOM     12  O   LIG    1        5.762   8.974  -1.971  0.00  0.00    -0.940 OA
ATOM     13  O   LIG    1        7.954   8.771  -0.842  0.00  0.00    -0.930 OA
ATOM     14  C   LIG    1        6.085  10.261   0.344  0.00  0.00    -0.260 C 
ENDBRANCH   9  11
ENDBRANCH   2   5
BRANCH   1  15
ATOM     15  C   LIG    1        1.391   3.495  -0.199  0.00  0.00    +0.270 C 
BRANCH  15  20
ATOM     16  C   LIG    1        3.330  -1.572  -0.115  0.00  0.00    +0.650 C 
ATOM     17  N   LIG    1        2.446  -0.566  -0.271  0.00  0.00    -0.590 N 
ATOM     18  C   LIG    1        1.613  -0.112   0.853  0.00  0.00    +0.320 C 
ATOM     19  C   LIG    1        1.749   1.409   0.977  0.00  0.00    +0.180 C 
ATOM     20  N   LIG    1        1.440   2.032  -0.317  0.00  0.00    -0.510 NA
ATOM     21  C   LIG    1        2.399   1.619  -1.350  0.00  0.00    +0.180 C 
ATOM     22  C   LIG    1        2.289   0.106  -1.569  0.00  0.00    +0.300 C 
ATOM     23  O   LIG    1        3.447  -2.116   0.965  0.00  0.00    -0.570 OA
BRANCH  16  24
ATOM     24  O   LIG    1        4.084  -1.973  -1.156  0.00  0.00    -0.370 OA
BRANCH  24  26
ATOM     25  C   LIG    1        5.777  -3.375  -2.204  0.00  0.00    +0.070 C 
ATOM     26  C   LIG    1        5.015  -3.061  -0.915  0.00  0.00    +0.220 C 
ENDBRANCH  24  26
ENDBRANCH  16  24
ENDBRANCH  15  20
ENDBRANCH   1  15
TORSDOF 6
