REMARK  Name = ZINCrH00000tj1lp.0
REMARK                            x       y       z     vdW  Elec       q    Type
REMARK                         _______ _______ _______ _____ _____    ______ ____
ROOT
ATOM      1  C   LIG    1      -10.553   9.206   1.748  0.00  0.00    +0.150 C 
ATOM      2  C   LIG    1       -9.397   8.877   0.839  0.00  0.00    +0.110 A 
ATOM      3  N   LIG    1       -8.180   8.589   1.223  0.00  0.00    -0.300 NA
ATOM      4  N   LIG    1       -7.402   8.345   0.084  0.00  0.00    -0.400 N 
ATOM      5  C   LIG    1       -8.199   8.503  -1.005  0.00  0.00    +0.350 A 
ATOM      6  C   LIG    1       -9.443   8.828  -0.557  0.00  0.00    -0.170 A 
ENDROOT
BRANCH   5   7
ATOM      7  N   LIG    1       -7.814   8.357  -2.335  0.00  0.00    -0.670 N 
ATOM      8  H   LIG    1       -6.927   8.028  -2.550  0.00  0.00    +0.410 HD
BRANCH   7   9
ATOM      9  C   LIG    1       -8.706   8.683  -3.360  0.00  0.00    +0.170 A 
ATOM     10  C   LIG    1       -8.728   7.932  -4.529  0.00  0.00    -0.030 A 
ATOM     11  C   LIG    1       -9.613   8.255  -5.538  0.00  0.00    +0.040 A 
ATOM     12  C   LIG    1      -10.471   9.330  -5.390  0.00  0.00    -0.020 A 
ATOM     13  C   LIG    1      -10.449  10.082  -4.230  0.00  0.00    +0.040 A 
ATOM     14  C   LIG    1       -9.569   9.762  -3.215  0.00  0.00    -0.020 A 
ENDBRANCH   7   9
ENDBRANCH   5   7
BRANCH   4  15
ATOM     15  C   LIG    1       -5.981   7.989   0.069  0.00  0.00    +0.350 C 
BRANCH  15  16
ATOM     16  C   LIG    1       -5.836   6.467   0.124  0.00  0.00    +0.220 C 
BRANCH  16  17
ATOM     17  O   LIG    1       -4.427   6.114   0.109  0.00  0.00    -0.350 OA
BRANCH  17  18
ATOM     18  C   LIG    1       -4.125   4.802   0.153  0.00  0.00    +0.510 C 
ATOM     19  O   LIG    1       -5.014   3.975   0.202  0.00  0.00    -0.480 OA
BRANCH  18  20
ATOM     20  C   LIG    1       -2.713   4.369   0.141  0.00  0.00    -0.080 A 
ATOM     21  C   LIG    1       -2.396   3.010   0.186  0.00  0.00    +0.110 A 
ATOM     22  C   LIG    1       -1.075   2.612   0.176  0.00  0.00    +0.110 A 
ATOM     23  C   LIG    1       -0.065   3.557   0.120  0.00  0.00    -0.010 A 
ATOM     24  C   LIG    1       -0.372   4.905   0.080  0.00  0.00    +0.100 A 
ATOM     25  C   LIG    1       -1.689   5.316   0.085  0.00  0.00    +0.100 A 
BRANCH  23  26
ATOM     26  N   LIG    1        1.350   3.122   0.109  0.00  0.00    +0.020 N 
ATOM     27  O   LIG    1        2.241   3.951   0.055  0.00  0.00    -0.150 OA
ATOM     28  O   LIG    1        1.623   1.936   0.149  0.00  0.00    -0.150 OA
ENDBRANCH  23  26
ENDBRANCH  18  20
ENDBRANCH  17  18
ENDBRANCH  16  17
ENDBRANCH  15  16
ENDBRANCH   4  15
TORSDOF 8
