REMARK  Name = ZINCrD00000F5LCn.0
REMARK                            x       y       z     vdW  Elec       q    Type
REMARK                         _______ _______ _______ _____ _____    ______ ____
ROOT
ATOM      1  C   LIG    1        1.158  -2.322  -4.221  0.00  0.00    +0.140 A 
ATOM      2  C   LIG    1        1.542  -1.167  -4.889  0.00  0.00    +0.070 A 
ATOM      3  C   LIG    1        1.188   0.070  -4.386  0.00  0.00    +0.040 A 
ATOM      4  C   LIG    1        0.447   0.158  -3.221  0.00  0.00    +0.030 A 
ATOM      5  C   LIG    1        0.068  -0.991  -2.550  0.00  0.00    -0.660 A 
ATOM      6 CL   LIG    1       -0.003   1.714  -2.596  0.00  0.00    -0.040 Cl
ATOM      7  C   LIG    1        0.419  -2.230  -3.048  0.00  0.00    +0.160 A 
ENDROOT
BRANCH   1   9
ATOM      8  C   LIG    1        0.671  -4.619  -4.602  0.00  0.00    +0.560 C 
ATOM      9  N   LIG    1        1.515  -3.576  -4.728  0.00  0.00    -0.670 N 
ATOM     10  H   LIG    1        2.370  -3.694  -5.171  0.00  0.00    +0.420 HD
ATOM     11  O   LIG    1       -0.364  -4.492  -3.972  0.00  0.00    -0.520 OA
BRANCH   8  13
ATOM     12  C   LIG    1        0.137  -6.911  -5.073  0.00  0.00    +0.210 C 
ATOM     13  C   LIG    1        0.987  -5.861  -5.200  0.00  0.00    -0.120 C 
BRANCH  12  16
ATOM     14  C   LIG    1       -1.633  -9.354  -4.879  0.00  0.00    +0.120 C 
ATOM     15  C   LIG    1       -0.317  -9.286  -5.610  0.00  0.00    -0.050 A 
ATOM     16  C   LIG    1        0.454  -8.154  -5.672  0.00  0.00    -0.230 A 
ATOM     17  S   LIG    1        1.902  -8.496  -6.608  0.00  0.00    +0.200 S 
ATOM     18  C   LIG    1        1.408 -10.108  -6.871  0.00  0.00    -0.060 A 
ATOM     19  C   LIG    1        0.230 -10.351  -6.285  0.00  0.00    +0.000 A 
ENDBRANCH  12  16
ENDBRANCH   8  13
ENDBRANCH   1   9
BRANCH   5  20
ATOM     20  S   LIG    1       -0.869  -0.874  -1.062  0.00  0.00    +2.690 S 
ATOM     21  O   LIG    1       -1.905   0.065  -1.314  0.00  0.00    -0.930 OA
ATOM     22  O   LIG    1       -1.115  -2.208  -0.637  0.00  0.00    -0.940 OA
BRANCH  20  23
ATOM     23  N   LIG    1        0.113  -0.192   0.083  0.00  0.00    -1.000 NA
ATOM     24  C   LIG    1        0.046   1.249   0.377  0.00  0.00    +0.270 C 
ATOM     25  C   LIG    1        1.468   1.820   0.323  0.00  0.00    +0.220 C 
ATOM     26  O   LIG    1        2.321   1.039   1.164  0.00  0.00    -0.370 OA
ATOM     27  C   LIG    1        2.450  -0.327   0.761  0.00  0.00    +0.220 C 
ATOM     28  C   LIG    1        1.078  -1.007   0.837  0.00  0.00    +0.280 C 
ENDBRANCH  20  23
ENDBRANCH   5  20
TORSDOF 5
