REMARK  Name = ZINCrH000004muVa.0
REMARK                            x       y       z     vdW  Elec       q    Type
REMARK                         _______ _______ _______ _____ _____    ______ ____
ROOT
ATOM      1  N   LIG    1       -3.290   5.444  -6.536  0.00  0.00    -0.660 N 
ATOM      2  H   LIG    1       -3.805   4.972  -7.208  0.00  0.00    +0.420 HD
ATOM      3  C   LIG    1       -2.850   4.790  -5.442  0.00  0.00    +0.520 C 
ATOM      4  O   LIG    1       -2.123   5.353  -4.651  0.00  0.00    -0.510 OA
ENDROOT
BRANCH   1  10
ATOM      5  C   LIG    1       -2.981   7.365  -7.976  0.00  0.00    +0.090 A 
ATOM      6  C   LIG    1       -2.697   8.711  -8.133  0.00  0.00    -0.060 A 
ATOM      7  C   LIG    1       -2.437   9.497  -7.026  0.00  0.00    +0.030 A 
ATOM      8  C   LIG    1       -2.459   8.943  -5.760  0.00  0.00    -0.080 A 
ATOM      9  C   LIG    1       -2.747   7.601  -5.594  0.00  0.00    +0.060 A 
ATOM     10  C   LIG    1       -3.003   6.805  -6.701  0.00  0.00    +0.120 A 
BRANCH   8  11
ATOM     11  C   LIG    1       -2.175   9.805  -4.557  0.00  0.00    -0.020 C 
ATOM     12  C   LIG    1       -0.954   9.258  -3.814  0.00  0.00    +0.030 C 
ATOM     13  C   LIG    1       -3.387   9.793  -3.623  0.00  0.00    +0.040 C 
ATOM     14  C   LIG    1       -1.895  11.239  -5.011  0.00  0.00    +0.040 C 
ENDBRANCH   8  11
BRANCH   5  16
ATOM     15  C   LIG    1       -3.196   7.232 -10.341  0.00  0.00    +0.250 C 
ATOM     16  O   LIG    1       -3.237   6.591  -9.065  0.00  0.00    -0.320 OA
ENDBRANCH   5  16
ENDBRANCH   1  10
BRANCH   3  17
ATOM     17  C   LIG    1       -3.262   3.361  -5.202  0.00  0.00    +0.170 C 
BRANCH  17  18
ATOM     18  C   LIG    1       -2.640   2.867  -3.922  0.00  0.00    +0.120 A 
ATOM     19  C   LIG    1       -3.194   3.070  -2.725  0.00  0.00    -0.080 A 
ATOM     20  S   LIG    1       -2.152   2.336  -1.509  0.00  0.00    +0.140 S 
ATOM     21  C   LIG    1       -1.069   1.825  -2.729  0.00  0.00    +0.280 A 
ATOM     22  N   LIG    1       -1.500   2.202  -3.893  0.00  0.00    -0.480 NA
BRANCH  21  23
ATOM     23  N   LIG    1        0.104   1.115  -2.506  0.00  0.00    -0.540 N 
ATOM     24  C   LIG    1        0.582   0.700  -1.182  0.00  0.00    +0.270 C 
ATOM     25  C   LIG    1        2.078   0.350  -1.373  0.00  0.00    +0.060 C 
ATOM     26  C   LIG    1        2.122  -0.020  -2.874  0.00  0.00    +0.070 C 
ATOM     27  C   LIG    1        0.947   0.719  -3.476  0.00  0.00    +0.520 C 
ATOM     28  O   LIG    1        0.788   0.923  -4.661  0.00  0.00    -0.470 OA
ENDBRANCH  21  23
ENDBRANCH  17  18
ENDBRANCH   3  17
TORSDOF 6
