REMARK  Name = ZINCvU0000000DqN.0
REMARK                            x       y       z     vdW  Elec       q    Type
REMARK                         _______ _______ _______ _____ _____    ______ ____
ROOT
ATOM      1  O   LIG    1        3.510   1.757  -0.111  0.00  0.00    -0.500 OA
ATOM      2  C   LIG    1        2.487   1.108  -0.010  0.00  0.00    +0.570 C 
ATOM      3  N   LIG    1        2.547  -0.235   0.079  0.00  0.00    -0.660 N 
ATOM      4  H   LIG    1        1.730  -0.758   0.081  0.00  0.00    +0.410 HD
ENDROOT
BRANCH   2   5
ATOM      5  C   LIG    1        1.176   1.793   0.014  0.00  0.00    -0.070 A 
ATOM      6  C   LIG    1       -0.013   1.077   0.020  0.00  0.00    +0.020 A 
ATOM      7  C   LIG    1       -1.233   1.768   0.038  0.00  0.00    +0.190 A 
ATOM      8  N   LIG    1       -1.297   3.082   0.062  0.00  0.00    -0.440 NA
ATOM      9  C   LIG    1       -0.206   3.849   0.058  0.00  0.00    +0.130 A 
ATOM     10  C   LIG    1       -0.305   5.253   0.077  0.00  0.00    +0.050 A 
ATOM     11  C   LIG    1        0.827   6.009   0.072  0.00  0.00    +0.040 A 
ATOM     12  C   LIG    1        2.087   5.417   0.048  0.00  0.00    +0.030 A 
ATOM     13  C   LIG    1        2.222   4.061   0.030  0.00  0.00    +0.060 A 
ATOM     14  C   LIG    1        1.081   3.252   0.034  0.00  0.00    -0.060 A 
BRANCH   7  15
ATOM     15  C   LIG    1       -2.496   0.990   0.038  0.00  0.00    -0.010 A 
ATOM     16  C   LIG    1       -2.479  -0.407   0.014  0.00  0.00    -0.020 A 
ATOM     17  C   LIG    1       -3.678  -1.092   0.020  0.00  0.00    +0.260 A 
ATOM     18  N   LIG    1       -4.827  -0.445   0.037  0.00  0.00    -0.480 NA
ATOM     19  C   LIG    1       -4.887   0.873   0.054  0.00  0.00    +0.260 A 
ATOM     20  C   LIG    1       -3.736   1.635   0.055  0.00  0.00    +0.020 A 
ENDBRANCH   7  15
ENDBRANCH   2   5
BRANCH   3  21
ATOM     21  C   LIG    1        3.789  -0.876   0.170  0.00  0.00    +0.110 A 
ATOM     22  C   LIG    1        3.975  -2.117  -0.426  0.00  0.00    +0.020 A 
ATOM     23  C   LIG    1        5.200  -2.747  -0.340  0.00  0.00    -0.020 A 
ATOM     24  C   LIG    1        6.244  -2.143   0.349  0.00  0.00    +0.100 A 
ATOM     25  C   LIG    1        6.057  -0.905   0.949  0.00  0.00    +0.010 A 
ATOM     26  C   LIG    1        4.832  -0.273   0.860  0.00  0.00    +0.050 A 
BRANCH  24  27
ATOM     27  N   LIG    1        7.485  -2.784   0.440  0.00  0.00    -0.490 N 
ATOM     28  C   LIG    1        8.560  -1.922  -0.067  0.00  0.00    +0.180 C 
ATOM     29  C   LIG    1        9.913  -2.593   0.181  0.00  0.00    +0.020 C 
ATOM     30  C   LIG    1        9.943  -3.949  -0.529  0.00  0.00    +0.010 C 
ATOM     31  C   LIG    1        8.784  -4.809  -0.018  0.00  0.00    +0.020 C 
ATOM     32  C   LIG    1        7.463  -4.074  -0.261  0.00  0.00    +0.180 C 
ENDBRANCH  24  27
ENDBRANCH   3  21
TORSDOF 4
