REMARK  Name = ZINCvU0000000IbE.0
REMARK                            x       y       z     vdW  Elec       q    Type
REMARK                         _______ _______ _______ _____ _____    ______ ____
ROOT
ATOM      1  C   LIG    1        1.794   8.084   0.041  0.00  0.00    -0.110 A 
ATOM      2  C   LIG    1        0.400   8.062   0.061  0.00  0.00    +0.090 A 
ATOM      3  C   LIG    1       -0.280   6.856   0.073  0.00  0.00    +0.120 A 
ATOM      4  C   LIG    1        0.427   5.665   0.065  0.00  0.00    -0.110 A 
ATOM      5  C   LIG    1        0.040   4.236   0.067  0.00  0.00    +0.580 C 
ATOM      6  N   LIG    1        1.158   3.489   0.058  0.00  0.00    -0.520 N 
ATOM      7  C   LIG    1        2.258   4.263   0.040  0.00  0.00    +0.580 C 
ATOM      8  O   LIG    1        3.405   3.864   0.024  0.00  0.00    -0.430 OA
ATOM      9  O   LIG    1       -1.097   3.810   0.078  0.00  0.00    -0.440 OA
ATOM     10  C   LIG    1        1.838   5.680   0.044  0.00  0.00    -0.140 A 
ATOM     11  C   LIG    1        2.516   6.886   0.033  0.00  0.00    +0.180 A 
ENDROOT
BRANCH   6  12
ATOM     12  C   LIG    1        1.175   2.087   0.059  0.00  0.00    +0.140 A 
ATOM     13  C   LIG    1       -0.018   1.378   0.077  0.00  0.00    +0.050 A 
ATOM     14  C   LIG    1        0.000  -0.004   0.079  0.00  0.00    +0.080 A 
ATOM     15  C   LIG    1        1.207  -0.681   0.061  0.00  0.00    -0.040 A 
ATOM     16  C   LIG    1        2.399   0.025   0.042  0.00  0.00    -0.010 A 
ATOM     17 CL   LIG    1        3.911  -0.828   0.020  0.00  0.00    -0.030 Cl
ATOM     18 CL   LIG    1        1.226  -2.417   0.061  0.00  0.00    -0.040 Cl
ATOM     19  C   LIG    1        2.385   1.406   0.041  0.00  0.00    +0.060 A 
ENDBRANCH   6  12
BRANCH   1  22
ATOM     20  N   LIG    1        1.818  10.534   0.037  0.00  0.00    -0.650 N 
ATOM     21  H   LIG    1        0.851  10.519  -0.030  0.00  0.00    +0.420 HD
ATOM     22  C   LIG    1        2.512   9.378   0.029  0.00  0.00    +0.560 C 
ATOM     23  O   LIG    1        3.727   9.399   0.011  0.00  0.00    -0.500 OA
BRANCH  20  30
ATOM     24  C   LIG    1        1.908  12.923  -0.343  0.00  0.00    +0.100 A 
ATOM     25  C   LIG    1        2.582  14.128  -0.235  0.00  0.00    -0.050 A 
ATOM     26  C   LIG    1        3.832  14.172   0.354  0.00  0.00    +0.040 A 
ATOM     27  C   LIG    1        4.414  13.015   0.837  0.00  0.00    -0.100 A 
ATOM     28  C   LIG    1        3.747  11.808   0.737  0.00  0.00    +0.060 A 
ATOM     29  C   LIG    1        5.777  13.069   1.478  0.00  0.00    +0.100 C 
ATOM     30  C   LIG    1        2.494  11.755   0.143  0.00  0.00    +0.120 A 
BRANCH  24  32
ATOM     31  C   LIG    1        0.140  14.114  -1.397  0.00  0.00    +0.250 C 
ATOM     32  O   LIG    1        0.678  12.878  -0.921  0.00  0.00    -0.320 OA
ENDBRANCH  24  32
ENDBRANCH  20  30
ENDBRANCH   1  22
TORSDOF 4
