REMARK  Name = ZINCrD000000C9Zg.0
REMARK                            x       y       z     vdW  Elec       q    Type
REMARK                         _______ _______ _______ _____ _____    ______ ____
ROOT
ATOM      1  O   LIG    1        2.032   6.019  -2.600  0.00  0.00    -0.520 OA
ATOM      2  C   LIG    1        1.640   4.907  -2.896  0.00  0.00    +0.600 C 
ATOM      3  N   LIG    1        1.624   3.928  -1.969  0.00  0.00    -0.660 N 
ATOM      4  H   LIG    1        1.387   3.023  -2.224  0.00  0.00    +0.410 HD
ENDROOT
BRANCH   3   5
ATOM      5  C   LIG    1        1.948   4.220  -0.638  0.00  0.00    +0.160 A 
ATOM      6  C   LIG    1        1.785   5.507  -0.149  0.00  0.00    +0.020 A 
ATOM      7  C   LIG    1        2.107   5.792   1.165  0.00  0.00    +0.040 A 
ATOM      8  C   LIG    1        2.591   4.797   1.995  0.00  0.00    +0.000 A 
ATOM      9  C   LIG    1        2.750   3.510   1.517  0.00  0.00    +0.040 A 
ATOM     10  C   LIG    1        2.436   3.216   0.199  0.00  0.00    +0.110 A 
BRANCH  10  11
ATOM     11  N   LIG    1        2.603   1.914  -0.290  0.00  0.00    -0.580 N 
ATOM     12  C   LIG    1        1.569   0.873  -0.243  0.00  0.00    +0.250 C 
ATOM     13  C   LIG    1        2.315  -0.460  -0.472  0.00  0.00    +0.060 C 
ATOM     14  C   LIG    1        3.561   0.007  -1.260  0.00  0.00    +0.070 C 
ATOM     15  C   LIG    1        3.730   1.456  -0.861  0.00  0.00    +0.520 C 
ATOM     16  O   LIG    1        4.737   2.111  -1.032  0.00  0.00    -0.510 OA
ENDBRANCH  10  11
ENDBRANCH   3   5
BRANCH   2  17
ATOM     17  C   LIG    1        1.182   4.628  -4.269  0.00  0.00    -0.300 A 
ATOM     18  C   LIG    1        1.137   5.527  -5.316  0.00  0.00    +0.330 A 
ATOM     19  N   LIG    1        0.662   4.872  -6.388  0.00  0.00    -0.350 N 
ATOM     20  N   LIG    1        0.396   3.549  -6.018  0.00  0.00    -0.280 NA
ATOM     21  C   LIG    1        0.701   3.393  -4.759  0.00  0.00    +0.270 A 
BRANCH  19  22
ATOM     22  C   LIG    1        0.453   5.447  -7.719  0.00  0.00    +0.380 C 
BRANCH  22  23
ATOM     23  C   LIG    1        1.190   4.622  -8.744  0.00  0.00    -0.120 A 
ATOM     24  C   LIG    1        2.495   4.935  -9.073  0.00  0.00    +0.020 A 
ATOM     25  C   LIG    1        3.173   4.176 -10.009  0.00  0.00    +0.010 A 
ATOM     26  C   LIG    1        2.541   3.111 -10.623  0.00  0.00    +0.010 A 
ATOM     27  C   LIG    1        1.234   2.802 -10.298  0.00  0.00    +0.010 A 
ATOM     28  C   LIG    1        0.558   3.557  -9.358  0.00  0.00    +0.050 A 
ENDBRANCH  22  23
ENDBRANCH  19  22
ENDBRANCH   2  17
TORSDOF 5
