REMARK  Name = ZINCqH0000002x1y.0
REMARK                            x       y       z     vdW  Elec       q    Type
REMARK                         _______ _______ _______ _____ _____    ______ ____
ROOT
ATOM      1  N   LIG    1        0.043  -1.987   1.434  0.00  0.00    -0.730 N 
ATOM      2  H   LIG    1        0.041  -2.467   0.591  0.00  0.00    +0.400 HD
ATOM      3  C   LIG    1        0.063  -2.667   2.597  0.00  0.00    +0.590 C 
ATOM      4  O   LIG    1        0.065  -2.064   3.654  0.00  0.00    -0.510 OA
ENDROOT
BRANCH   3   5
ATOM      5  C   LIG    1        0.083  -4.138   2.589  0.00  0.00    +0.030 A 
ATOM      6  C   LIG    1        0.104  -4.961   3.694  0.00  0.00    -0.010 A 
ATOM      7  C   LIG    1        0.117  -6.287   3.236  0.00  0.00    +0.160 A 
ATOM      8  N   LIG    1        0.104  -6.274   1.919  0.00  0.00    -0.270 NA
ATOM      9  N   LIG    1        0.077  -4.943   1.484  0.00  0.00    -0.460 N 
ATOM     10  H   LIG    1        0.060  -4.645   0.561  0.00  0.00    +0.440 HD
BRANCH   7  11
ATOM     11  C   LIG    1        0.141  -7.500   4.092  0.00  0.00    -0.110 A 
ATOM     12  C   LIG    1        0.154  -8.791   3.663  0.00  0.00    +0.200 A 
ATOM     13  N   LIG    1        0.175  -9.600   4.759  0.00  0.00    -0.450 N 
ATOM     14  C   LIG    1        0.175  -8.825   5.882  0.00  0.00    +0.160 A 
ATOM     15  C   LIG    1        0.193 -11.064   4.735  0.00  0.00    +0.320 C 
ATOM     16  C   LIG    1        0.161  -7.532   5.509  0.00  0.00    -0.030 A 
ENDBRANCH   7  11
ENDBRANCH   3   5
BRANCH   1  17
ATOM     17  C   LIG    1        0.023  -0.522   1.442  0.00  0.00    +0.280 C 
BRANCH  17  18
ATOM     18  C   LIG    1        0.002  -0.004   0.002  0.00  0.00    +0.070 C 
BRANCH  18  22
ATOM     19  C   LIG    1       -0.056   4.267   0.025  0.00  0.00    -0.080 A 
ATOM     20  C   LIG    1        1.151   3.592   0.010  0.00  0.00    +0.000 A 
ATOM     21  C   LIG    1        1.169   2.210   0.003  0.00  0.00    +0.010 A 
ATOM     22  C   LIG    1       -0.018   1.503   0.010  0.00  0.00    -0.090 A 
ATOM     23  C   LIG    1       -1.225   2.178   0.020  0.00  0.00    +0.010 A 
ATOM     24  C   LIG    1       -1.244   3.560   0.032  0.00  0.00    +0.000 A 
BRANCH  19  25
ATOM     25  C   LIG    1       -0.076   5.774   0.034  0.00  0.00    +0.060 C 
BRANCH  25  26
ATOM     26  C   LIG    1       -0.097   6.292  -1.406  0.00  0.00    +0.010 C 
BRANCH  26  28
ATOM     27  C   LIG    1       -0.139   8.339  -2.837  0.00  0.00    +0.000 C 
ATOM     28  C   LIG    1       -0.118   7.822  -1.398  0.00  0.00    -0.010 C 
ENDBRANCH  26  28
ENDBRANCH  25  26
ENDBRANCH  19  25
ENDBRANCH  18  22
ENDBRANCH  17  18
ENDBRANCH   1  17
TORSDOF 8
