REMARK  Name = ZINCrD0000073Hw7.0
REMARK                            x       y       z     vdW  Elec       q    Type
REMARK                         _______ _______ _______ _____ _____    ______ ____
ROOT
ATOM      1  C   LIG    1       -3.579   8.852   1.897  0.00  0.00    +0.560 C 
ATOM      2  N   LIG    1       -2.704   8.283   2.749  0.00  0.00    -0.600 N 
ATOM      3  C   LIG    1       -2.764   8.651   4.178  0.00  0.00    +0.260 C 
ATOM      4  C   LIG    1       -2.586   7.418   5.080  0.00  0.00    +0.030 C 
ATOM      5  C   LIG    1       -3.337   6.244   4.490  0.00  0.00    +0.210 C 
ATOM      6  N   LIG    1       -2.433   5.479   3.633  0.00  0.00    -0.560 NA
ATOM      7  C   LIG    1       -2.332   5.905   2.288  0.00  0.00    +0.180 C 
ATOM      8  C   LIG    1       -1.741   7.335   2.229  0.00  0.00    +0.300 C 
ATOM      9  O   LIG    1       -3.502   8.625   0.705  0.00  0.00    -0.520 OA
ENDROOT
BRANCH   1  15
ATOM     10  C   LIG    1       -5.975   9.519   2.087  0.00  0.00    +0.170 A 
ATOM     11  C   LIG    1       -6.955  10.370   2.575  0.00  0.00    -0.070 A 
ATOM     12  C   LIG    1       -6.607  11.441   3.374  0.00  0.00    +0.070 A 
ATOM     13  C   LIG    1       -5.280  11.674   3.694  0.00  0.00    -0.030 A 
ATOM     14  C   LIG    1       -4.293  10.835   3.222  0.00  0.00    +0.090 A 
ATOM     15  C   LIG    1       -4.631   9.751   2.409  0.00  0.00    -0.170 A 
BRANCH  10  17
ATOM     16  C   LIG    1       -7.705   8.292   1.017  0.00  0.00    +0.240 C 
ATOM     17  O   LIG    1       -6.316   8.466   1.302  0.00  0.00    -0.300 OA
ENDBRANCH  10  17
ENDBRANCH   1  15
BRANCH   6  18
ATOM     18  C   LIG    1       -2.725   4.042   3.710  0.00  0.00    +0.340 C 
BRANCH  18  19
ATOM     19  C   LIG    1       -1.553   3.261   3.173  0.00  0.00    +0.190 A 
ATOM     20  N   LIG    1       -0.542   2.834   3.874  0.00  0.00    -0.460 NA
ATOM     21  C   LIG    1        0.300   2.175   3.058  0.00  0.00    +0.140 A 
ATOM     22  C   LIG    1       -0.218   2.215   1.819  0.00  0.00    -0.030 A 
ATOM     23  O   LIG    1       -1.380   2.893   1.897  0.00  0.00    -0.200 OA
BRANCH  22  24
ATOM     24  C   LIG    1        0.384   1.609   0.577  0.00  0.00    +0.020 C 
ATOM     25  C   LIG    1       -0.533   1.878  -0.618  0.00  0.00    +0.040 C 
ATOM     26  C   LIG    1        1.756   2.234   0.318  0.00  0.00    +0.050 C 
ATOM     27  C   LIG    1        0.539   0.099   0.770  0.00  0.00    +0.050 C 
ENDBRANCH  22  24
ENDBRANCH  18  19
ENDBRANCH   6  18
TORSDOF 5
