REMARK  Name = ZINCrH000004pK99.0
REMARK                            x       y       z     vdW  Elec       q    Type
REMARK                         _______ _______ _______ _____ _____    ______ ____
ROOT
ATOM      1  N   LIG    1        2.790  -2.569  -0.495  0.00  0.00    -0.630 N 
ATOM      2  H   LIG    1        3.538  -1.960  -0.594  0.00  0.00    +0.420 HD
ATOM      3  C   LIG    1        1.534  -2.088  -0.420  0.00  0.00    +0.570 C 
ATOM      4  O   LIG    1        0.595  -2.853  -0.295  0.00  0.00    -0.430 OA
ENDROOT
BRANCH   1  12
ATOM      5  C   LIG    1        4.143 -10.069  -0.304  0.00  0.00    +0.030 C 
ATOM      6  C   LIG    1        3.500  -8.710  -0.585  0.00  0.00    -0.010 C 
ATOM      7  C   LIG    1        2.301  -8.507   0.347  0.00  0.00    +0.030 C 
ATOM      8  C   LIG    1        1.510  -7.277  -0.102  0.00  0.00    +0.140 C 
ATOM      9  C   LIG    1        2.470  -6.106  -0.253  0.00  0.00    +0.100 A 
ATOM     10  C   LIG    1        3.801  -6.268  -0.353  0.00  0.00    -0.230 A 
ATOM     11  S   LIG    1        4.550  -4.684  -0.512  0.00  0.00    +0.130 S 
ATOM     12  C   LIG    1        3.014  -3.938  -0.430  0.00  0.00    +0.260 A 
ATOM     13  N   LIG    1        2.092  -4.834  -0.293  0.00  0.00    -0.460 NA
ATOM     14  C   LIG    1        4.521  -7.595  -0.333  0.00  0.00    +0.130 C 
ENDBRANCH   1  12
BRANCH   3  15
ATOM     15  C   LIG    1        1.297  -0.643  -0.488  0.00  0.00    -0.170 A 
ATOM     16  C   LIG    1        0.071  -0.042  -0.539  0.00  0.00    -0.610 A 
ATOM     17  C   LIG    1        0.140   1.329  -0.599  0.00  0.00    +0.070 A 
ATOM     18  C   LIG    1        1.379   1.836  -0.596  0.00  0.00    -0.050 A 
ATOM     19  S   LIG    1        2.546   0.594  -0.517  0.00  0.00    +0.260 S 
BRANCH  16  20
ATOM     20  S   LIG    1       -1.447  -0.936  -0.530  0.00  0.00    +2.710 S 
ATOM     21  O   LIG    1       -1.704  -1.277   0.826  0.00  0.00    -0.940 OA
ATOM     22  O   LIG    1       -1.351  -1.901  -1.569  0.00  0.00    -0.920 OA
BRANCH  20  23
ATOM     23  N   LIG    1       -2.641   0.120  -0.981  0.00  0.00    -1.000 NA
ATOM     24  C   LIG    1       -3.454   0.807   0.032  0.00  0.00    +0.290 C 
ATOM     25  C   LIG    1       -3.392   2.318  -0.236  0.00  0.00    +0.010 C 
ATOM     26  C   LIG    1       -3.822   2.593  -1.679  0.00  0.00    +0.020 C 
ATOM     27  C   LIG    1       -2.858   1.894  -2.642  0.00  0.00    +0.010 C 
ATOM     28  C   LIG    1       -2.910   0.382  -2.401  0.00  0.00    +0.290 C 
ENDBRANCH  20  23
ENDBRANCH  16  20
ENDBRANCH   3  15
TORSDOF 4
