REMARK  Name = ZINCrH000004mcI2.0
REMARK                            x       y       z     vdW  Elec       q    Type
REMARK                         _______ _______ _______ _____ _____    ______ ____
ROOT
ATOM      1  N   LIG    1       -1.238   2.067   0.019  0.00  0.00    -0.680 N 
ATOM      2  H   LIG    1       -2.070   1.574  -0.047  0.00  0.00    +0.410 HD
ATOM      3  C   LIG    1       -1.258   3.410   0.128  0.00  0.00    +0.700 C 
ATOM      4  N   LIG    1       -2.433   4.061   0.239  0.00  0.00    -0.740 N 
ATOM      5  H   LIG    1       -3.265   3.562   0.240  0.00  0.00    +0.400 HD
ATOM      6  O   LIG    1       -0.215   4.036   0.127  0.00  0.00    -0.560 OA
ENDROOT
BRANCH   1   9
ATOM      7  C   LIG    1        1.298  -0.544   0.574  0.00  0.00    +0.180 A 
ATOM      8  C   LIG    1        0.089   0.135   0.596  0.00  0.00    -0.080 A 
ATOM      9  C   LIG    1       -0.017   1.385   0.002  0.00  0.00    +0.240 A 
ATOM     10  C   LIG    1        1.089   1.954  -0.615  0.00  0.00    -0.040 A 
ATOM     11  C   LIG    1        2.297   1.275  -0.637  0.00  0.00    +0.180 A 
ATOM     12  C   LIG    1        2.402   0.026  -0.043  0.00  0.00    -0.170 A 
BRANCH   7  14
ATOM     13  C   LIG    1        2.676  -2.409   1.095  0.00  0.00    +0.250 C 
ATOM     14  O   LIG    1        1.401  -1.768   1.156  0.00  0.00    -0.310 OA
ENDBRANCH   7  14
BRANCH  11  15
ATOM     15  O   LIG    1        3.379   1.833  -1.241  0.00  0.00    -0.310 OA
ATOM     16  C   LIG    1        4.592   1.077  -1.226  0.00  0.00    +0.250 C 
ENDBRANCH  11  15
ENDBRANCH   1   9
BRANCH   4  17
ATOM     17  C   LIG    1       -2.454   5.521   0.357  0.00  0.00    +0.290 C 
BRANCH  17  18
ATOM     18  C   LIG    1       -3.902   6.002   0.468  0.00  0.00    +0.130 C 
BRANCH  18  19
ATOM     19  C   LIG    1       -3.924   7.504   0.590  0.00  0.00    -0.010 A 
ATOM     20  C   LIG    1       -4.603   8.354  -0.203  0.00  0.00    +0.160 A 
ATOM     21  O   LIG    1       -4.355   9.601   0.243  0.00  0.00    -0.190 OA
ATOM     22  C   LIG    1       -3.530   9.501   1.300  0.00  0.00    +0.240 A 
ATOM     23  N   LIG    1       -3.275   8.231   1.512  0.00  0.00    -0.460 NA
BRANCH  22  24
ATOM     24  C   LIG    1       -3.003  10.631   2.094  0.00  0.00    -0.020 A 
ATOM     25  C   LIG    1       -2.155  10.393   3.176  0.00  0.00    +0.070 A 
ATOM     26  C   LIG    1       -1.662  11.452   3.909  0.00  0.00    +0.010 A 
ATOM     27  C   LIG    1       -2.016  12.749   3.581  0.00  0.00    +0.030 A 
ATOM     28  C   LIG    1       -2.861  12.992   2.513  0.00  0.00    +0.010 A 
ATOM     29  C   LIG    1       -3.356  11.942   1.768  0.00  0.00    +0.040 A 
ENDBRANCH  22  24
ENDBRANCH  18  19
ENDBRANCH  17  18
ENDBRANCH   4  17
TORSDOF 7
