REMARK  Name = ZINCvU00000004eJ.0
REMARK                            x       y       z     vdW  Elec       q    Type
REMARK                         _______ _______ _______ _____ _____    ______ ____
ROOT
ATOM      1  S   LIG    1        0.921   8.062  -0.206  0.00  0.00    +0.040 S 
ENDROOT
BRANCH   1   2
ATOM      2  C   LIG    1        1.073   6.310  -0.100  0.00  0.00    +0.080 A 
ATOM      3  C   LIG    1        2.080   5.723   0.702  0.00  0.00    -0.060 A 
ATOM      4  C   LIG    1        2.994   6.481   1.442  0.00  0.00    +0.050 A 
ATOM      5  C   LIG    1        3.938   5.844   2.193  0.00  0.00    +0.050 A 
ATOM      6  C   LIG    1        4.005   4.454   2.234  0.00  0.00    +0.050 A 
ATOM      7  C   LIG    1        3.128   3.687   1.524  0.00  0.00    +0.050 A 
ATOM      8  C   LIG    1        2.145   4.308   0.749  0.00  0.00    -0.050 A 
ATOM      9  C   LIG    1        1.203   3.579  -0.020  0.00  0.00    +0.150 A 
ATOM     10  N   LIG    1        0.308   4.243  -0.732  0.00  0.00    -0.240 NA
ATOM     11  N   LIG    1        0.247   5.522  -0.769  0.00  0.00    -0.270 NA
BRANCH   9  12
ATOM     12  C   LIG    1        1.217   2.099  -0.022  0.00  0.00    -0.050 A 
ATOM     13  C   LIG    1        1.366   1.399   1.176  0.00  0.00    +0.030 A 
ATOM     14  C   LIG    1        1.378   0.019   1.168  0.00  0.00    +0.010 A 
ATOM     15  C   LIG    1        1.242  -0.670  -0.024  0.00  0.00    +0.030 A 
ATOM     16  C   LIG    1        1.094   0.018  -1.215  0.00  0.00    +0.010 A 
ATOM     17  C   LIG    1        1.080   1.398  -1.220  0.00  0.00    +0.050 A 
ENDBRANCH   9  12
ENDBRANCH   1   2
BRANCH   1  18
ATOM     18  C   LIG    1       -0.488   8.188  -1.334  0.00  0.00    -0.020 C 
ATOM     19  C   LIG    1       -0.098   7.624  -2.702  0.00  0.00    +0.090 C 
BRANCH  18  20
ATOM     20  C   LIG    1       -0.887   9.633  -1.482  0.00  0.00    +0.440 C 
ATOM     21  O   LIG    1       -0.070  10.511  -1.287  0.00  0.00    -0.430 OA
BRANCH  20  26
ATOM     22  C   LIG    1       -4.067  11.109  -2.376  0.00  0.00    -0.260 A 
ATOM     23  C   LIG    1       -4.348   9.751  -2.413  0.00  0.00    +0.120 A 
ATOM     24  N   LIG    1       -3.235   9.075  -2.096  0.00  0.00    -0.520 N 
ATOM     25  H   LIG    1       -3.160   8.109  -2.048  0.00  0.00    +0.420 HD
ATOM     26  C   LIG    1       -2.213   9.969  -1.847  0.00  0.00    -0.100 A 
ATOM     27  C   LIG    1       -5.682   9.138  -2.753  0.00  0.00    +0.160 C 
ATOM     28  C   LIG    1       -2.709  11.243  -2.010  0.00  0.00    -0.010 A 
ATOM     29  C   LIG    1       -1.949  12.533  -1.833  0.00  0.00    +0.140 C 
BRANCH  22  31
ATOM     30  C   LIG    1       -5.755  12.861  -1.529  0.00  0.00    +0.080 C 
ATOM     31  C   LIG    1       -5.006  12.201  -2.658  0.00  0.00    +0.440 C 
ATOM     32  O   LIG    1       -5.178  12.572  -3.800  0.00  0.00    -0.450 OA
ENDBRANCH  22  31
ENDBRANCH  20  26
ENDBRANCH  18  20
ENDBRANCH   1  18
TORSDOF 6
