REMARK  Name = ZINCqH0000007wZw.0
REMARK                            x       y       z     vdW  Elec       q    Type
REMARK                         _______ _______ _______ _____ _____    ______ ____
ROOT
ATOM      1  C   LIG    1       -3.753  -1.093   0.012  0.00  0.00    +0.250 C 
ATOM      2  C   LIG    1       -3.467  -1.199   1.512  0.00  0.00    +0.060 C 
ENDROOT
BRANCH   1  11
ATOM      3  C   LIG    1       -3.666  -7.281  -2.194  0.00  0.00    +0.110 A 
ATOM      4  C   LIG    1       -2.574  -6.429  -2.258  0.00  0.00    -0.050 A 
ATOM      5  C   LIG    1       -2.677  -5.135  -1.796  0.00  0.00    +0.050 A 
ATOM      6  C   LIG    1       -3.880  -4.670  -1.261  0.00  0.00    +0.100 A 
ATOM      7  C   LIG    1       -4.967  -5.527  -1.201  0.00  0.00    -0.090 A 
ATOM      8  C   LIG    1       -6.132  -4.785  -0.586  0.00  0.00    +0.110 C 
ATOM      9  C   LIG    1       -5.583  -3.380  -0.288  0.00  0.00    +0.270 C 
ATOM     10  N   LIG    1       -4.191  -3.407  -0.744  0.00  0.00    -0.550 N 
ATOM     11  C   LIG    1       -3.334  -2.369  -0.671  0.00  0.00    +0.520 C 
ATOM     12  O   LIG    1       -2.225  -2.463  -1.155  0.00  0.00    -0.520 OA
ATOM     13  C   LIG    1       -4.864  -6.825  -1.663  0.00  0.00    +0.030 A 
BRANCH   3  15
ATOM     14  C   LIG    1       -2.299  -8.958  -3.181  0.00  0.00    +0.250 C 
ATOM     15  O   LIG    1       -3.564  -8.559  -2.649  0.00  0.00    -0.320 OA
ENDBRANCH   3  15
ENDBRANCH   1  11
BRANCH   1  16
ATOM     16  N   LIG    1       -3.000   0.031  -0.550  0.00  0.00    -0.710 N 
ATOM     17  H   LIG    1       -2.135  -0.121  -0.961  0.00  0.00    +0.410 HD
ATOM     18  C   LIG    1       -3.509   1.278  -0.496  0.00  0.00    +0.560 C 
ATOM     19  O   LIG    1       -4.594   1.470   0.019  0.00  0.00    -0.510 OA
BRANCH  18  20
ATOM     20  C   LIG    1       -2.750   2.412  -1.062  0.00  0.00    -0.120 A 
ATOM     21  C   LIG    1       -1.505   2.196  -1.655  0.00  0.00    +0.070 A 
ATOM     22  C   LIG    1       -0.803   3.257  -2.188  0.00  0.00    +0.040 A 
ATOM     23  C   LIG    1       -1.328   4.536  -2.132  0.00  0.00    +0.080 A 
ATOM     24  C   LIG    1       -2.559   4.761  -1.542  0.00  0.00    -0.040 A 
ATOM     25 CL   LIG    1       -3.209   6.369  -1.476  0.00  0.00    -0.040 Cl
ATOM     26  C   LIG    1       -3.273   3.706  -1.004  0.00  0.00    +0.020 A 
ATOM     27 CL   LIG    1       -4.818   3.988  -0.264  0.00  0.00    -0.010 Cl
ENDBRANCH  18  20
ENDBRANCH   1  16
TORSDOF 4
