REMARK  Name = ZINCnE000001F78Q.1
REMARK                            x       y       z     vdW  Elec       q    Type
REMARK                         _______ _______ _______ _____ _____    ______ ____
ROOT
ATOM      1  N   LIG    1       -2.517  -3.402   0.010  0.00  0.00    -0.640 NA
ATOM      2  C   LIG    1       -1.169  -3.409  -0.003  0.00  0.00    +0.540 C 
ATOM      3  O   LIG    1       -0.566  -4.465  -0.014  0.00  0.00    -0.570 OA
ENDROOT
BRANCH   2   4
ATOM      4  C   LIG    1       -0.425  -2.134  -0.005  0.00  0.00    +0.070 A 
ATOM      5  C   LIG    1        0.934  -2.000  -0.017  0.00  0.00    +0.140 A 
ATOM      6  N   LIG    1        1.205  -0.665  -0.013  0.00  0.00    -0.370 N 
ATOM      7  C   LIG    1        2.378   0.035  -0.021  0.00  0.00    +0.090 A 
ATOM      8  C   LIG    1        2.374   1.384  -0.013  0.00  0.00    -0.020 A 
ATOM      9  C   LIG    1        1.158   2.090   0.002  0.00  0.00    +0.030 A 
ATOM     10  C   LIG    1       -0.017   1.408   0.010  0.00  0.00    +0.080 A 
ATOM     11  C   LIG    1        3.690  -0.706  -0.037  0.00  0.00    +0.130 C 
ATOM     12  C   LIG    1        0.002  -0.004   0.002  0.00  0.00    +0.200 A 
ATOM     13  N   LIG    1       -0.968  -0.903   0.007  0.00  0.00    -0.440 NA
ENDBRANCH   2   4
BRANCH   1  17
ATOM     14  C   LIG    1       -4.758  -6.535   0.015  0.00  0.00    -0.070 A 
ATOM     15  N   LIG    1       -3.487  -6.778   0.002  0.00  0.00    -0.230 NA
ATOM     16  N   LIG    1       -2.697  -5.795  -0.006  0.00  0.00    -0.360 NA
ATOM     17  C   LIG    1       -3.217  -4.602   0.011  0.00  0.00    +0.320 A 
ATOM     18  S   LIG    1       -4.973  -4.783   0.027  0.00  0.00    -0.060 S 
BRANCH  14  19
ATOM     19  C   LIG    1       -5.859  -7.564   0.021  0.00  0.00    +0.140 C 
BRANCH  19  20
ATOM     20  C   LIG    1       -6.217  -7.920   1.465  0.00  0.00    +0.020 C 
BRANCH  20  21
ATOM     21  C   LIG    1       -7.334  -8.964   1.471  0.00  0.00    +0.000 C 
BRANCH  21  23
ATOM     22  C   LIG    1       -8.810 -10.365   2.921  0.00  0.00    +0.000 C 
ATOM     23  C   LIG    1       -7.692  -9.320   2.916  0.00  0.00    -0.010 C 
ENDBRANCH  21  23
ENDBRANCH  20  21
ENDBRANCH  19  20
ENDBRANCH  14  19
ENDBRANCH   1  17
TORSDOF 6
