REMARK  Name = ZINCvU00000004aj.0
REMARK                            x       y       z     vdW  Elec       q    Type
REMARK                         _______ _______ _______ _____ _____    ______ ____
ROOT
ATOM      1  N   LIG    1       -2.414  -0.373   0.024  0.00  0.00    -0.720 N 
ATOM      2  H   LIG    1       -2.536   0.590   0.029  0.00  0.00    +0.400 HD
ATOM      3  C   LIG    1       -1.172  -0.895   0.009  0.00  0.00    +0.590 C 
ATOM      4  O   LIG    1       -1.020  -2.102   0.001  0.00  0.00    -0.500 OA
ENDROOT
BRANCH   3   5
ATOM      5  C   LIG    1        0.002  -0.004   0.002  0.00  0.00    -0.220 A 
ATOM      6  C   LIG    1        1.327  -0.394  -0.013  0.00  0.00    +0.050 A 
ATOM      7  N   LIG    1        2.075   0.724  -0.014  0.00  0.00    -0.280 N 
ATOM      8  N   LIG    1        1.218   1.831   0.000  0.00  0.00    -0.240 NA
ATOM      9  C   LIG    1       -0.017   1.409   0.010  0.00  0.00    +0.300 A 
BRANCH   7  10
ATOM     10  C   LIG    1        3.475   0.773  -0.027  0.00  0.00    +0.150 A 
ATOM     11  C   LIG    1        4.129   1.785  -0.717  0.00  0.00    +0.050 A 
ATOM     12  C   LIG    1        5.510   1.832  -0.729  0.00  0.00    +0.080 A 
ATOM     13  C   LIG    1        6.242   0.873  -0.054  0.00  0.00    +0.010 A 
ATOM     14  C   LIG    1        5.593  -0.138   0.636  0.00  0.00    +0.130 A 
ATOM     15  F   LIG    1        6.310  -1.074   1.296  0.00  0.00    -0.120 F 
ATOM     16  C   LIG    1        4.211  -0.187   0.655  0.00  0.00    -0.020 A 
ENDBRANCH   7  10
BRANCH   6  17
ATOM     17  C   LIG    1        1.840  -1.811  -0.025  0.00  0.00    +0.530 C 
ATOM     18  F   LIG    1        3.066  -1.857  -0.696  0.00  0.00    -0.170 F 
ATOM     19  F   LIG    1        0.918  -2.635  -0.679  0.00  0.00    -0.120 F 
ATOM     20  F   LIG    1        2.011  -2.256   1.291  0.00  0.00    -0.160 F 
ENDBRANCH   6  17
ENDBRANCH   3   5
BRANCH   1  21
ATOM     21  C   LIG    1       -3.582  -1.258   0.030  0.00  0.00    +0.360 C 
BRANCH  21  22
ATOM     22  C   LIG    1       -4.754  -0.539   0.646  0.00  0.00    +0.040 A 
ATOM     23  N   LIG    1       -5.558  -1.048   1.518  0.00  0.00    -0.430 NA
ATOM     24  C   LIG    1       -6.535  -0.279   1.955  0.00  0.00    -0.020 A 
ATOM     25  C   LIG    1       -6.556   0.946   1.423  0.00  0.00    +0.000 A 
ATOM     26  S   LIG    1       -5.208   1.072   0.295  0.00  0.00    +0.200 S 
BRANCH  24  27
ATOM     27  C   LIG    1       -7.544  -0.743   2.973  0.00  0.00    +0.550 C 
ATOM     28  F   LIG    1       -7.731  -2.124   2.848  0.00  0.00    -0.160 F 
ATOM     29  F   LIG    1       -8.760  -0.087   2.757  0.00  0.00    -0.170 F 
ATOM     30  F   LIG    1       -7.078  -0.450   4.260  0.00  0.00    -0.170 F 
ENDBRANCH  24  27
ENDBRANCH  21  22
BRANCH  21  32
ATOM     31  C   LIG    1       -2.786  -2.497  -1.988  0.00  0.00    +0.040 C 
ATOM     32  C   LIG    1       -3.926  -1.659  -1.405  0.00  0.00    +0.020 C 
ENDBRANCH  21  32
ENDBRANCH   1  21
TORSDOF 7
