REMARK  Name = ZINCnE000005twhB.1
REMARK                            x       y       z     vdW  Elec       q    Type
REMARK                         _______ _______ _______ _____ _____    ______ ____
ROOT
ATOM      1  C   LIG    1        4.750   8.066  -0.042  0.00  0.00    -0.330 A 
ATOM      2  C   LIG    1        3.495   7.614  -0.040  0.00  0.00    +0.240 A 
ATOM      3  N   LIG    1        3.374   6.332   0.253  0.00  0.00    -0.560 NA
ATOM      4  C   LIG    1        4.466   5.683   0.508  0.00  0.00    +0.350 A 
ATOM      5  S   LIG    1        5.815   6.725   0.373  0.00  0.00    +0.010 S 
ENDROOT
BRANCH   4   6
ATOM      6  N   LIG    1        4.532   4.334   0.838  0.00  0.00    -0.700 NA
ATOM      7  C   LIG    1        3.403   3.604   0.917  0.00  0.00    +0.460 C 
ATOM      8  O   LIG    1        2.328   4.123   0.700  0.00  0.00    -0.560 OA
BRANCH   7   9
ATOM      9  C   LIG    1        3.474   2.142   1.275  0.00  0.00    +0.180 C 
BRANCH   9  10
ATOM     10  N   LIG    1        2.115   1.611   1.441  0.00  0.00    -0.520 NA
ATOM     11  C   LIG    1        2.130   0.146   1.542  0.00  0.00    +0.150 C 
ATOM     12  C   LIG    1        0.693  -0.380   1.567  0.00  0.00    +0.020 C 
ATOM     13  C   LIG    1       -0.045   0.225   2.764  0.00  0.00    -0.010 C 
ATOM     14  C   LIG    1       -0.005   1.752   2.660  0.00  0.00    +0.020 C 
ATOM     15  C   LIG    1        1.452   2.216   2.603  0.00  0.00    +0.170 C 
ENDBRANCH   9  10
ENDBRANCH   7   9
ENDBRANCH   4   6
BRANCH   1  16
ATOM     16  C   LIG    1        5.181   9.478  -0.345  0.00  0.00    +0.170 C 
BRANCH  16  22
ATOM     17  C   LIG    1        2.867  12.439   2.959  0.00  0.00    +0.090 C 
ATOM     18  C   LIG    1        4.100  11.697   2.511  0.00  0.00    -0.090 A 
ATOM     19  C   LIG    1        5.255  11.754   3.269  0.00  0.00    -0.020 A 
ATOM     20  C   LIG    1        6.386  11.073   2.857  0.00  0.00    +0.000 A 
ATOM     21  C   LIG    1        6.362  10.337   1.688  0.00  0.00    +0.000 A 
ATOM     22  C   LIG    1        5.207  10.281   0.930  0.00  0.00    -0.060 A 
ATOM     23  C   LIG    1        4.078  10.965   1.338  0.00  0.00    +0.010 A 
ENDBRANCH  16  22
ENDBRANCH   1  16
TORSDOF 5
