REMARK  Name = ZINCqH0000035q5u.0
REMARK                            x       y       z     vdW  Elec       q    Type
REMARK                         _______ _______ _______ _____ _____    ______ ____
ROOT
ATOM      1  C   LIG    1       -0.314   1.300   6.113  0.00  0.00    +0.360 C 
ENDROOT
BRANCH   1   2
ATOM      2  C   LIG    1        0.146   0.257   7.098  0.00  0.00    -0.070 A 
ATOM      3  C   LIG    1       -0.709  -0.178   8.093  0.00  0.00    +0.050 A 
ATOM      4  C   LIG    1       -0.288  -1.136   8.997  0.00  0.00    +0.060 A 
ATOM      5  C   LIG    1        0.989  -1.659   8.906  0.00  0.00    -0.030 A 
ATOM      6  C   LIG    1        1.846  -1.223   7.909  0.00  0.00    -0.030 A 
ATOM      7 CL   LIG    1        3.449  -1.879   7.793  0.00  0.00    -0.040 Cl
ATOM      8 CL   LIG    1        1.518  -2.862  10.041  0.00  0.00    -0.040 Cl
ATOM      9  C   LIG    1        1.421  -0.269   7.002  0.00  0.00    +0.050 A 
ENDBRANCH   1   2
BRANCH   1  13
ATOM     10  N   LIG    1       -0.020   1.094   2.454  0.00  0.00    -0.750 N 
ATOM     11  H   LIG    1        0.775   0.547   2.354  0.00  0.00    +0.400 HD
ATOM     12  C   LIG    1       -0.473   1.407   3.684  0.00  0.00    +0.710 C 
ATOM     13  N   LIG    1        0.178   0.960   4.776  0.00  0.00    -0.740 N 
ATOM     14  H   LIG    1        0.974   0.414   4.676  0.00  0.00    +0.400 HD
ATOM     15  O   LIG    1       -1.470   2.091   3.809  0.00  0.00    -0.580 OA
BRANCH  10  16
ATOM     16  C   LIG    1       -0.729   1.579   1.267  0.00  0.00    +0.290 C 
BRANCH  16  17
ATOM     17  C   LIG    1       -0.013   1.086   0.008  0.00  0.00    +0.000 C 
BRANCH  17  18
ATOM     18  C   LIG    1       -0.753   1.593  -1.232  0.00  0.00    +0.220 C 
BRANCH  18  19
ATOM     19  O   LIG    1       -0.672   3.018  -1.285  0.00  0.00    -0.550 OA
ATOM     20  H   LIG    1        0.232   3.360  -1.333  0.00  0.00    +0.370 HD
ENDBRANCH  18  19
BRANCH  18  21
ATOM     21  C   LIG    1       -0.111   0.998  -2.487  0.00  0.00    +0.140 C 
BRANCH  21  23
ATOM     22  C   LIG    1       -0.356   0.871  -4.868  0.00  0.00    +0.200 C 
ATOM     23  O   LIG    1       -0.872   1.377  -3.636  0.00  0.00    -0.380 OA
ENDBRANCH  21  23
ENDBRANCH  18  21
ENDBRANCH  17  18
ENDBRANCH  16  17
ENDBRANCH  10  16
ENDBRANCH   1  13
BRANCH   1  24
ATOM     24  C   LIG    1        0.225   2.647   6.519  0.00  0.00    -0.100 A 
ATOM     25  C   LIG    1        1.532   2.986   6.224  0.00  0.00    +0.010 A 
ATOM     26  C   LIG    1        2.026   4.224   6.593  0.00  0.00    +0.000 A 
ATOM     27  C   LIG    1        1.215   5.119   7.266  0.00  0.00    +0.000 A 
ATOM     28  C   LIG    1       -0.091   4.777   7.566  0.00  0.00    +0.000 A 
ATOM     29  C   LIG    1       -0.585   3.542   7.193  0.00  0.00    +0.020 A 
ENDBRANCH   1  24
TORSDOF 9
