REMARK  Name = ZINCkj000005jQ2y.0
REMARK                            x       y       z     vdW  Elec       q    Type
REMARK                         _______ _______ _______ _____ _____    ______ ____
ROOT
ATOM      1  N   LIG    1       -3.059   1.567  -3.442  0.00  0.00    -0.380 N 
ATOM      2  C   LIG    1       -2.600   0.181  -3.601  0.00  0.00    +0.280 C 
ATOM      3  C   LIG    1       -1.695  -0.199  -2.427  0.00  0.00    +0.110 C 
ATOM      4  C   LIG    1       -0.486   0.741  -2.397  0.00  0.00    -0.470 C 
ATOM      5  C   LIG    1       -0.977   2.189  -2.306  0.00  0.00    +0.110 C 
ATOM      6  C   LIG    1       -1.910   2.480  -3.483  0.00  0.00    +0.270 C 
ATOM      7  H   LIG    1       -3.532   1.663  -2.555  0.00  0.00    +0.430 HD
ENDROOT
BRANCH   4   8
ATOM      8  S   LIG    1        0.543   0.358  -0.953  0.00  0.00    +2.630 S 
ATOM      9  O   LIG    1        1.253  -0.857  -1.155  0.00  0.00    -0.940 OA
ATOM     10  O   LIG    1       -0.176   0.595   0.249  0.00  0.00    -0.940 OA
BRANCH   8  11
ATOM     11  N   LIG    1        1.719   1.524  -0.962  0.00  0.00    -1.240 NA
ATOM     12  H   LIG    1        1.578   2.359  -0.488  0.00  0.00    +0.420 HD
ATOM     13  H   LIG    1        2.548   1.373  -1.442  0.00  0.00    +0.420 HD
ENDBRANCH   8  11
ENDBRANCH   4   8
BRANCH   1  14
ATOM     14  C   LIG    1       -3.987   1.902  -4.530  0.00  0.00    +0.280 C 
BRANCH  14  15
ATOM     15  C   LIG    1       -5.264   1.071  -4.385  0.00  0.00    +0.200 C 
BRANCH  15  16
ATOM     16  O   LIG    1       -5.930   1.429  -3.173  0.00  0.00    -0.390 OA
BRANCH  16  23
ATOM     17  C   LIG    1       -6.013  -0.175  -0.784  0.00  0.00    +0.010 C 
ATOM     18  C   LIG    1       -7.252   0.502  -1.375  0.00  0.00    +0.000 C 
ATOM     19  C   LIG    1       -7.419   1.890  -0.753  0.00  0.00    +0.020 C 
ATOM     20  C   LIG    1       -8.658   2.567  -1.343  0.00  0.00    +0.000 C 
ATOM     21  C   LIG    1       -8.492   2.703  -2.858  0.00  0.00    +0.010 C 
ATOM     22  C   LIG    1       -8.324   1.315  -3.479  0.00  0.00    -0.000 C 
ATOM     23  C   LIG    1       -7.086   0.638  -2.889  0.00  0.00    +0.170 C 
ENDBRANCH  16  23
ENDBRANCH  15  16
ENDBRANCH  14  15
ENDBRANCH   1  14
TORSDOF 6
