REMARK  Name = ZINCvU00000008Wm.0
REMARK                            x       y       z     vdW  Elec       q    Type
REMARK                         _______ _______ _______ _____ _____    ______ ____
ROOT
ATOM      1  C   LIG    1       -3.502  -6.326  -0.212  0.00  0.00    +0.440 C 
ATOM      2  C   LIG    1       -3.547  -4.952  -0.115  0.00  0.00    -0.310 C 
ATOM      3  C   LIG    1       -2.321  -4.150  -0.194  0.00  0.00    +0.580 C 
ATOM      4  N   LIG    1       -2.371  -2.811  -0.095  0.00  0.00    -0.510 N 
ATOM      5  C   LIG    1       -3.519  -2.135   0.070  0.00  0.00    +0.570 C 
ATOM      6  C   LIG    1       -4.807  -2.836   0.157  0.00  0.00    -0.170 A 
ATOM      7  C   LIG    1       -6.003  -2.139   0.328  0.00  0.00    +0.110 A 
ATOM      8  C   LIG    1       -7.192  -2.834   0.405  0.00  0.00    -0.020 A 
ATOM      9  C   LIG    1       -7.211  -4.218   0.315  0.00  0.00    +0.070 A 
ATOM     10  C   LIG    1       -6.038  -4.926   0.146  0.00  0.00    -0.020 A 
ATOM     11  O   LIG    1       -3.493  -0.921   0.148  0.00  0.00    -0.490 OA
ATOM     12  O   LIG    1       -1.247  -4.703  -0.348  0.00  0.00    -0.520 OA
ATOM     13  C   LIG    1       -4.830  -4.243   0.066  0.00  0.00    +0.050 A 
ENDROOT
BRANCH   4  14
ATOM     14  C   LIG    1       -1.173  -2.089  -0.172  0.00  0.00    +0.120 A 
ATOM     15  C   LIG    1       -0.217  -2.220   0.826  0.00  0.00    +0.070 A 
ATOM     16  C   LIG    1        0.964  -1.506   0.747  0.00  0.00    +0.040 A 
ATOM     17  C   LIG    1        1.193  -0.663  -0.324  0.00  0.00    +0.090 A 
ATOM     18  C   LIG    1        0.242  -0.530  -1.319  0.00  0.00    -0.170 A 
ATOM     19  C   LIG    1       -0.942  -1.237  -1.244  0.00  0.00    +0.100 A 
BRANCH  18  20
ATOM     20  C   LIG    1        0.496   0.391  -2.485  0.00  0.00    +0.510 C 
ATOM     21  F   LIG    1       -0.496   1.377  -2.524  0.00  0.00    -0.170 F 
ATOM     22  F   LIG    1        0.469  -0.344  -3.675  0.00  0.00    -0.170 F 
ATOM     23  F   LIG    1        1.749   0.995  -2.338  0.00  0.00    -0.170 F 
ENDBRANCH  18  20
ENDBRANCH   4  14
BRANCH   1  24
ATOM     24  N   LIG    1       -2.304  -6.968  -0.226  0.00  0.00    -0.610 N 
ATOM     25  H   LIG    1       -1.484  -6.469  -0.084  0.00  0.00    +0.430 HD
BRANCH  24  32
ATOM     26  C   LIG    1        0.245  -8.232  -0.239  0.00  0.00    +0.100 C 
ATOM     27  C   LIG    1       -1.029  -9.005  -0.461  0.00  0.00    -0.110 A 
ATOM     28  C   LIG    1       -0.983 -10.368  -0.678  0.00  0.00    +0.040 A 
ATOM     29  C   LIG    1       -2.152 -11.078  -0.881  0.00  0.00    +0.000 A 
ATOM     30  C   LIG    1       -3.372 -10.426  -0.867  0.00  0.00    +0.040 A 
ATOM     31  C   LIG    1       -3.426  -9.064  -0.644  0.00  0.00    -0.030 A 
ATOM     32  C   LIG    1       -2.253  -8.347  -0.446  0.00  0.00    +0.140 A 
ENDBRANCH  24  32
ENDBRANCH   1  24
TORSDOF 4
