REMARK  Name = ZINCrg00000xXTBX.0
REMARK                            x       y       z     vdW  Elec       q    Type
REMARK                         _______ _______ _______ _____ _____    ______ ____
ROOT
ATOM      1  N   LIG    1        1.163  -2.058  -0.020  0.00  0.00    -0.460 N 
ATOM      2  C   LIG    1        1.869  -2.588   1.161  0.00  0.00    +0.190 C 
ATOM      3  C   LIG    1        0.886  -3.517   1.904  0.00  0.00    +0.160 C 
ATOM      4  C   LIG    1       -0.129  -3.907   0.797  0.00  0.00    +0.060 C 
ATOM      5  C   LIG    1       -0.213  -2.597  -0.026  0.00  0.00    +0.170 C 
ENDROOT
BRANCH   1   8
ATOM      6  C   LIG    1        2.285   1.432  -0.012  0.00  0.00    +0.450 A 
ATOM      7  C   LIG    1        2.349   0.042  -0.020  0.00  0.00    -0.170 A 
ATOM      8  C   LIG    1        1.154  -0.672  -0.013  0.00  0.00    +0.370 A 
ATOM      9  N   LIG    1        0.002  -0.004   0.002  0.00  0.00    -0.610 NA
ATOM     10  C   LIG    1       -0.016   1.313   0.009  0.00  0.00    +0.560 A 
ATOM     11  N   LIG    1        1.093   2.025   0.003  0.00  0.00    -0.580 NA
BRANCH   6  12
ATOM     12  N   LIG    1        3.447   2.189  -0.019  0.00  0.00    -0.600 N 
ATOM     13  C   LIG    1        4.750   1.530  -0.145  0.00  0.00    +0.300 C 
BRANCH  12  15
ATOM     14  C   LIG    1        3.427   4.042   1.578  0.00  0.00    +0.010 C 
ATOM     15  C   LIG    1        3.372   3.647   0.101  0.00  0.00    +0.290 C 
ENDBRANCH  12  15
ENDBRANCH   6  12
ENDBRANCH   1   8
BRANCH   3  16
ATOM     16  O   LIG    1        1.561  -4.674   2.401  0.00  0.00    -0.550 OA
ATOM     17  H   LIG    1        2.259  -4.478   3.040  0.00  0.00    +0.380 HD
ENDBRANCH   3  16
BRANCH   5  18
ATOM     18  C   LIG    1       -0.661  -2.896  -1.458  0.00  0.00    +0.300 C 
BRANCH  18  19
ATOM     19  N   LIG    1       -0.515  -1.690  -2.277  0.00  0.00    -0.710 N 
ATOM     20  H   LIG    1       -0.175  -0.873  -1.881  0.00  0.00    +0.400 HD
ATOM     21  C   LIG    1       -0.851  -1.717  -3.582  0.00  0.00    +0.550 C 
ATOM     22  O   LIG    1       -1.276  -2.741  -4.079  0.00  0.00    -0.530 OA
BRANCH  21  23
ATOM     23  C   LIG    1       -0.703  -0.498  -4.411  0.00  0.00    -0.080 A 
ATOM     24  C   LIG    1       -0.215   0.691  -3.859  0.00  0.00    -0.030 A 
ATOM     25  C   LIG    1       -0.092   1.804  -4.668  0.00  0.00    +0.270 A 
ATOM     26  N   LIG    1       -0.428   1.755  -5.942  0.00  0.00    -0.470 NA
ATOM     27  C   LIG    1       -0.891   0.655  -6.502  0.00  0.00    +0.130 A 
ATOM     28  C   LIG    1       -1.257   0.662  -7.964  0.00  0.00    +0.130 C 
ATOM     29  C   LIG    1       -1.040  -0.506  -5.768  0.00  0.00    +0.040 A 
ENDBRANCH  21  23
ENDBRANCH  18  19
ENDBRANCH   5  18
TORSDOF 7
