REMARK  Name = ZINCrH000004sPnY.0
REMARK                            x       y       z     vdW  Elec       q    Type
REMARK                         _______ _______ _______ _____ _____    ______ ____
ROOT
ATOM      1  C   LIG    1        5.858   6.294  -2.631  0.00  0.00    +0.300 C 
ENDROOT
BRANCH   1   2
ATOM      2  C   LIG    1        7.087   5.434  -2.483  0.00  0.00    -0.100 A 
ATOM      3  C   LIG    1        7.163   4.220  -3.139  0.00  0.00    +0.020 A 
ATOM      4  C   LIG    1        8.292   3.433  -3.007  0.00  0.00    +0.000 A 
ATOM      5  C   LIG    1        9.341   3.857  -2.212  0.00  0.00    +0.010 A 
ATOM      6  C   LIG    1        9.262   5.069  -1.552  0.00  0.00    +0.000 A 
ATOM      7  C   LIG    1        8.135   5.858  -1.688  0.00  0.00    +0.020 A 
ENDBRANCH   1   2
BRANCH   1   8
ATOM      8  N   LIG    1        4.664   5.445  -2.623  0.00  0.00    -0.730 N 
ATOM      9  H   LIG    1        4.274   5.149  -3.461  0.00  0.00    +0.400 HD
ATOM     10  C   LIG    1        4.107   5.077  -1.453  0.00  0.00    +0.520 C 
ATOM     11  O   LIG    1        4.595   5.448  -0.406  0.00  0.00    -0.530 OA
BRANCH  10  12
ATOM     12  C   LIG    1        2.879   4.203  -1.444  0.00  0.00    +0.000 C 
ATOM     13  C   LIG    1        3.192   2.876  -2.139  0.00  0.00    +0.040 C 
BRANCH  12  14
ATOM     14  C   LIG    1        2.454   3.935   0.001  0.00  0.00    +0.110 C 
BRANCH  14  15
ATOM     15  C   LIG    1        1.158   3.165   0.009  0.00  0.00    -0.050 A 
ATOM     16  C   LIG    1        1.175   1.783   0.000  0.00  0.00    +0.000 A 
ATOM     17  C   LIG    1       -0.013   1.076   0.008  0.00  0.00    +0.040 A 
ATOM     18  C   LIG    1       -1.219   1.750   0.017  0.00  0.00    -0.020 A 
ATOM     19  C   LIG    1       -1.237   3.135   0.030  0.00  0.00    +0.100 A 
ATOM     20  F   LIG    1       -2.416   3.795   0.045  0.00  0.00    -0.140 F 
ATOM     21  C   LIG    1       -0.047   3.842   0.023  0.00  0.00    -0.020 A 
ENDBRANCH  14  15
ENDBRANCH  12  14
ENDBRANCH  10  12
ENDBRANCH   1   8
BRANCH   1  22
ATOM     22  C   LIG    1        5.929   7.062  -3.953  0.00  0.00    +0.210 C 
BRANCH  22  27
ATOM     23  C   LIG    1        2.964  11.085  -3.630  0.00  0.00    +0.200 C 
ATOM     24  C   LIG    1        3.499   9.705  -3.914  0.00  0.00    +0.170 A 
ATOM     25  N   LIG    1        2.853   8.732  -4.484  0.00  0.00    -0.380 NA
ATOM     26  O   LIG    1        3.562   7.751  -4.568  0.00  0.00    +0.080 OA
ATOM     27  C   LIG    1        4.763   8.013  -4.045  0.00  0.00    +0.180 A 
ATOM     28  N   LIG    1        4.732   9.253  -3.621  0.00  0.00    -0.470 NA
ENDBRANCH  22  27
ENDBRANCH   1  22
TORSDOF 7
