REMARK  Name = ZINCqH0000006RYx.0
REMARK                            x       y       z     vdW  Elec       q    Type
REMARK                         _______ _______ _______ _____ _____    ______ ____
ROOT
ATOM      1  N   LIG    1       -1.245  -2.109   0.003  0.00  0.00    -0.670 N 
ATOM      2  H   LIG    1       -0.402  -2.581  -0.083  0.00  0.00    +0.410 HD
ATOM      3  C   LIG    1       -1.265  -0.761   0.013  0.00  0.00    +0.560 C 
ATOM      4  O   LIG    1       -2.327  -0.169   0.035  0.00  0.00    -0.510 OA
ENDROOT
BRANCH   1   7
ATOM      5  C   LIG    1       -4.787  -3.047  -0.348  0.00  0.00    +0.180 A 
ATOM      6  C   LIG    1       -3.603  -2.335  -0.461  0.00  0.00    -0.040 A 
ATOM      7  C   LIG    1       -2.440  -2.827   0.117  0.00  0.00    +0.220 A 
ATOM      8  C   LIG    1       -2.462  -4.034   0.802  0.00  0.00    -0.070 A 
ATOM      9  C   LIG    1       -3.648  -4.742   0.919  0.00  0.00    +0.180 A 
ATOM     10  C   LIG    1       -4.810  -4.250   0.342  0.00  0.00    -0.170 A 
BRANCH   5  12
ATOM     11  C   LIG    1       -7.109  -3.352  -0.757  0.00  0.00    +0.250 C 
ATOM     12  O   LIG    1       -5.925  -2.567  -0.913  0.00  0.00    -0.310 OA
ENDBRANCH   5  12
BRANCH   9  13
ATOM     13  O   LIG    1       -3.672  -5.921   1.595  0.00  0.00    -0.310 OA
ATOM     14  C   LIG    1       -4.927  -6.600   1.672  0.00  0.00    +0.250 C 
ENDBRANCH   9  13
ENDBRANCH   1   7
BRANCH   3  15
ATOM     15  C   LIG    1        0.002  -0.004  -0.004  0.00  0.00    -0.140 A 
ATOM     16  C   LIG    1       -0.016   1.393   0.006  0.00  0.00    +0.120 A 
ATOM     17  C   LIG    1        1.168   2.096  -0.009  0.00  0.00    +0.000 A 
ATOM     18  C   LIG    1        2.381   1.417  -0.035  0.00  0.00    +0.190 A 
ATOM     19  C   LIG    1        2.404   0.026  -0.045  0.00  0.00    +0.020 A 
ATOM     20  C   LIG    1        1.223  -0.683  -0.030  0.00  0.00    +0.080 A 
BRANCH  18  21
ATOM     21  N   LIG    1        3.581   2.134  -0.051  0.00  0.00    -0.340 N 
ATOM     22  N   LIG    1        4.775   1.760   0.580  0.00  0.00    -0.290 NA
ATOM     23  C   LIG    1        5.673   2.679   0.336  0.00  0.00    +0.090 A 
ATOM     24  C   LIG    1        5.082   3.675  -0.451  0.00  0.00    -0.100 A 
ATOM     25  C   LIG    1        7.099   2.671   0.823  0.00  0.00    +0.160 C 
ATOM     26  C   LIG    1        3.797   3.320  -0.677  0.00  0.00    +0.090 A 
ATOM     27  C   LIG    1        2.786   4.101  -1.478  0.00  0.00    +0.160 C 
ENDBRANCH  18  21
ENDBRANCH   3  15
TORSDOF 5
