REMARK  Name = ZINCvU0000000IPA.0
REMARK                            x       y       z     vdW  Elec       q    Type
REMARK                         _______ _______ _______ _____ _____    ______ ____
ROOT
ATOM      1  C   LIG    1        3.945  -1.347  -0.273  0.00  0.00    +0.540 C 
ATOM      2  N   LIG    1        3.493  -0.085  -0.136  0.00  0.00    -0.470 N 
ATOM      3  O   LIG    1        3.178  -2.280  -0.172  0.00  0.00    -0.450 OA
ENDROOT
BRANCH   2   4
ATOM      4  C   LIG    1        4.356   0.997  -0.355  0.00  0.00    +0.100 A 
ATOM      5  C   LIG    1        4.200   1.793  -1.482  0.00  0.00    +0.020 A 
ATOM      6  C   LIG    1        5.053   2.859  -1.695  0.00  0.00    +0.040 A 
ATOM      7  C   LIG    1        6.060   3.133  -0.788  0.00  0.00    +0.030 A 
ATOM      8  C   LIG    1        6.217   2.342   0.335  0.00  0.00    -0.070 A 
ATOM      9  C   LIG    1        7.316   2.644   1.321  0.00  0.00    +0.100 C 
ATOM     10  C   LIG    1        5.365   1.278   0.557  0.00  0.00    +0.030 A 
ENDBRANCH   2   4
BRANCH   2  11
ATOM     11  C   LIG    1        2.169   0.144   0.224  0.00  0.00    +0.300 A 
ATOM     12  N   LIG    1        1.310  -0.773   0.546  0.00  0.00    -0.460 NA
ATOM     13  C   LIG    1        0.088  -0.369   0.861  0.00  0.00    +0.140 A 
ATOM     14  C   LIG    1       -0.112   0.960   0.807  0.00  0.00    -0.080 A 
ATOM     15  S   LIG    1        1.396   1.724   0.312  0.00  0.00    +0.110 S 
BRANCH  13  16
ATOM     16  C   LIG    1       -0.985  -1.317   1.248  0.00  0.00    -0.030 A 
ATOM     17  C   LIG    1       -2.253  -0.842   1.577  0.00  0.00    +0.020 A 
ATOM     18  C   LIG    1       -3.250  -1.730   1.930  0.00  0.00    +0.010 A 
ATOM     19  C   LIG    1       -2.988  -3.088   1.969  0.00  0.00    -0.080 A 
ATOM     20  C   LIG    1       -1.729  -3.564   1.649  0.00  0.00    +0.010 A 
ATOM     21  C   LIG    1       -4.078  -4.051   2.362  0.00  0.00    +0.090 C 
ATOM     22  C   LIG    1       -0.727  -2.687   1.288  0.00  0.00    +0.060 A 
ENDBRANCH  13  16
ENDBRANCH   2  11
BRANCH   1  23
ATOM     23  C   LIG    1        5.405  -1.597  -0.551  0.00  0.00    +0.120 C 
BRANCH  23  24
ATOM     24  S   LIG    1        5.695  -3.379  -0.691  0.00  0.00    +0.080 S 
BRANCH  24  29
ATOM     25  N   LIG    1        8.216  -4.481  -1.199  0.00  0.00    -0.460 N 
ATOM     26  C   LIG    1        9.478  -3.999  -1.411  0.00  0.00    +0.380 A 
ATOM     27  N   LIG    1        9.415  -2.700  -1.335  0.00  0.00    -0.290 NA
ATOM     28  N   LIG    1        8.208  -2.330  -1.097  0.00  0.00    -0.290 NA
ATOM     29  C   LIG    1        7.428  -3.382  -1.007  0.00  0.00    +0.140 A 
BRANCH  25  31
ATOM     30  C   LIG    1        7.274  -6.275  -2.568  0.00  0.00    +0.050 C 
ATOM     31  C   LIG    1        7.796  -5.884  -1.184  0.00  0.00    +0.310 C 
ENDBRANCH  25  31
ENDBRANCH  24  29
ENDBRANCH  23  24
ENDBRANCH   1  23
TORSDOF 7
