REMARK  Name = ZINCrD00000F5Lqt.1
REMARK                            x       y       z     vdW  Elec       q    Type
REMARK                         _______ _______ _______ _____ _____    ______ ____
ROOT
ATOM      1  C   LIG    1        0.024  -4.257  -0.013  0.00  0.00    +0.390 C 
ATOM      2  O   LIG    1        0.045  -4.869   1.033  0.00  0.00    -0.430 OA
ENDROOT
BRANCH   1   5
ATOM      3  C   LIG    1        0.013  -0.711   1.211  0.00  0.00    +0.110 A 
ATOM      4  C   LIG    1        0.025  -2.093   1.210  0.00  0.00    +0.100 A 
ATOM      5  C   LIG    1        0.013  -2.788  -0.005  0.00  0.00    -0.150 A 
ATOM      6  C   LIG    1       -0.011  -2.079  -1.212  0.00  0.00    +0.060 A 
ATOM      7  C   LIG    1       -0.029  -0.702  -1.203  0.00  0.00    +0.010 A 
ATOM      8  C   LIG    1       -0.011  -0.012   0.002  0.00  0.00    +0.110 A 
BRANCH   3  11
ATOM      9  C   LIG    1        0.436   0.113   4.861  0.00  0.00    +0.110 C 
ATOM     10  C   LIG    1        0.536  -0.588   3.531  0.00  0.00    +0.510 C 
ATOM     11  N   LIG    1        0.025  -0.011   2.425  0.00  0.00    -0.670 N 
ATOM     12  H   LIG    1       -0.335   0.889   2.470  0.00  0.00    +0.420 HD
ATOM     13  O   LIG    1        1.076  -1.671   3.455  0.00  0.00    -0.520 OA
ENDBRANCH   3  11
BRANCH   8  14
ATOM     14  O   LIG    1       -0.022   1.345   0.005  0.00  0.00    -0.490 OA
ATOM     15  H   LIG    1        0.858   1.746  -0.007  0.00  0.00    +0.400 HD
ENDBRANCH   8  14
ENDBRANCH   1   5
BRANCH   1  16
ATOM     16  C   LIG    1        0.011  -5.003  -1.323  0.00  0.00    +0.330 C 
BRANCH  16  17
ATOM     17  N   LIG    1        0.027  -6.445  -1.063  0.00  0.00    -0.560 N 
ATOM     18  C   LIG    1       -1.121  -7.124  -0.926  0.00  0.00    +0.540 C 
ATOM     19  S   LIG    1       -0.660  -8.810  -0.629  0.00  0.00    -0.020 S 
ATOM     20  C   LIG    1        1.083  -8.488  -0.709  0.00  0.00    -0.260 C 
ATOM     21  C   LIG    1        2.105  -9.378  -0.563  0.00  0.00    +0.300 C 
ATOM     22  O   LIG    1       -2.250  -6.674  -0.993  0.00  0.00    -0.420 OA
ATOM     23  C   LIG    1        1.173  -7.096  -0.966  0.00  0.00    +0.570 C 
ATOM     24  O   LIG    1        2.246  -6.532  -1.087  0.00  0.00    -0.470 OA
BRANCH  21  25
ATOM     25  C   LIG    1        1.825 -10.742  -0.314  0.00  0.00    -0.240 A 
ATOM     26  C   LIG    1        2.762 -11.729  -0.149  0.00  0.00    +0.100 A 
ATOM     27  C   LIG    1        2.209 -12.967   0.082  0.00  0.00    +0.000 A 
ATOM     28  C   LIG    1        0.871 -12.996   0.105  0.00  0.00    -0.050 A 
ATOM     29  S   LIG    1        0.220 -11.442  -0.159  0.00  0.00    +0.240 S 
ENDBRANCH  21  25
ENDBRANCH  16  17
ENDBRANCH   1  16
TORSDOF 6
