REMARK  Name = ZINCpk00000FepQF.0
REMARK                            x       y       z     vdW  Elec       q    Type
REMARK                         _______ _______ _______ _____ _____    ______ ____
ROOT
ATOM      1  N   LIG    1        6.872   4.823  -1.302  0.00  0.00    -0.510 NA
ATOM      2  C   LIG    1        7.083   4.236  -2.641  0.00  0.00    +0.230 C 
ATOM      3  C   LIG    1        5.889   3.281  -2.906  0.00  0.00    +0.170 C 
ATOM      4  O   LIG    1        4.880   4.053  -3.560  0.00  0.00    -0.370 OA
ATOM      5  C   LIG    1        3.569   3.492  -3.541  0.00  0.00    +0.210 C 
ATOM      6  C   LIG    1        3.131   3.341  -2.079  0.00  0.00    +0.150 C 
ATOM      7  N   LIG    1        4.079   2.439  -1.411  0.00  0.00    -0.520 NA
ATOM      8  C   LIG    1        5.448   2.918  -1.471  0.00  0.00    +0.160 C 
ATOM      9  C   LIG    1        5.619   4.266  -0.739  0.00  0.00    +0.150 C 
ENDROOT
BRANCH   1  10
ATOM     10  C   LIG    1        6.811   6.289  -1.374  0.00  0.00    +0.330 C 
BRANCH  10  14
ATOM     11  O   LIG    1        2.540   8.400  -1.436  0.00  0.00    -0.480 OA
ATOM     12  C   LIG    1        3.409   7.778  -2.028  0.00  0.00    +0.400 A 
ATOM     13  C   LIG    1        4.603   7.391  -1.371  0.00  0.00    -0.150 A 
ATOM     14  C   LIG    1        5.537   6.706  -2.062  0.00  0.00    +0.110 A 
ATOM     15  O   LIG    1        5.352   6.395  -3.350  0.00  0.00    -0.170 OA
ATOM     16  C   LIG    1        4.237   6.735  -4.011  0.00  0.00    +0.200 A 
ATOM     17  C   LIG    1        3.250   7.423  -3.396  0.00  0.00    -0.050 A 
BRANCH  17  18
ATOM     18  O   LIG    1        2.122   7.770  -4.075  0.00  0.00    -0.450 OA
ATOM     19  H   LIG    1        2.114   7.481  -4.998  0.00  0.00    +0.390 HD
ENDBRANCH  17  18
ENDBRANCH  10  14
ENDBRANCH   1  10
BRANCH   7  20
ATOM     20  C   LIG    1        3.672   2.182  -0.023  0.00  0.00    +0.240 C 
BRANCH  20  21
ATOM     21  C   LIG    1        2.377   1.411  -0.015  0.00  0.00    -0.080 A 
ATOM     22  C   LIG    1        1.171   2.086   0.002  0.00  0.00    +0.010 A 
ATOM     23  C   LIG    1       -0.017   1.378   0.010  0.00  0.00    +0.000 A 
ATOM     24  C   LIG    1        0.002  -0.004   0.002  0.00  0.00    +0.000 A 
ATOM     25  C   LIG    1        1.208  -0.679  -0.013  0.00  0.00    +0.000 A 
ATOM     26  C   LIG    1        2.396   0.029  -0.022  0.00  0.00    +0.020 A 
ENDBRANCH  20  21
ENDBRANCH   7  20
TORSDOF 5
