REMARK  Name = ZINCpe000000XPER.0
REMARK                            x       y       z     vdW  Elec       q    Type
REMARK                         _______ _______ _______ _____ _____    ______ ____
ROOT
ATOM      1  C   LIG    1       -4.398   0.370   3.754  0.00  0.00    +0.120 C 
ATOM      2  C   LIG    1       -3.891   1.757   4.059  0.00  0.00    +0.020 A 
ATOM      3  C   LIG    1       -4.427   2.474   5.108  0.00  0.00    +0.000 A 
ATOM      4  C   LIG    1       -3.967   3.749   5.385  0.00  0.00    +0.160 A 
ATOM      5  C   LIG    1       -2.963   4.311   4.617  0.00  0.00    -0.690 A 
ATOM      6  C   LIG    1       -2.415   3.602   3.567  0.00  0.00    +0.170 A 
ATOM      7  C   LIG    1       -2.874   2.316   3.283  0.00  0.00    -0.150 A 
ENDROOT
BRANCH   7   8
ATOM      8  C   LIG    1       -2.292   1.551   2.159  0.00  0.00    +0.570 C 
ATOM      9  N   LIG    1       -0.954   1.441   2.041  0.00  0.00    -0.600 N 
ATOM     10  C   LIG    1       -0.079   1.980   3.086  0.00  0.00    +0.300 C 
ATOM     11  O   LIG    1       -3.019   1.021   1.343  0.00  0.00    -0.530 OA
BRANCH   9  12
ATOM     12  C   LIG    1       -0.373   0.783   0.868  0.00  0.00    +0.430 C 
BRANCH  12  13
ATOM     13  C   LIG    1       -0.086  -0.660   1.193  0.00  0.00    +0.150 A 
ATOM     14  N   LIG    1        0.977  -1.121   1.794  0.00  0.00    -0.280 NA
ATOM     15  N   LIG    1        0.894  -2.400   1.901  0.00  0.00    -0.300 NA
ATOM     16  C   LIG    1       -0.227  -2.813   1.374  0.00  0.00    +0.370 A 
ATOM     17  N   LIG    1       -0.880  -1.721   0.909  0.00  0.00    -0.460 N 
ATOM     18  C   LIG    1       -2.181  -1.692   0.237  0.00  0.00    +0.340 C 
ENDBRANCH  12  13
ENDBRANCH   9  12
ENDBRANCH   7   8
BRANCH   5  19
ATOM     19  S   LIG    1       -2.384   5.935   4.978  0.00  0.00    +2.700 S 
ATOM     20  O   LIG    1       -1.069   6.020   4.448  0.00  0.00    -0.950 OA
ATOM     21  O   LIG    1       -2.688   6.174   6.346  0.00  0.00    -0.950 OA
BRANCH  19  22
ATOM     22  N   LIG    1       -3.310   6.992   4.102  0.00  0.00    -1.090 NA
ATOM     23  H   LIG    1       -2.905   7.527   3.402  0.00  0.00    +0.420 HD
BRANCH  22  24
ATOM     24  C   LIG    1       -4.742   7.119   4.385  0.00  0.00    +0.220 C 
ATOM     25  C   LIG    1       -5.672   7.412   3.205  0.00  0.00    +0.010 C 
ATOM     26  C   LIG    1       -5.372   8.505   4.233  0.00  0.00    +0.030 C 
ENDBRANCH  22  24
ENDBRANCH  19  22
ENDBRANCH   5  19
TORSDOF 6
