REMARK  Name = ZINCrD00000F5Ls3.0
REMARK                            x       y       z     vdW  Elec       q    Type
REMARK                         _______ _______ _______ _____ _____    ______ ____
ROOT
ATOM      1  C   LIG    1        4.320   5.800  -1.108  0.00  0.00    +0.520 C 
ATOM      2  O   LIG    1        5.388   5.301  -1.404  0.00  0.00    -0.480 OA
ENDROOT
BRANCH   1   3
ATOM      3  C   LIG    1        4.282   7.076  -0.379  0.00  0.00    -0.120 C 
ATOM      4  C   LIG    1        5.450   7.634   0.095  0.00  0.00    +0.260 C 
BRANCH   4   5
ATOM      5  C   LIG    1        6.691   6.857   0.079  0.00  0.00    -0.150 A 
ATOM      6  C   LIG    1        6.689   5.517   0.493  0.00  0.00    +0.130 A 
ATOM      7  C   LIG    1        7.849   4.796   0.470  0.00  0.00    -0.090 A 
ATOM      8  C   LIG    1        9.033   5.392   0.049  0.00  0.00    +0.160 A 
ATOM      9  C   LIG    1        9.043   6.723  -0.356  0.00  0.00    -0.030 A 
ATOM     10  C   LIG    1        7.889   7.452  -0.344  0.00  0.00    +0.110 A 
BRANCH   8  11
ATOM     11  O   LIG    1       10.183   4.672   0.034  0.00  0.00    -0.310 OA
ATOM     12  C   LIG    1       10.103   3.312   0.463  0.00  0.00    +0.240 C 
ENDBRANCH   8  11
ENDBRANCH   4   5
BRANCH   3  13
ATOM     13  C   LIG    1        3.032   7.740  -0.162  0.00  0.00    +0.250 C 
ATOM     14  N   LIG    1        2.040   8.266   0.010  0.00  0.00    -0.390 NA
ENDBRANCH   3  13
ENDBRANCH   1   3
BRANCH   1  15
ATOM     15  O   LIG    1        3.170   5.184  -1.448  0.00  0.00    -0.330 OA
BRANCH  15  16
ATOM     16  C   LIG    1        3.283   3.927  -2.167  0.00  0.00    +0.250 C 
BRANCH  16  18
ATOM     17  N   LIG    1        1.764   2.226  -3.123  0.00  0.00    -0.610 N 
ATOM     18  C   LIG    1        1.906   3.390  -2.459  0.00  0.00    +0.520 C 
ATOM     19  O   LIG    1        0.925   4.006  -2.098  0.00  0.00    -0.500 OA
BRANCH  17  20
ATOM     20  C   LIG    1        0.425   1.704  -3.407  0.00  0.00    +0.250 C 
ATOM     21  C   LIG    1       -0.323   1.474  -2.092  0.00  0.00    +0.010 C 
ATOM     22  C   LIG    1       -1.722   0.928  -2.390  0.00  0.00    +0.020 C 
ATOM     23  C   LIG    1       -2.491   1.937  -3.244  0.00  0.00    +0.010 C 
ATOM     24  C   LIG    1       -1.743   2.167  -4.559  0.00  0.00    +0.010 C 
ATOM     25  C   LIG    1       -0.345   2.712  -4.262  0.00  0.00    +0.010 C 
ENDBRANCH  17  20
BRANCH  17  27
ATOM     26  C   LIG    1        3.348   1.938  -4.964  0.00  0.00    +0.010 C 
ATOM     27  C   LIG    1        2.948   1.482  -3.559  0.00  0.00    +0.270 C 
ENDBRANCH  17  27
ENDBRANCH  16  18
ENDBRANCH  15  16
ENDBRANCH   1  15
TORSDOF 9
