REMARK  Name = ZINCpk00000kS4X2.0
REMARK                            x       y       z     vdW  Elec       q    Type
REMARK                         _______ _______ _______ _____ _____    ______ ____
ROOT
ATOM      1  C   LIG    1        3.286   1.536  -0.550  0.00  0.00    +0.230 C 
ATOM      2  C   LIG    1        2.436   0.930   0.579  0.00  0.00    +0.030 C 
ATOM      3  C   LIG    1        1.248   1.716  -0.001  0.00  0.00    +0.230 C 
ATOM      4  C   LIG    1        1.981   1.674  -1.352  0.00  0.00    +0.020 C 
ENDROOT
BRANCH   1   6
ATOM      5  C   LIG    1        5.022   3.224  -0.825  0.00  0.00    +0.610 C 
ATOM      6  N   LIG    1        3.898   2.820  -0.200  0.00  0.00    -0.710 N 
ATOM      7  H   LIG    1        3.494   3.380   0.482  0.00  0.00    +0.410 HD
ATOM      8  O   LIG    1        5.528   2.522  -1.680  0.00  0.00    -0.510 OA
BRANCH   5  13
ATOM      9  C   LIG    1        5.821   7.636   1.404  0.00  0.00    +0.180 C 
ATOM     10  C   LIG    1        5.990   6.443   0.499  0.00  0.00    +0.030 A 
ATOM     11  C   LIG    1        6.986   6.271  -0.399  0.00  0.00    -0.200 A 
ATOM     12  C   LIG    1        6.767   5.036  -1.027  0.00  0.00    +0.080 A 
ATOM     13  C   LIG    1        5.634   4.509  -0.475  0.00  0.00    -0.090 A 
ATOM     14  O   LIG    1        5.175   5.382   0.446  0.00  0.00    -0.160 OA
BRANCH  11  15
ATOM     15  C   LIG    1        8.118   7.227  -0.673  0.00  0.00    +0.270 C 
BRANCH  15  16
ATOM     16  O   LIG    1        8.962   6.686  -1.691  0.00  0.00    -0.570 OA
ATOM     17  H   LIG    1        9.714   7.249  -1.919  0.00  0.00    +0.390 HD
ENDBRANCH  15  16
ENDBRANCH  11  15
ENDBRANCH   5  13
ENDBRANCH   1   6
BRANCH   3  18
ATOM     18  N   LIG    1       -0.011   0.966   0.007  0.00  0.00    -0.730 N 
ATOM     19  H   LIG    1        0.002  -0.004   0.002  0.00  0.00    +0.400 HD
ATOM     20  C   LIG    1       -1.187   1.624   0.017  0.00  0.00    +0.520 C 
ATOM     21  O   LIG    1       -1.204   2.837   0.023  0.00  0.00    -0.520 OA
BRANCH  20  22
ATOM     22  C   LIG    1       -2.482   0.853   0.018  0.00  0.00    +0.060 C 
BRANCH  22  23
ATOM     23  C   LIG    1       -3.658   1.831   0.029  0.00  0.00    +0.120 C 
ATOM     24  C   LIG    1       -4.988   1.052   0.031  0.00  0.00    +0.010 C 
ATOM     25  C   LIG    1       -5.705   1.529   1.318  0.00  0.00    +0.000 C 
ATOM     26  C   LIG    1       -4.996   2.877   1.605  0.00  0.00    +0.190 C 
ATOM     27  C   LIG    1       -3.590   2.740  -1.199  0.00  0.00    +0.030 C 
ATOM     28  O   LIG    1       -3.625   2.622   1.229  0.00  0.00    -0.350 OA
ENDBRANCH  22  23
ENDBRANCH  20  22
ENDBRANCH   3  18
TORSDOF 7
