REMARK  Name = ZINCrD0000074KXa.0
REMARK                            x       y       z     vdW  Elec       q    Type
REMARK                         _______ _______ _______ _____ _____    ______ ____
ROOT
ATOM      1  C   LIG    1       -2.847  -0.486  -0.496  0.00  0.00    +0.080 C 
ATOM      2  C   LIG    1       -2.595   0.995  -0.380  0.00  0.00    -0.120 A 
ATOM      3  C   LIG    1       -3.653   1.881  -0.429  0.00  0.00    +0.040 A 
ATOM      4  C   LIG    1       -3.422   3.241  -0.328  0.00  0.00    -0.010 A 
ATOM      5  C   LIG    1       -2.134   3.717  -0.171  0.00  0.00    -0.090 A 
ATOM      6  C   LIG    1       -1.072   2.835  -0.114  0.00  0.00    +0.060 A 
ATOM      7  C   LIG    1       -1.300   1.469  -0.216  0.00  0.00    +0.150 A 
ENDROOT
BRANCH   7   8
ATOM      8  N   LIG    1       -0.228   0.574  -0.160  0.00  0.00    -0.670 N 
ATOM      9  H   LIG    1       -0.395  -0.381  -0.117  0.00  0.00    +0.400 HD
ATOM     10  C   LIG    1        1.038   1.037  -0.170  0.00  0.00    +0.600 C 
ATOM     11  O   LIG    1        1.249   2.230  -0.288  0.00  0.00    -0.500 OA
BRANCH  10  12
ATOM     12  C   LIG    1        2.124   0.134  -0.042  0.00  0.00    -0.160 A 
ATOM     13  C   LIG    1        3.471   0.435  -0.159  0.00  0.00    +0.350 A 
ATOM     14  N   LIG    1        4.162  -0.678   0.029  0.00  0.00    -0.490 NA
ATOM     15  C   LIG    1        3.329  -1.693   0.255  0.00  0.00    +0.250 A 
ATOM     16  C   LIG    1        3.561  -3.058   0.505  0.00  0.00    +0.080 A 
ATOM     17  C   LIG    1        2.500  -3.890   0.706  0.00  0.00    +0.060 A 
ATOM     18  C   LIG    1        1.197  -3.374   0.661  0.00  0.00    +0.040 A 
ATOM     19  C   LIG    1        0.995  -2.059   0.419  0.00  0.00    +0.200 A 
ATOM     20  N   LIG    1        2.048  -1.222   0.218  0.00  0.00    -0.340 N 
ENDBRANCH  10  12
ENDBRANCH   7   8
BRANCH   5  21
ATOM     21  C   LIG    1       -1.887   5.200  -0.060  0.00  0.00    +0.330 C 
BRANCH  21  22
ATOM     22  C   LIG    1       -1.906   5.816  -1.435  0.00  0.00    +0.100 A 
ATOM     23  C   LIG    1       -2.760   6.870  -1.700  0.00  0.00    -0.030 A 
ATOM     24  C   LIG    1       -2.771   7.430  -2.968  0.00  0.00    +0.070 A 
ATOM     25  C   LIG    1       -1.917   6.906  -3.927  0.00  0.00    -0.030 A 
ATOM     26  C   LIG    1       -1.090   5.851  -3.589  0.00  0.00    +0.260 A 
ATOM     27  N   LIG    1       -1.104   5.347  -2.371  0.00  0.00    -0.460 NA
ENDBRANCH  21  22
BRANCH  21  28
ATOM     28  O   LIG    1       -2.909   5.794   0.743  0.00  0.00    -0.540 OA
ATOM     29  H   LIG    1       -3.802   5.679   0.391  0.00  0.00    +0.380 HD
ENDBRANCH  21  28
ENDBRANCH   5  21
TORSDOF 5
