REMARK  Name = ZINCAx0000000g2c.0
REMARK                            x       y       z     vdW  Elec       q    Type
REMARK                         _______ _______ _______ _____ _____    ______ ____
ROOT
ATOM      1  C   LIG    1        5.655   0.745   1.174  0.00  0.00    +0.150 A 
ATOM      2  C   LIG    1        6.386   0.785  -0.003  0.00  0.00    +0.140 A 
ATOM      3  C   LIG    1        7.768   0.747   0.040  0.00  0.00    -0.660 A 
ATOM      4  C   LIG    1        8.424   0.669   1.255  0.00  0.00    +0.120 A 
ATOM      5  C   LIG    1        7.702   0.629   2.434  0.00  0.00    -0.010 A 
ATOM      6  C   LIG    1        6.317   0.672   2.400  0.00  0.00    +0.120 A 
ENDROOT
BRANCH   6   7
ATOM      7  N   LIG    1        5.585   0.638   3.592  0.00  0.00    -0.510 N 
ATOM      8  C   LIG    1        5.861   1.825   4.414  0.00  0.00    +0.160 C 
ATOM      9  C   LIG    1        4.997   1.776   5.677  0.00  0.00    +0.220 C 
ATOM     10  O   LIG    1        5.257   0.559   6.380  0.00  0.00    -0.380 OA
ATOM     11  C   LIG    1        4.998  -0.618   5.609  0.00  0.00    +0.230 C 
ATOM     12  C   LIG    1        5.862  -0.594   4.345  0.00  0.00    +0.160 C 
ENDBRANCH   6   7
BRANCH   1  14
ATOM     13  C   LIG    1        3.594   0.186   0.121  0.00  0.00    +0.600 C 
ATOM     14  N   LIG    1        4.255   0.783   1.133  0.00  0.00    -0.650 N 
ATOM     15  H   LIG    1        3.761   1.240   1.832  0.00  0.00    +0.420 HD
ATOM     16  O   LIG    1        4.213  -0.315  -0.798  0.00  0.00    -0.500 OA
BRANCH  13  19
ATOM     17  C   LIG    1        1.575   2.325  -1.119  0.00  0.00    +0.210 C 
ATOM     18  C   LIG    1        1.236   1.047  -0.397  0.00  0.00    +0.030 A 
ATOM     19  C   LIG    1        2.122   0.141   0.129  0.00  0.00    -0.250 A 
ATOM     20  C   LIG    1        1.234  -0.891   0.704  0.00  0.00    +0.100 A 
ATOM     21  N   LIG    1        0.019  -0.475   0.452  0.00  0.00    -0.340 NA
ATOM     22  O   LIG    1        0.013   0.574  -0.143  0.00  0.00    +0.110 OA
BRANCH  20  23
ATOM     23  C   LIG    1        1.634  -2.131   1.413  0.00  0.00    -0.030 A 
ATOM     24  C   LIG    1        2.778  -2.824   1.020  0.00  0.00    +0.040 A 
ATOM     25  C   LIG    1        3.148  -3.974   1.687  0.00  0.00    +0.010 A 
ATOM     26  C   LIG    1        2.381  -4.445   2.736  0.00  0.00    +0.030 A 
ATOM     27  C   LIG    1        1.242  -3.765   3.127  0.00  0.00    +0.010 A 
ATOM     28  C   LIG    1        0.865  -2.611   2.471  0.00  0.00    +0.050 A 
ENDBRANCH  20  23
ENDBRANCH  13  19
ENDBRANCH   1  14
BRANCH   3  29
ATOM     29  S   LIG    1        8.695   0.797  -1.457  0.00  0.00    +2.690 S 
ATOM     30  O   LIG    1        7.830   0.325  -2.481  0.00  0.00    -0.940 OA
ATOM     31  O   LIG    1        9.954   0.205  -1.169  0.00  0.00    -0.950 OA
BRANCH  29  32
ATOM     32  N   LIG    1        8.994   2.391  -1.795  0.00  0.00    -1.000 NA
ATOM     33  C   LIG    1        8.062   3.179  -2.617  0.00  0.00    +0.270 C 
ATOM     34  C   LIG    1        7.743   4.481  -1.865  0.00  0.00    +0.220 C 
ATOM     35  O   LIG    1        8.967   5.124  -1.502  0.00  0.00    -0.370 OA
ATOM     36  C   LIG    1        9.783   4.365  -0.605  0.00  0.00    +0.220 C 
ATOM     37  C   LIG    1       10.203   3.059  -1.288  0.00  0.00    +0.270 C 
ENDBRANCH  29  32
ENDBRANCH   3  29
TORSDOF 6
