REMARK  Name = ZINCrg000000r7JV.0
REMARK                            x       y       z     vdW  Elec       q    Type
REMARK                         _______ _______ _______ _____ _____    ______ ____
ROOT
ATOM      1  N   LIG    1       -0.702   1.563   1.218  0.00  0.00    -0.500 N 
ATOM      2  C   LIG    1       -0.085   1.013   0.004  0.00  0.00    +0.190 C 
ATOM      3  C   LIG    1       -0.835   1.532  -1.228  0.00  0.00    +0.310 C 
ATOM      4  N   LIG    1       -0.877   3.001  -1.163  0.00  0.00    -0.620 N 
ATOM      5  C   LIG    1       -1.357   3.629   0.077  0.00  0.00    +0.290 C 
ATOM      6  C   LIG    1       -0.487   3.751  -2.213  0.00  0.00    +0.520 C 
ATOM      7  O   LIG    1       -0.094   3.216  -3.228  0.00  0.00    -0.510 OA
ATOM      8  C   LIG    1       -0.587   3.027   1.257  0.00  0.00    +0.180 C 
ENDROOT
BRANCH   1  12
ATOM      9  C   LIG    1        0.937  -0.157   4.637  0.00  0.00    -0.670 A 
ATOM     10  C   LIG    1        1.728   0.615   3.806  0.00  0.00    +0.190 A 
ATOM     11  C   LIG    1        1.188   1.187   2.671  0.00  0.00    -0.020 A 
ATOM     12  C   LIG    1       -0.152   0.986   2.365  0.00  0.00    +0.210 A 
ATOM     13  C   LIG    1       -0.946   0.215   3.205  0.00  0.00    -0.040 A 
ATOM     14  C   LIG    1       -0.397  -0.358   4.335  0.00  0.00    +0.220 A 
BRANCH   9  16
ATOM     15  C   LIG    1        1.383   0.361   7.380  0.00  0.00    -0.240 C 
ATOM     16  S   LIG    1        1.631  -0.884   6.084  0.00  0.00    +2.500 S 
ATOM     17  O   LIG    1        3.013  -1.019   5.781  0.00  0.00    -0.930 OA
ATOM     18  O   LIG    1        0.819  -2.025   6.327  0.00  0.00    -0.920 OA
ENDBRANCH   9  16
BRANCH  13  19
ATOM     19  N   LIG    1       -2.375   0.004   2.886  0.00  0.00    +0.030 N 
ATOM     20  O   LIG    1       -2.835   0.427   1.841  0.00  0.00    -0.090 OA
ATOM     21  O   LIG    1       -3.092  -0.594   3.669  0.00  0.00    -0.180 OA
ENDBRANCH  13  19
ENDBRANCH   1  12
BRANCH   6  22
ATOM     22  C   LIG    1       -0.539   5.255  -2.125  0.00  0.00    +0.210 C 
BRANCH  22  23
ATOM     23  O   LIG    1       -0.079   5.820  -3.354  0.00  0.00    -0.360 OA
BRANCH  23  24
ATOM     24  C   LIG    1       -0.088   7.248  -3.376  0.00  0.00    +0.200 C 
BRANCH  24  25
ATOM     25  C   LIG    1        0.422   7.741  -4.732  0.00  0.00    -0.040 C 
ATOM     26  C   LIG    1        1.720   8.550  -4.747  0.00  0.00    +0.010 C 
ATOM     27  C   LIG    1        0.381   9.247  -4.998  0.00  0.00    +0.030 C 
ENDBRANCH  24  25
ENDBRANCH  23  24
ENDBRANCH  22  23
ENDBRANCH   6  22
TORSDOF 7
