REMARK  Name = ZINCb80000002EOg.0
REMARK                            x       y       z     vdW  Elec       q    Type
REMARK                         _______ _______ _______ _____ _____    ______ ____
ROOT
ATOM      1  CA  LIG    1       -0.013   1.086   0.008  0.00  0.00    +0.090 C 
ENDROOT
BRANCH   1   2
ATOM      2  N   LIG    1       -0.723   1.572  -1.182  0.00  0.00    -0.610 N 
ATOM      3  H1  LIG    1       -1.670   1.223  -1.175  0.00  0.00    +0.430 HD
ATOM      4  H2  LIG    1       -0.251   1.247  -2.012  0.00  0.00    +0.410 HD
ATOM      5  H3  LIG    1       -0.737   2.581  -1.177  0.00  0.00    +0.430 HD
ENDBRANCH   1   2
BRANCH   1   6
ATOM      6  C   LIG    1       -0.718   1.572   1.248  0.00  0.00    +0.490 C 
ATOM      7  OXT LIG    1       -0.682   0.908   2.270  0.00  0.00    -0.630 OA
ATOM      8  O   LIG    1       -1.325   2.629   1.229  0.00  0.00    -0.670 OA
ENDBRANCH   1   6
BRANCH   1   9
ATOM      9  C   LIG    1        1.423   1.615  -0.003  0.00  0.00    +0.150 C 
BRANCH   9  10
ATOM     10  C   LIG    1        2.165   1.031  -1.177  0.00  0.00    -0.200 A 
ATOM     11  C   LIG    1        2.248   1.554  -2.414  0.00  0.00    +0.140 A 
ATOM     12  O   LIG    1        2.997   0.736  -3.171  0.00  0.00    -0.170 OA
ATOM     13  C   LIG    1        3.400  -0.312  -2.434  0.00  0.00    +0.180 A 
ATOM     14  C   LIG    1        2.913  -0.169  -1.188  0.00  0.00    -0.050 A 
ENDBRANCH   9  10
ENDBRANCH   1   9
TORSDOF 4
