REMARK  Name = ZINCAx0000000hDq.0
REMARK                            x       y       z     vdW  Elec       q    Type
REMARK                         _______ _______ _______ _____ _____    ______ ____
ROOT
ATOM      1  C   LIG    1       -1.928   4.308  -3.155  0.00  0.00    +0.010 C 
ATOM      2  C   LIG    1       -1.091   4.024  -4.404  0.00  0.00    +0.010 C 
ATOM      3  C   LIG    1       -0.995   2.510  -4.618  0.00  0.00    +0.260 C 
ATOM      4  N   LIG    1       -2.354   1.953  -4.663  0.00  0.00    -0.610 N 
ATOM      5  C   LIG    1       -3.273   2.241  -3.553  0.00  0.00    +0.260 C 
ATOM      6  C   LIG    1       -2.750   1.192  -5.703  0.00  0.00    +0.520 C 
ATOM      7  O   LIG    1       -1.953   0.877  -6.561  0.00  0.00    -0.530 OA
ATOM      8  C   LIG    1       -3.343   3.758  -3.352  0.00  0.00    +0.020 C 
ENDROOT
BRANCH   6   9
ATOM      9  C   LIG    1       -4.182   0.733  -5.798  0.00  0.00    +0.010 C 
ATOM     10  C   LIG    1       -4.489   0.312  -7.238  0.00  0.00    +0.060 C 
ATOM     11  C   LIG    1       -5.926  -0.209  -7.314  0.00  0.00    +0.160 C 
ATOM     12  C   LIG    1       -6.092  -1.376  -6.338  0.00  0.00    +0.170 C 
ATOM     13  N   LIG    1       -5.788  -0.923  -4.975  0.00  0.00    -0.520 NA
ATOM     14  C   LIG    1       -4.398  -0.462  -4.866  0.00  0.00    +0.180 C 
BRANCH  11  15
ATOM     15  O   LIG    1       -6.203  -0.655  -8.643  0.00  0.00    -0.380 OA
ATOM     16  C   LIG    1       -7.573  -0.522  -9.028  0.00  0.00    +0.200 C 
ENDBRANCH  11  15
BRANCH  13  17
ATOM     17  C   LIG    1       -6.070  -1.979  -3.994  0.00  0.00    +0.340 C 
BRANCH  17  18
ATOM     18  C   LIG    1       -5.081  -3.103  -4.166  0.00  0.00    -0.060 A 
ATOM     19  C   LIG    1       -3.937  -3.289  -3.467  0.00  0.00    +0.150 A 
ATOM     20  N   LIG    1       -3.375  -4.418  -3.958  0.00  0.00    -0.260 N 
ATOM     21  N   LIG    1       -4.132  -4.871  -4.895  0.00  0.00    -0.080 NA
ATOM     22  N   LIG    1       -5.158  -4.109  -5.045  0.00  0.00    -0.260 NA
BRANCH  20  23
ATOM     23  C   LIG    1       -2.119  -5.020  -3.503  0.00  0.00    +0.200 C 
ATOM     24  C   LIG    1       -1.183  -4.150  -2.661  0.00  0.00    +0.070 C 
ATOM     25  C   LIG    1       -0.820  -4.485  -4.109  0.00  0.00    +0.070 C 
ENDBRANCH  20  23
ENDBRANCH  17  18
ENDBRANCH  13  17
ENDBRANCH   6   9
BRANCH   1  26
ATOM     26  C   LIG    1       -1.997   5.818  -2.919  0.00  0.00    +0.090 C 
BRANCH  26  32
ATOM     27  C   LIG    1       -0.133   6.185  -1.270  0.00  0.00    -0.130 A 
ATOM     28  C   LIG    1        1.139   6.666  -0.954  0.00  0.00    +0.080 A 
ATOM     29  C   LIG    1        1.901   7.285  -1.924  0.00  0.00    -0.010 A 
ATOM     30  C   LIG    1        1.406   7.429  -3.208  0.00  0.00    +0.050 A 
ATOM     31  C   LIG    1        0.148   6.950  -3.530  0.00  0.00    +0.000 A 
ATOM     32  C   LIG    1       -0.625   6.334  -2.568  0.00  0.00    -0.010 A 
BRANCH  27  33
ATOM     33  C   LIG    1       -0.953   5.522  -0.236  0.00  0.00    +0.500 C 
ATOM     34  O   LIG    1       -2.011   5.008  -0.538  0.00  0.00    -0.490 OA
BRANCH  33  36
ATOM     35  C   LIG    1       -1.328   4.723   1.982  0.00  0.00    +0.270 C 
ATOM     36  O   LIG    1       -0.528   5.488   1.042  0.00  0.00    -0.360 OA
ENDBRANCH  33  36
ENDBRANCH  27  33
ENDBRANCH  26  32
ENDBRANCH   1  26
TORSDOF 9
