REMARK  Name = ZINCrg000000tgbb.0
REMARK                            x       y       z     vdW  Elec       q    Type
REMARK                         _______ _______ _______ _____ _____    ______ ____
ROOT
ATOM      1  O   LIG    1       -2.325   3.742  -2.300  0.00  0.00    -0.520 OA
ATOM      2  C   LIG    1       -3.004   4.121  -1.370  0.00  0.00    +0.520 C 
ATOM      3  N   LIG    1       -4.163   4.770  -1.602  0.00  0.00    -0.610 N 
ATOM      4  C   LIG    1       -4.999   5.230  -0.485  0.00  0.00    +0.270 C 
ATOM      5  C   LIG    1       -5.242   6.740  -0.650  0.00  0.00    +0.300 C 
ATOM      6  N   LIG    1       -5.695   6.994  -2.025  0.00  0.00    -1.000 NA
ATOM      7  C   LIG    1       -4.861   6.528  -3.142  0.00  0.00    +0.300 C 
ATOM      8  C   LIG    1       -4.616   5.023  -2.977  0.00  0.00    +0.280 C 
ENDROOT
BRANCH   6   9
ATOM      9  S   LIG    1       -7.119   7.789  -2.310  0.00  0.00    +2.700 S 
ATOM     10  O   LIG    1       -7.011   8.352  -3.610  0.00  0.00    -0.940 OA
ATOM     11  O   LIG    1       -7.387   8.562  -1.148  0.00  0.00    -0.950 OA
BRANCH   9  12
ATOM     12  C   LIG    1       -8.388   6.570  -2.400  0.00  0.00    -0.740 A 
ATOM     13  C   LIG    1       -9.074   6.185  -1.258  0.00  0.00    +0.170 A 
ATOM     14  C   LIG    1      -10.065   5.222  -1.377  0.00  0.00    -0.040 A 
ATOM     15  C   LIG    1      -10.335   4.683  -2.620  0.00  0.00    +0.320 A 
ATOM     16  N   LIG    1       -9.662   5.074  -3.685  0.00  0.00    -0.490 NA
ATOM     17  C   LIG    1       -8.717   5.990  -3.611  0.00  0.00    +0.370 A 
ENDBRANCH   9  12
ENDBRANCH   6   9
BRANCH   2  18
ATOM     18  C   LIG    1       -2.553   3.869   0.045  0.00  0.00    +0.120 C 
BRANCH  18  19
ATOM     19  C   LIG    1       -1.238   3.133   0.029  0.00  0.00    -0.020 A 
ATOM     20  C   LIG    1       -1.219   1.751   0.017  0.00  0.00    +0.050 A 
ATOM     21  C   LIG    1       -0.013   1.076   0.008  0.00  0.00    +0.110 A 
ATOM     22  C   LIG    1        1.175   1.783   0.000  0.00  0.00    -0.040 A 
ATOM     23  C   LIG    1        1.156   3.165   0.008  0.00  0.00    +0.110 A 
ATOM     24  C   LIG    1       -0.050   3.840   0.022  0.00  0.00    +0.050 A 
BRANCH  22  25
ATOM     25  N   LIG    1        2.467   1.061  -0.015  0.00  0.00    +0.030 N 
ATOM     26  O   LIG    1        3.513   1.684  -0.022  0.00  0.00    -0.160 OA
ATOM     27  O   LIG    1        2.483  -0.157  -0.022  0.00  0.00    -0.160 OA
ENDBRANCH  22  25
ENDBRANCH  18  19
ENDBRANCH   2  18
TORSDOF 5
