REMARK  Name = ZINCnE000001Q9Is.0
REMARK                            x       y       z     vdW  Elec       q    Type
REMARK                         _______ _______ _______ _____ _____    ______ ____
ROOT
ATOM      1  N   LIG    1       -1.845   6.407   0.053  0.00  0.00    -0.670 N 
ATOM      2  H   LIG    1       -2.187   5.502  -0.023  0.00  0.00    +0.410 HD
ATOM      3  C   LIG    1       -0.516   6.629   0.044  0.00  0.00    +0.610 C 
ATOM      4  O   LIG    1       -0.089   7.768   0.038  0.00  0.00    -0.500 OA
ENDROOT
BRANCH   1  10
ATOM      5  C   LIG    1       -6.307   8.317  -0.729  0.00  0.00    +0.090 C 
ATOM      6  C   LIG    1       -4.901   8.435  -0.198  0.00  0.00    -0.070 A 
ATOM      7  C   LIG    1       -4.488   9.607   0.407  0.00  0.00    -0.030 A 
ATOM      8  C   LIG    1       -3.199   9.720   0.896  0.00  0.00    +0.020 A 
ATOM      9  C   LIG    1       -2.320   8.661   0.780  0.00  0.00    +0.010 A 
ATOM     10  C   LIG    1       -2.732   7.481   0.172  0.00  0.00    +0.170 A 
ATOM     11  C   LIG    1       -4.026   7.374  -0.322  0.00  0.00    -0.130 A 
ATOM     12  C   LIG    1       -4.476   6.099  -0.987  0.00  0.00    +0.090 C 
ENDBRANCH   1  10
BRANCH   3  13
ATOM     13  C   LIG    1        0.421   5.490   0.041  0.00  0.00    -0.130 A 
ATOM     14  N   LIG    1        0.100   4.210   0.046  0.00  0.00    -0.280 NA
ATOM     15  N   LIG    1        1.161   3.486   0.041  0.00  0.00    -0.220 N 
ATOM     16  C   LIG    1        2.268   4.278   0.038  0.00  0.00    -0.110 A 
ATOM     17  C   LIG    1        1.838   5.565   0.032  0.00  0.00    +0.240 A 
ATOM     18  O   LIG    1        2.603   6.690   0.025  0.00  0.00    -0.700 OA
BRANCH  15  19
ATOM     19  C   LIG    1        1.177   2.085   0.044  0.00  0.00    +0.180 A 
ATOM     20  C   LIG    1       -0.017   1.377   0.053  0.00  0.00    +0.000 A 
ATOM     21  C   LIG    1        0.001  -0.004   0.055  0.00  0.00    +0.030 A 
ATOM     22  C   LIG    1        1.207  -0.681   0.050  0.00  0.00    -0.030 A 
ATOM     23  C   LIG    1        2.398   0.022   0.042  0.00  0.00    +0.030 A 
ATOM     24  C   LIG    1        2.386   1.403   0.039  0.00  0.00    -0.010 A 
ENDBRANCH  15  19
ENDBRANCH   3  13
TORSDOF 3
