REMARK  Name = ZINCpe00000VVGuY.0
REMARK                            x       y       z     vdW  Elec       q    Type
REMARK                         _______ _______ _______ _____ _____    ______ ____
ROOT
ATOM      1  N   LIG    1        1.280  -0.451  -0.333  0.00  0.00    -0.560 NA
ATOM      2  C   LIG    1        1.831  -0.961   0.921  0.00  0.00    +0.190 C 
ATOM      3  C   LIG    1        3.323  -0.710   0.944  0.00  0.00    +0.030 C 
ATOM      4  C   LIG    1        3.610   0.637   1.629  0.00  0.00    +0.260 C 
ATOM      5  N   LIG    1        2.620   1.660   1.237  0.00  0.00    -0.600 N 
ATOM      6  C   LIG    1        2.150   1.806  -0.126  0.00  0.00    +0.290 C 
ATOM      7  C   LIG    1        2.137   2.490   2.182  0.00  0.00    +0.530 C 
ATOM      8  O   LIG    1        1.393   3.396   1.870  0.00  0.00    -0.530 OA
ATOM      9  C   LIG    1        0.905   0.913  -0.346  0.00  0.00    +0.190 C 
ENDROOT
BRANCH   7  10
ATOM     10  C   LIG    1        2.520   2.293   3.626  0.00  0.00    -0.140 C 
ATOM     11  C   LIG    1        2.269   3.530   4.504  0.00  0.00    +0.080 C 
ATOM     12  C   LIG    1        3.606   3.209   5.198  0.00  0.00    +0.030 C 
ATOM     13  C   LIG    1        4.019   2.497   3.899  0.00  0.00    +0.070 C 
BRANCH  10  14
ATOM     14  C   LIG    1        1.968   1.017   4.209  0.00  0.00    +0.550 C 
ATOM     15  N   LIG    1        0.647   0.762   4.142  0.00  0.00    -0.730 N 
ATOM     16  H   LIG    1        0.041   1.429   3.783  0.00  0.00    +0.410 HD
ATOM     17  C   LIG    1        0.125  -0.525   4.609  0.00  0.00    +0.290 C 
ATOM     18  O   LIG    1        2.714   0.221   4.738  0.00  0.00    -0.520 OA
ENDBRANCH  10  14
ENDBRANCH   7  10
BRANCH   1  19
ATOM     19  C   LIG    1        0.182  -1.303  -0.810  0.00  0.00    +0.310 C 
BRANCH  19  24
ATOM     20  N   LIG    1        0.508  -1.641  -3.310  0.00  0.00    -0.440 N 
ATOM     21  C   LIG    1       -0.004  -1.089  -4.453  0.00  0.00    +0.120 A 
ATOM     22  C   LIG    1       -0.886  -0.146  -4.069  0.00  0.00    +0.140 A 
ATOM     23  N   LIG    1       -0.915  -0.127  -2.728  0.00  0.00    -0.490 NA
ATOM     24  C   LIG    1       -0.080  -1.016  -2.267  0.00  0.00    +0.210 A 
BRANCH  20  26
ATOM     25  C   LIG    1        0.800  -4.059  -3.083  0.00  0.00    +0.030 C 
ATOM     26  C   LIG    1        1.507  -2.710  -3.232  0.00  0.00    +0.290 C 
ENDBRANCH  20  26
ENDBRANCH  19  24
ENDBRANCH   1  19
TORSDOF 5
