REMARK  Name = ZINCAx000000090N.0
REMARK                            x       y       z     vdW  Elec       q    Type
REMARK                         _______ _______ _______ _____ _____    ______ ____
ROOT
ATOM      1  N   LIG    1        4.397   2.223  -1.655  0.00  0.00    -0.510 N 
ATOM      2  C   LIG    1        4.954   1.023  -1.920  0.00  0.00    +0.510 C 
ATOM      3  O   LIG    1        5.096   0.211  -1.030  0.00  0.00    -0.510 OA
ENDROOT
BRANCH   1   9
ATOM      4  N   LIG    1        2.657   4.353  -4.092  0.00  0.00    -0.540 N 
ATOM      5  C   LIG    1        3.702   4.901  -4.737  0.00  0.00    +0.710 A 
ATOM      6  N   LIG    1        4.968   4.594  -4.400  0.00  0.00    -0.660 N 
ATOM      7  H   LIG    1        5.704   5.003  -4.881  0.00  0.00    +0.430 HD
ATOM      8  C   LIG    1        5.224   3.727  -3.401  0.00  0.00    +0.570 A 
ATOM      9  C   LIG    1        4.154   3.135  -2.704  0.00  0.00    -0.160 A 
ATOM     10  O   LIG    1        6.375   3.456  -3.103  0.00  0.00    -0.520 OA
ATOM     11  O   LIG    1        3.499   5.687  -5.642  0.00  0.00    -0.530 OA
ATOM     12  C   LIG    1        2.862   3.457  -3.068  0.00  0.00    +0.490 A 
BRANCH  12  13
ATOM     13  N   LIG    1        1.794   2.893  -2.413  0.00  0.00    -0.830 N 
ATOM     14  H   LIG    1        0.890   3.067  -2.720  0.00  0.00    +0.410 HD
ATOM     15  H   LIG    1        1.944   2.321  -1.644  0.00  0.00    +0.430 HD
ENDBRANCH  12  13
BRANCH   4  16
ATOM     16  C   LIG    1        1.291   4.708  -4.485  0.00  0.00    +0.300 C 
BRANCH  16  17
ATOM     17  C   LIG    1        0.804   3.741  -5.566  0.00  0.00    +0.010 C 
BRANCH  17  19
ATOM     18  C   LIG    1       -1.110   3.145  -7.058  0.00  0.00    +0.030 C 
ATOM     19  C   LIG    1       -0.623   4.112  -5.977  0.00  0.00    +0.020 C 
ENDBRANCH  17  19
ENDBRANCH  16  17
ENDBRANCH   4  16
ENDBRANCH   1   9
BRANCH   2  20
ATOM     20  C   LIG    1        5.399   0.691  -3.321  0.00  0.00    +0.170 C 
ATOM     21  C   LIG    1        4.176   0.587  -4.234  0.00  0.00    +0.090 C 
BRANCH  20  22
ATOM     22  O   LIG    1        6.098  -0.555  -3.316  0.00  0.00    -0.280 OA
BRANCH  22  23
ATOM     23  C   LIG    1        7.418  -0.521  -2.999  0.00  0.00    +0.160 A 
ATOM     24  C   LIG    1        8.003   0.673  -2.596  0.00  0.00    -0.060 A 
ATOM     25  C   LIG    1        9.340   0.711  -2.268  0.00  0.00    +0.110 A 
ATOM     26  C   LIG    1       10.111  -0.452  -2.352  0.00  0.00    -0.070 A 
ATOM     27  C   LIG    1        9.520  -1.649  -2.764  0.00  0.00    +0.110 A 
ATOM     28  C   LIG    1        8.181  -1.679  -3.084  0.00  0.00    -0.010 A 
BRANCH  26  29
ATOM     29  C   LIG    1       11.503  -0.416  -2.018  0.00  0.00    +0.260 C 
ATOM     30  N   LIG    1       12.607  -0.388  -1.753  0.00  0.00    -0.420 NA
ENDBRANCH  26  29
ENDBRANCH  22  23
ENDBRANCH  20  22
ENDBRANCH   2  20
BRANCH   1  31
ATOM     31  C   LIG    1        4.046   2.580  -0.279  0.00  0.00    +0.350 C 
BRANCH  31  32
ATOM     32  C   LIG    1        5.256   3.144   0.419  0.00  0.00    -0.140 A 
ATOM     33  C   LIG    1        6.003   2.346   1.263  0.00  0.00    +0.080 A 
ATOM     34  C   LIG    1        7.114   2.863   1.903  0.00  0.00    -0.040 A 
ATOM     35  C   LIG    1        7.481   4.180   1.700  0.00  0.00    +0.050 A 
ATOM     36  C   LIG    1        6.738   4.984   0.857  0.00  0.00    -0.080 A 
ATOM     37  C   LIG    1        5.622   4.467   0.213  0.00  0.00    +0.150 A 
BRANCH  37  38
ATOM     38  O   LIG    1        4.890   5.255  -0.617  0.00  0.00    -0.310 OA
ATOM     39  C   LIG    1        5.255   6.634  -0.692  0.00  0.00    +0.230 C 
ENDBRANCH  37  38
ENDBRANCH  31  32
ENDBRANCH   1  31
TORSDOF 12
