REMARK  Name = ZINCqH0000051J2F.0
REMARK                            x       y       z     vdW  Elec       q    Type
REMARK                         _______ _______ _______ _____ _____    ______ ____
ROOT
ATOM      1  C   LIG    1       -0.102   5.306   0.032  0.00  0.00    +0.230 A 
ATOM      2  N   LIG    1       -1.179   6.052   0.041  0.00  0.00    -0.350 NA
ATOM      3  O   LIG    1       -0.880   7.227   0.050  0.00  0.00    +0.080 OA
ATOM      4  C   LIG    1        0.457   7.359   0.038  0.00  0.00    +0.230 A 
ATOM      5  N   LIG    1        0.963   6.137   0.027  0.00  0.00    -0.450 NA
ENDROOT
BRANCH   4   6
ATOM      6  C   LIG    1        1.214   8.621   0.038  0.00  0.00    -0.070 A 
ATOM      7  C   LIG    1        2.608   8.615   0.030  0.00  0.00    +0.190 A 
ATOM      8  C   LIG    1        3.320   9.816   0.023  0.00  0.00    -0.010 A 
ATOM      9  C   LIG    1        2.691  11.020   0.037  0.00  0.00    +0.090 A 
ATOM     10  C   LIG    1        1.287  11.098   0.051  0.00  0.00    -0.070 A 
ATOM     11  C   LIG    1        0.626  12.338   0.065  0.00  0.00    +0.040 A 
ATOM     12  C   LIG    1       -0.735  12.376   0.078  0.00  0.00    +0.010 A 
ATOM     13  C   LIG    1       -1.485  11.204   0.079  0.00  0.00    +0.040 A 
ATOM     14  C   LIG    1       -0.877   9.983   0.066  0.00  0.00    +0.020 A 
ATOM     15  C   LIG    1        0.521   9.907   0.052  0.00  0.00    -0.010 A 
BRANCH   7  16
ATOM     16  O   LIG    1        3.278   7.435   0.022  0.00  0.00    -0.480 OA
ATOM     17  H   LIG    1        3.467   7.096  -0.863  0.00  0.00    +0.400 HD
ENDBRANCH   7  16
ENDBRANCH   4   6
BRANCH   1  20
ATOM     18  O   LIG    1       -2.337   3.639   0.044  0.00  0.00    -0.520 OA
ATOM     19  C   LIG    1       -1.258   3.072   0.031  0.00  0.00    +0.530 A 
ATOM     20  C   LIG    1       -0.059   3.826   0.023  0.00  0.00    -0.160 A 
ATOM     21  C   LIG    1        1.155   3.156   0.008  0.00  0.00    +0.190 A 
ATOM     22  C   LIG    1        1.158   1.758   0.000  0.00  0.00    -0.070 A 
ATOM     23  C   LIG    1       -0.013   1.076   0.008  0.00  0.00    +0.320 A 
ATOM     24  N   LIG    1       -1.203   1.726   0.017  0.00  0.00    -0.470 N 
BRANCH  24  25
ATOM     25  C   LIG    1       -2.447   0.954   0.019  0.00  0.00    +0.190 C 
ATOM     26  C   LIG    1       -2.339  -0.560   0.214  0.00  0.00    +0.050 C 
ATOM     27  C   LIG    1       -2.695   0.011  -1.160  0.00  0.00    +0.030 C 
ENDBRANCH  24  25
ENDBRANCH   1  20
TORSDOF 4
