REMARK  Name = ZINCpk000000dZx8.0
REMARK                            x       y       z     vdW  Elec       q    Type
REMARK                         _______ _______ _______ _____ _____    ______ ____
ROOT
ATOM      1  N   LIG    1       -1.776   7.226   3.991  0.00  0.00    -0.570 N 
ATOM      2  C   LIG    1       -2.789   6.297   3.475  0.00  0.00    +0.310 C 
ATOM      3  C   LIG    1       -2.119   5.578   2.283  0.00  0.00    +0.000 C 
ATOM      4  C   LIG    1       -0.621   5.690   2.647  0.00  0.00    +0.080 C 
ATOM      5  C   LIG    1       -0.548   6.905   3.546  0.00  0.00    +0.520 C 
ATOM      6  O   LIG    1        0.470   7.503   3.826  0.00  0.00    -0.510 OA
ENDROOT
BRANCH   1  12
ATOM      7  C   LIG    1       -2.459   9.521   4.301  0.00  0.00    -0.070 A 
ATOM      8  C   LIG    1       -2.736  10.584   5.139  0.00  0.00    +0.020 A 
ATOM      9  C   LIG    1       -2.599  10.442   6.508  0.00  0.00    +0.020 A 
ATOM     10  C   LIG    1       -2.188   9.235   7.043  0.00  0.00    +0.010 A 
ATOM     11  C   LIG    1       -1.915   8.166   6.211  0.00  0.00    +0.020 A 
ATOM     12  C   LIG    1       -2.052   8.306   4.836  0.00  0.00    +0.140 A 
BRANCH   7  14
ATOM     13  C   LIG    1       -1.254  10.073   2.206  0.00  0.00    +0.030 C 
ATOM     14  C   LIG    1       -2.603   9.679   2.810  0.00  0.00    +0.060 C 
ENDBRANCH   7  14
ENDBRANCH   1  12
BRANCH   3  15
ATOM     15  C   LIG    1       -2.550   4.136   2.212  0.00  0.00    +0.530 C 
ATOM     16  N   LIG    1       -2.074   3.337   1.237  0.00  0.00    -0.730 N 
ATOM     17  H   LIG    1       -1.453   3.690   0.581  0.00  0.00    +0.400 HD
ATOM     18  O   LIG    1       -3.326   3.694   3.033  0.00  0.00    -0.530 OA
BRANCH  16  19
ATOM     19  C   LIG    1       -2.493   1.935   1.169  0.00  0.00    +0.270 C 
BRANCH  19  20
ATOM     20  C   LIG    1       -1.812   1.256  -0.021  0.00  0.00    +0.030 C 
BRANCH  20  21
ATOM     21  C   LIG    1       -2.249  -0.208  -0.093  0.00  0.00    +0.330 C 
BRANCH  21  22
ATOM     22  N   LIG    1       -1.597  -0.858  -1.232  0.00  0.00    -0.380 N 
ATOM     23  C   LIG    1       -0.841  -1.969  -1.202  0.00  0.00    +0.480 A 
ATOM     24  N   LIG    1       -0.447  -2.225  -2.423  0.00  0.00    -0.550 NA
ATOM     25  C   LIG    1       -0.921  -1.299  -3.255  0.00  0.00    +0.420 A 
ATOM     26  N   LIG    1       -1.631  -0.440  -2.573  0.00  0.00    -0.320 NA
ENDBRANCH  21  22
ENDBRANCH  20  21
ENDBRANCH  19  20
ENDBRANCH  16  19
ENDBRANCH   3  15
TORSDOF 7
