REMARK  Name = ZINCb80000001191.0
REMARK                            x       y       z     vdW  Elec       q    Type
REMARK                         _______ _______ _______ _____ _____    ______ ____
ROOT
ATOM      1  C   LIG    1        1.349   1.721  -0.108  0.00  0.00    +0.490 C 
ATOM      2  N   LIG    1        2.263   1.539   0.866  0.00  0.00    -0.610 N 
ATOM      3  C   LIG    1        3.549   2.236   0.810  0.00  0.00    +0.270 C 
ATOM      4  C   LIG    1        4.694   1.244   0.659  0.00  0.00    +0.030 C 
ATOM      5  C   LIG    1        4.789   0.354   1.901  0.00  0.00    +0.120 C 
ATOM      6  S   LIG    1        3.274  -0.642   2.028  0.00  0.00    -0.260 S 
ATOM      7  C   LIG    1        1.978   0.634   1.989  0.00  0.00    +0.370 C 
ATOM      8  O   LIG    1        1.624   2.392  -1.080  0.00  0.00    -0.520 OA
ENDROOT
BRANCH   1  10
ATOM      9  C   LIG    1       -0.794   1.772   1.137  0.00  0.00    +0.030 C 
ATOM     10  C   LIG    1       -0.015   1.091   0.011  0.00  0.00    +0.220 C 
BRANCH  10  11
ATOM     11  O   LIG    1       -0.722   1.250  -1.221  0.00  0.00    -0.540 OA
ATOM     12  H   LIG    1       -0.855   2.171  -1.482  0.00  0.00    +0.390 HD
ENDBRANCH  10  11
ENDBRANCH   1  10
TORSDOF 2
