REMARK  Name = ZINCkj00000y7zJS.1
REMARK                            x       y       z     vdW  Elec       q    Type
REMARK                         _______ _______ _______ _____ _____    ______ ____
ROOT
ATOM      1  N   LIG    1       -2.105  -0.148  -1.230  0.00  0.00    -0.740 N 
ATOM      2  H   LIG    1       -1.628   0.366  -1.901  0.00  0.00    +0.400 HD
ATOM      3  C   LIG    1       -3.387  -0.508  -1.443  0.00  0.00    +0.700 C 
ATOM      4  N   LIG    1       -4.005  -0.154  -2.587  0.00  0.00    -0.760 N 
ATOM      5  H   LIG    1       -3.528   0.360  -3.257  0.00  0.00    +0.390 HD
ATOM      6  O   LIG    1       -3.985  -1.153  -0.604  0.00  0.00    -0.580 OA
ENDROOT
BRANCH   1   7
ATOM      7  C   LIG    1       -1.433  -0.534   0.013  0.00  0.00    +0.310 C 
BRANCH   7   8
ATOM      8  C   LIG    1        0.002  -0.004   0.002  0.00  0.00    +0.100 C 
ATOM      9  C   LIG    1        0.742  -0.511   1.242  0.00  0.00    +0.030 C 
ATOM     10  C   LIG    1        0.718  -0.497  -1.257  0.00  0.00    +0.020 C 
BRANCH   8  12
ATOM     11  C   LIG    1        1.280   2.024   0.001  0.00  0.00    +0.210 C 
ATOM     12  O   LIG    1       -0.017   1.425   0.010  0.00  0.00    -0.380 OA
ENDBRANCH   8  12
ENDBRANCH   7   8
ENDBRANCH   1   7
BRANCH   4  13
ATOM     13  C   LIG    1       -5.398  -0.545  -2.819  0.00  0.00    +0.320 C 
BRANCH  13  14
ATOM     14  C   LIG    1       -5.855  -0.020  -4.181  0.00  0.00    -0.020 C 
ATOM     15  C   LIG    1       -7.345  -0.320  -4.370  0.00  0.00    +0.080 C 
ATOM     16  C   LIG    1       -7.853   0.409  -5.620  0.00  0.00    +0.190 C 
ATOM     17  C   LIG    1       -6.896   0.126  -6.754  0.00  0.00    +0.310 C 
ATOM     18  N   LIG    1       -7.101   0.307  -8.025  0.00  0.00    -0.470 N 
ATOM     19  C   LIG    1       -6.007  -0.066  -8.708  0.00  0.00    +0.230 C 
ATOM     20  C   LIG    1       -5.087  -0.496  -7.820  0.00  0.00    +0.250 C 
ATOM     21  H   LIG    1       -7.916   0.658  -8.418  0.00  0.00    +0.460 HD
ATOM     22  N   LIG    1       -5.649  -0.374  -6.584  0.00  0.00    -0.410 N 
ATOM     23  C   LIG    1       -5.050  -0.709  -5.290  0.00  0.00    +0.330 C 
ENDBRANCH  13  14
ENDBRANCH   4  13
TORSDOF 5
