REMARK  Name = ZINCtV000002HIYV.0
REMARK                            x       y       z     vdW  Elec       q    Type
REMARK                         _______ _______ _______ _____ _____    ______ ____
ROOT
ATOM      1  N   LIG    1        2.382   5.305   0.007  0.00  0.00    -0.630 N 
ATOM      2  H   LIG    1        1.531   5.770   0.018  0.00  0.00    +0.420 HD
ATOM      3  C   LIG    1        2.413   3.957  -0.000  0.00  0.00    +0.550 C 
ATOM      4  O   LIG    1        3.480   3.374  -0.014  0.00  0.00    -0.440 OA
ENDROOT
BRANCH   3   5
ATOM      5  C   LIG    1        1.155   3.191   0.008  0.00  0.00    -0.130 A 
ATOM      6  C   LIG    1       -0.074   3.857   0.024  0.00  0.00    +0.070 A 
ATOM      7  C   LIG    1       -1.247   3.134   0.031  0.00  0.00    -0.010 A 
ATOM      8  C   LIG    1       -1.217   1.749   0.017  0.00  0.00    +0.070 A 
ATOM      9  C   LIG    1       -0.013   1.076   0.008  0.00  0.00    -0.010 A 
ATOM     10  C   LIG    1        1.182   1.786   0.000  0.00  0.00    -0.040 A 
BRANCH  10  11
ATOM     11  S   LIG    1        2.722   0.930  -0.019  0.00  0.00    +0.030 S 
BRANCH  11  12
ATOM     12  C   LIG    1        2.220  -0.813  -0.025  0.00  0.00    +0.110 C 
BRANCH  12  13
ATOM     13  C   LIG    1        3.446  -1.688  -0.042  0.00  0.00    +0.080 A 
ATOM     14  C   LIG    1        4.045  -2.115   1.074  0.00  0.00    -0.060 A 
ATOM     15  S   LIG    1        5.427  -3.103   0.604  0.00  0.00    +0.140 S 
ATOM     16  C   LIG    1        5.061  -2.844  -1.046  0.00  0.00    +0.230 A 
ATOM     17  N   LIG    1        4.012  -2.101  -1.158  0.00  0.00    -0.460 NA
ENDBRANCH  12  13
ENDBRANCH  11  12
ENDBRANCH  10  11
ENDBRANCH   3   5
BRANCH   1  21
ATOM     18  C   LIG    1        5.435   7.633  -0.009  0.00  0.00    -0.230 A 
ATOM     19  C   LIG    1        5.776   6.343  -0.019  0.00  0.00    +0.250 A 
ATOM     20  N   LIG    1        4.755   5.505  -0.009  0.00  0.00    -0.470 NA
ATOM     21  C   LIG    1        3.568   6.027  -0.001  0.00  0.00    +0.270 A 
ATOM     22  S   LIG    1        3.676   7.733   0.007  0.00  0.00    +0.130 S 
BRANCH  18  23
ATOM     23  C   LIG    1        6.388   8.800  -0.013  0.00  0.00    +0.190 C 
BRANCH  23  28
ATOM     24  C   LIG    1        7.554  10.320  -5.465  0.00  0.00    +0.090 C 
ATOM     25  C   LIG    1        7.250   9.924  -4.043  0.00  0.00    -0.090 A 
ATOM     26  C   LIG    1        6.183  10.498  -3.378  0.00  0.00    +0.000 A 
ATOM     27  C   LIG    1        5.904  10.135  -2.074  0.00  0.00    +0.010 A 
ATOM     28  C   LIG    1        6.692   9.196  -1.435  0.00  0.00    -0.090 A 
ATOM     29  C   LIG    1        7.762   8.625  -2.098  0.00  0.00    +0.010 A 
ATOM     30  C   LIG    1        8.038   8.985  -3.403  0.00  0.00    +0.000 A 
ENDBRANCH  23  28
ENDBRANCH  18  23
ENDBRANCH   1  21
TORSDOF 7
