REMARK  Name = ZINCvU00000004wn.0
REMARK                            x       y       z     vdW  Elec       q    Type
REMARK                         _______ _______ _______ _____ _____    ______ ____
ROOT
ATOM      1  C   LIG    1       -2.482   0.853   0.018  0.00  0.00    +0.130 C 
ENDROOT
BRANCH   1   2
ATOM      2  C   LIG    1       -1.187   1.624   0.017  0.00  0.00    +0.540 C 
ATOM      3  N   LIG    1       -0.011   0.966   0.007  0.00  0.00    -0.610 N 
ATOM      4  H   LIG    1        0.002  -0.004   0.002  0.00  0.00    +0.430 HD
ATOM      5  O   LIG    1       -1.204   2.837   0.023  0.00  0.00    -0.490 OA
BRANCH   3   6
ATOM      6  C   LIG    1        1.183   1.677  -0.000  0.00  0.00    +0.270 A 
ATOM      7  N   LIG    1        2.368   1.151  -0.014  0.00  0.00    -0.490 NA
ATOM      8  C   LIG    1        3.397   1.987  -0.021  0.00  0.00    +0.130 A 
ATOM      9  C   LIG    1        3.078   3.294  -0.011  0.00  0.00    -0.110 A 
ATOM     10  S   LIG    1        1.322   3.433   0.000  0.00  0.00    +0.220 S 
BRANCH   8  11
ATOM     11  C   LIG    1        4.802   1.514  -0.037  0.00  0.00    -0.020 A 
ATOM     12  C   LIG    1        5.080   0.148  -0.046  0.00  0.00    +0.070 A 
ATOM     13  C   LIG    1        6.390  -0.287  -0.061  0.00  0.00    +0.030 A 
ATOM     14  C   LIG    1        7.426   0.629  -0.068  0.00  0.00    +0.060 A 
ATOM     15  C   LIG    1        7.157   1.987  -0.060  0.00  0.00    -0.090 A 
ATOM     16 BR   LIG    1        8.580   3.232  -0.070  0.00  0.00    -0.050 Br
ATOM     17  C   LIG    1        5.850   2.433  -0.049  0.00  0.00    +0.060 A 
ENDBRANCH   8  11
ENDBRANCH   3   6
ENDBRANCH   1   2
BRANCH   1  18
ATOM     18  S   LIG    1       -3.874   2.010   0.031  0.00  0.00    +0.100 S 
BRANCH  18  20
ATOM     19  N   LIG    1       -6.548   1.188   0.040  0.00  0.00    -0.450 N 
ATOM     20  C   LIG    1       -5.218   0.872   0.032  0.00  0.00    +0.140 A 
ATOM     21  N   LIG    1       -5.129  -0.439   0.018  0.00  0.00    -0.280 NA
ATOM     22  N   LIG    1       -6.303  -0.963   0.026  0.00  0.00    -0.250 NA
ATOM     23  C   LIG    1       -7.216  -0.017   0.036  0.00  0.00    +0.270 A 
BRANCH  23  24
ATOM     24  C   LIG    1       -8.675  -0.208   0.041  0.00  0.00    +0.030 A 
ATOM     25  C   LIG    1       -9.325  -1.406   0.032  0.00  0.00    -0.100 A 
ATOM     26  C   LIG    1      -10.703  -1.119   0.046  0.00  0.00    -0.050 A 
ATOM     27  C   LIG    1      -10.828   0.223   0.054  0.00  0.00    +0.200 A 
ATOM     28  C   LIG    1       -8.690  -2.773   0.014  0.00  0.00    +0.140 C 
ATOM     29  O   LIG    1       -9.602   0.770   0.051  0.00  0.00    -0.170 OA
ENDBRANCH  23  24
BRANCH  19  30
ATOM     30  C   LIG    1       -7.139   2.528   0.050  0.00  0.00    +0.350 C 
BRANCH  30  32
ATOM     31  C   LIG    1       -8.537   3.384  -1.760  0.00  0.00    +0.070 C 
ATOM     32  C   LIG    1       -7.349   2.996  -1.367  0.00  0.00    -0.070 C 
ENDBRANCH  30  32
ENDBRANCH  19  30
ENDBRANCH  18  20
ENDBRANCH   1  18
TORSDOF 8
