REMARK  Name = ZINCqH0000050YCG.0
REMARK                            x       y       z     vdW  Elec       q    Type
REMARK                         _______ _______ _______ _____ _____    ______ ____
ROOT
ATOM      1  N   LIG    1       -0.067   1.120  -2.437  0.00  0.00    -0.690 N 
ATOM      2  H   LIG    1        0.730   0.573  -2.358  0.00  0.00    +0.420 HD
ENDROOT
BRANCH   1   9
ATOM      3  C   LIG    1       -3.208   3.275  -5.451  0.00  0.00    +0.100 A 
ATOM      4  N   LIG    1       -3.210   3.276  -6.761  0.00  0.00    -0.200 NA
ATOM      5  N   LIG    1       -2.215   2.592  -7.207  0.00  0.00    -0.230 NA
ATOM      6  C   LIG    1       -1.521   2.115  -6.185  0.00  0.00    +0.150 A 
ATOM      7  C   LIG    1       -0.364   1.320  -6.080  0.00  0.00    +0.190 A 
ATOM      8  C   LIG    1        0.107   0.998  -4.847  0.00  0.00    +0.010 A 
ATOM      9  C   LIG    1       -0.559   1.456  -3.694  0.00  0.00    +0.420 A 
ATOM     10  N   LIG    1       -1.641   2.193  -3.791  0.00  0.00    -0.330 NA
ATOM     11  N   LIG    1       -2.148   2.546  -5.043  0.00  0.00    -0.240 N 
BRANCH   3  13
ATOM     12  F   LIG    1       -5.333   4.324  -5.311  0.00  0.00    -0.150 F 
ATOM     13  C   LIG    1       -4.209   3.965  -4.559  0.00  0.00    +0.580 C 
ATOM     14  F   LIG    1       -3.630   5.113  -4.008  0.00  0.00    -0.160 F 
ATOM     15  F   LIG    1       -4.594   3.097  -3.532  0.00  0.00    -0.160 F 
ENDBRANCH   3  13
ENDBRANCH   1   9
BRANCH   1  16
ATOM     16  C   LIG    1       -0.753   1.593  -1.232  0.00  0.00    +0.280 C 
BRANCH  16  17
ATOM     17  C   LIG    1       -0.013   1.086   0.008  0.00  0.00    +0.030 C 
BRANCH  17  18
ATOM     18  C   LIG    1       -0.729   1.579   1.267  0.00  0.00    +0.160 C 
BRANCH  18  19
ATOM     19  C   LIG    1        0.000   1.080   2.488  0.00  0.00    +0.090 A 
ATOM     20  N   LIG    1        0.951   1.711   3.067  0.00  0.00    -0.460 NA
ATOM     21  C   LIG    1        1.510   1.146   4.154  0.00  0.00    +0.080 A 
ATOM     22  C   LIG    1        2.554   1.616   4.975  0.00  0.00    +0.080 A 
ATOM     23  C   LIG    1        2.981   0.878   6.038  0.00  0.00    +0.030 A 
ATOM     24  C   LIG    1        2.398  -0.346   6.332  0.00  0.00    +0.040 A 
ATOM     25  C   LIG    1        1.375  -0.830   5.547  0.00  0.00    +0.060 A 
ATOM     26  C   LIG    1        0.926  -0.089   4.456  0.00  0.00    -0.180 A 
ATOM     27  S   LIG    1       -0.335  -0.401   3.267  0.00  0.00    +0.100 S 
ENDBRANCH  18  19
ENDBRANCH  17  18
ENDBRANCH  16  17
ENDBRANCH   1  16
TORSDOF 6
