REMARK  Name = ZINCrD00000hQ4o8.0
REMARK                            x       y       z     vdW  Elec       q    Type
REMARK                         _______ _______ _______ _____ _____    ______ ____
ROOT
ATOM      1  O   LIG    1        6.894   6.237   4.290  0.00  0.00    -0.540 OA
ATOM      2  C   LIG    1        6.703   5.045   4.177  0.00  0.00    +0.520 C 
ATOM      3  N   LIG    1        6.446   4.516   2.964  0.00  0.00    -0.610 N 
ATOM      4  C   LIG    1        6.325   3.062   2.792  0.00  0.00    +0.280 C 
ATOM      5  C   LIG    1        7.282   2.615   1.682  0.00  0.00    +0.010 C 
ATOM      6  C   LIG    1        7.002   3.425   0.414  0.00  0.00    +0.130 C 
ATOM      7  C   LIG    1        7.937   2.959  -0.705  0.00  0.00    +0.050 C 
ATOM      8  C   LIG    1        7.819   1.436  -0.873  0.00  0.00    +0.270 C 
ATOM      9  C   LIG    1        6.347   1.098  -0.914  0.00  0.00    -0.010 A 
ATOM     10  N   LIG    1        5.771   0.010  -1.329  0.00  0.00    -0.260 NA
ATOM     11  N   LIG    1        4.384   0.164  -1.177  0.00  0.00    -0.360 N 
ATOM     12  C   LIG    1        4.154   1.401  -0.656  0.00  0.00    +0.210 A 
ATOM     13  C   LIG    1        5.350   1.993  -0.478  0.00  0.00    -0.020 A 
ATOM     14  C   LIG    1        7.240   4.911   0.691  0.00  0.00    +0.060 C 
ATOM     15  O   LIG    1        5.636   3.231   0.022  0.00  0.00    -0.280 OA
ATOM     16  C   LIG    1        6.282   5.383   1.789  0.00  0.00    +0.290 C 
ENDROOT
BRANCH  11  17
ATOM     17  C   LIG    1        3.364  -0.829  -1.524  0.00  0.00    +0.270 C 
ATOM     18  C   LIG    1        2.171  -0.723  -0.551  0.00  0.00    +0.030 C 
ATOM     19  C   LIG    1        1.155   0.181  -1.294  0.00  0.00    +0.020 C 
ATOM     20  C   LIG    1        1.300  -0.279  -2.766  0.00  0.00    +0.020 C 
ATOM     21  C   LIG    1        2.810  -0.546  -2.932  0.00  0.00    +0.010 C 
ENDBRANCH  11  17
BRANCH   2  22
ATOM     22  C   LIG    1        6.751   4.155   5.392  0.00  0.00    -0.030 C 
ATOM     23  C   LIG    1        5.328   3.941   5.948  0.00  0.00    +0.030 C 
ATOM     24  C   LIG    1        5.521   3.926   7.486  0.00  0.00    +0.020 C 
ATOM     25  C   LIG    1        6.607   5.008   7.706  0.00  0.00    +0.020 C 
ATOM     26  C   LIG    1        7.564   4.832   6.509  0.00  0.00    +0.030 C 
ENDBRANCH   2  22
BRANCH   8  27
ATOM     27  O   LIG    1        8.445   1.031  -2.091  0.00  0.00    -0.550 OA
ATOM     28  H   LIG    1        8.379   0.083  -2.271  0.00  0.00    +0.390 HD
ENDBRANCH   8  27
TORSDOF 3
