REMARK  Name = ZINCvU0000000JxE.0
REMARK                            x       y       z     vdW  Elec       q    Type
REMARK                         _______ _______ _______ _____ _____    ______ ____
ROOT
ATOM      1  C   LIG    1        0.490   9.498  -0.161  0.00  0.00    +0.260 A 
ATOM      2  N   LIG    1        0.842   8.255  -0.081  0.00  0.00    -0.380 NA
ATOM      3  C   LIG    1        2.159   8.020  -0.088  0.00  0.00    +0.050 A 
ATOM      4  C   LIG    1        2.935   9.143  -0.175  0.00  0.00    -0.040 A 
ATOM      5  S   LIG    1        1.921  10.517  -0.258  0.00  0.00    +0.180 S 
ENDROOT
BRANCH   3   6
ATOM      6  C   LIG    1        2.705   6.715  -0.005  0.00  0.00    +0.240 C 
ATOM      7  C   LIG    1        1.870   5.613  -0.040  0.00  0.00    -0.060 C 
ATOM      8  N   LIG    1        2.238   4.299  -0.062  0.00  0.00    -0.480 NA
ATOM      9  C   LIG    1        1.166   3.557  -0.096  0.00  0.00    +0.350 C 
ATOM     10  O   LIG    1        0.047   4.307  -0.088  0.00  0.00    -0.300 OA
ATOM     11  C   LIG    1        0.400   5.610  -0.054  0.00  0.00    +0.460 C 
ATOM     12  O   LIG    1       -0.341   6.576  -0.038  0.00  0.00    -0.350 OA
BRANCH   9  13
ATOM     13  C   LIG    1        1.177   2.081  -0.131  0.00  0.00    -0.040 A 
ATOM     14  C   LIG    1        2.390   1.389  -0.134  0.00  0.00    +0.080 A 
ATOM     15  C   LIG    1        2.394   0.009  -0.166  0.00  0.00    +0.020 A 
ATOM     16  C   LIG    1        1.199  -0.688  -0.195  0.00  0.00    +0.040 A 
ATOM     17  C   LIG    1       -0.006  -0.009  -0.191  0.00  0.00    -0.090 A 
ATOM     18  C   LIG    1       -1.303  -0.777  -0.223  0.00  0.00    +0.090 C 
ATOM     19  C   LIG    1       -0.025   1.370  -0.159  0.00  0.00    +0.050 A 
ENDBRANCH   9  13
ENDBRANCH   3   6
BRANCH   1  22
ATOM     20  C   LIG    1       -0.834   9.643  -2.624  0.00  0.00    +0.110 C 
ATOM     21  C   LIG    1       -1.514   9.994  -1.326  0.00  0.00    +0.530 C 
ATOM     22  N   LIG    1       -0.820   9.959  -0.171  0.00  0.00    -0.480 N 
ATOM     23  O   LIG    1       -2.685  10.309  -1.321  0.00  0.00    -0.500 OA
BRANCH  22  24
ATOM     24  C   LIG    1       -1.421  10.386   1.020  0.00  0.00    +0.110 A 
ATOM     25  C   LIG    1       -2.118   9.483   1.811  0.00  0.00    -0.050 A 
ATOM     26  C   LIG    1       -2.705   9.907   2.987  0.00  0.00    +0.010 A 
ATOM     27  C   LIG    1       -2.608  11.231   3.372  0.00  0.00    +0.030 A 
ATOM     28  C   LIG    1       -1.919  12.135   2.584  0.00  0.00    +0.010 A 
ATOM     29  C   LIG    1       -2.229   8.040   1.389  0.00  0.00    +0.100 C 
ATOM     30  C   LIG    1       -1.325  11.716   1.409  0.00  0.00    -0.070 A 
ATOM     31  C   LIG    1       -0.574  12.701   0.551  0.00  0.00    +0.100 C 
ENDBRANCH  22  24
ENDBRANCH   1  22
TORSDOF 4
