REMARK  Name = ZINCpk00000xI3mt.0
REMARK                            x       y       z     vdW  Elec       q    Type
REMARK                         _______ _______ _______ _____ _____    ______ ____
ROOT
ATOM      1  C   LIG    1       -4.981   4.509   3.615  0.00  0.00    +0.160 C 
ATOM      2  C   LIG    1       -6.009   4.944   2.555  0.00  0.00    +0.280 C 
ATOM      3  N   LIG    1       -6.278   6.099   3.437  0.00  0.00    -0.640 N 
ATOM      4  C   LIG    1       -7.330   6.921   3.623  0.00  0.00    +0.520 C 
ATOM      5  O   LIG    1       -7.267   7.810   4.445  0.00  0.00    -0.530 OA
ATOM      6  C   LIG    1       -4.933   5.989   4.035  0.00  0.00    +0.300 C 
ENDROOT
BRANCH   4   7
ATOM      7  C   LIG    1       -8.584   6.734   2.809  0.00  0.00    +0.130 C 
ATOM      8  C   LIG    1       -8.438   7.463   1.472  0.00  0.00    +0.090 C 
BRANCH   7   9
ATOM      9  O   LIG    1       -8.795   5.341   2.571  0.00  0.00    -0.540 OA
ATOM     10  H   LIG    1       -8.897   4.816   3.376  0.00  0.00    +0.380 HD
ENDBRANCH   7   9
BRANCH   7  11
ATOM     11  C   LIG    1       -9.779   7.308   3.574  0.00  0.00    +0.040 C 
BRANCH  11  12
ATOM     12  C   LIG    1      -11.052   7.118   2.747  0.00  0.00    +0.080 C 
BRANCH  12  13
ATOM     13  C   LIG    1      -12.229   7.683   3.501  0.00  0.00    -0.080 A 
ATOM     14  C   LIG    1      -12.950   6.877   4.361  0.00  0.00    +0.000 A 
ATOM     15  C   LIG    1      -14.027   7.396   5.056  0.00  0.00    +0.000 A 
ATOM     16  C   LIG    1      -14.387   8.719   4.883  0.00  0.00    +0.000 A 
ATOM     17  C   LIG    1      -13.669   9.524   4.019  0.00  0.00    +0.000 A 
ATOM     18  C   LIG    1      -12.590   9.006   3.328  0.00  0.00    +0.000 A 
ENDBRANCH  12  13
ENDBRANCH  11  12
ENDBRANCH   7  11
ENDBRANCH   4   7
BRANCH   1  19
ATOM     19  O   LIG    1       -3.754   4.027   3.063  0.00  0.00    -0.360 OA
BRANCH  19  20
ATOM     20  C   LIG    1       -3.542   2.627   3.252  0.00  0.00    +0.360 C 
BRANCH  20  25
ATOM     21  C   LIG    1       -0.013   1.086   0.008  0.00  0.00    +0.250 C 
ATOM     22  C   LIG    1       -0.718   1.572   1.248  0.00  0.00    +0.180 A 
ATOM     23  N   LIG    1       -0.165   1.830   2.398  0.00  0.00    -0.290 NA
ATOM     24  N   LIG    1       -1.066   2.224   3.227  0.00  0.00    -0.260 NA
ATOM     25  C   LIG    1       -2.226   2.230   2.634  0.00  0.00    +0.150 A 
ATOM     26  O   LIG    1       -2.032   1.823   1.368  0.00  0.00    -0.220 OA
ENDBRANCH  20  25
ENDBRANCH  19  20
ENDBRANCH   1  19
TORSDOF 8
