REMARK  Name = ZINCrD0000075EoO.0
REMARK                            x       y       z     vdW  Elec       q    Type
REMARK                         _______ _______ _______ _____ _____    ______ ____
ROOT
ATOM      1  C   LIG    1       -2.528   3.634  -1.228  0.00  0.00    +0.330 C 
ENDROOT
BRANCH   1   2
ATOM      2  C   LIG    1       -1.219   2.963  -0.904  0.00  0.00    -0.140 A 
ATOM      3  C   LIG    1       -1.203   1.640  -0.501  0.00  0.00    +0.070 A 
ATOM      4  C   LIG    1       -0.004   1.024  -0.197  0.00  0.00    +0.000 A 
ATOM      5  C   LIG    1        1.185   1.730  -0.307  0.00  0.00    +0.130 A 
ATOM      6  C   LIG    1        1.167   3.056  -0.718  0.00  0.00    -0.060 A 
ATOM      7  C   LIG    1       -0.035   3.669  -1.015  0.00  0.00    +0.070 A 
BRANCH   5   8
ATOM      8  O   LIG    1        2.366   1.125  -0.015  0.00  0.00    -0.250 OA
BRANCH   8   9
ATOM      9  C   LIG    1        3.504   1.859  -0.127  0.00  0.00    +0.110 A 
ATOM     10  C   LIG    1        3.977   2.577   0.963  0.00  0.00    +0.000 A 
ATOM     11  C   LIG    1        5.135   3.323   0.848  0.00  0.00    +0.070 A 
ATOM     12  C   LIG    1        5.822   3.355  -0.350  0.00  0.00    -0.010 A 
ATOM     13  C   LIG    1        5.353   2.639  -1.440  0.00  0.00    +0.120 A 
ATOM     14  F   LIG    1        6.027   2.671  -2.610  0.00  0.00    -0.130 F 
ATOM     15  C   LIG    1        4.197   1.887  -1.328  0.00  0.00    -0.010 A 
ENDBRANCH   8   9
ENDBRANCH   5   8
ENDBRANCH   1   2
BRANCH   1  18
ATOM     16  O   LIG    1       -4.729   4.586  -2.461  0.00  0.00    -0.510 OA
ATOM     17  C   LIG    1       -3.965   3.965  -3.169  0.00  0.00    +0.500 C 
ATOM     18  N   LIG    1       -2.835   3.447  -2.649  0.00  0.00    -0.720 N 
ATOM     19  H   LIG    1       -2.224   2.950  -3.215  0.00  0.00    +0.400 HD
BRANCH  17  20
ATOM     20  C   LIG    1       -4.280   3.772  -4.630  0.00  0.00    +0.230 C 
ATOM     21  C   LIG    1       -3.184   4.422  -5.503  0.00  0.00    +0.070 C 
ATOM     22  C   LIG    1       -4.008   4.952  -6.699  0.00  0.00    +0.070 C 
ATOM     23  C   LIG    1       -5.400   5.137  -6.138  0.00  0.00    +0.520 C 
ATOM     24  O   LIG    1       -6.278   5.791  -6.660  0.00  0.00    -0.520 OA
ATOM     25  N   LIG    1       -5.523   4.470  -4.978  0.00  0.00    -0.570 N 
BRANCH  25  26
ATOM     26  C   LIG    1       -6.741   4.444  -4.164  0.00  0.00    +0.220 C 
ATOM     27  C   LIG    1       -8.007   5.056  -4.768  0.00  0.00    +0.030 C 
ATOM     28  C   LIG    1       -7.270   5.780  -3.640  0.00  0.00    +0.020 C 
ENDBRANCH  25  26
ENDBRANCH  17  20
ENDBRANCH   1  18
TORSDOF 6
