REMARK  Name = ZINCrH000004uQ2V.0
REMARK                            x       y       z     vdW  Elec       q    Type
REMARK                         _______ _______ _______ _____ _____    ______ ____
ROOT
ATOM      1  O   LIG    1       -0.625  -1.784  -0.421  0.00  0.00    -0.500 OA
ATOM      2  C   LIG    1       -1.478  -1.670   0.440  0.00  0.00    +0.570 C 
ATOM      3  N   LIG    1       -1.131  -1.290   1.686  0.00  0.00    -0.690 N 
ATOM      4  H   LIG    1       -1.800  -1.262   2.388  0.00  0.00    +0.410 HD
ENDROOT
BRANCH   3   5
ATOM      5  C   LIG    1        0.255  -0.917   1.978  0.00  0.00    +0.300 C 
ATOM      6  C   LIG    1        0.579  -1.281   3.426  0.00  0.00    +0.020 C 
ATOM      7  C   LIG    1        1.949  -0.690   3.779  0.00  0.00    +0.030 C 
ATOM      8  C   LIG    1        1.815   0.830   3.852  0.00  0.00    +0.080 C 
ATOM      9  C   LIG    1        1.152   1.362   2.608  0.00  0.00    -0.060 A 
ATOM     10  C   LIG    1        1.282   2.718   2.337  0.00  0.00    +0.000 A 
ATOM     11  C   LIG    1        0.690   3.269   1.219  0.00  0.00    +0.010 A 
ATOM     12  C   LIG    1       -0.040   2.466   0.362  0.00  0.00    -0.010 A 
ATOM     13  C   LIG    1       -0.168   1.119   0.629  0.00  0.00    +0.020 A 
ATOM     14  C   LIG    1        0.430   0.561   1.752  0.00  0.00    -0.100 A 
ENDBRANCH   3   5
BRANCH   2  15
ATOM     15  C   LIG    1       -2.882  -1.947   0.123  0.00  0.00    -0.150 A 
ATOM     16  C   LIG    1       -3.549  -3.102   0.421  0.00  0.00    -0.650 A 
ATOM     17  C   LIG    1       -4.861  -3.093   0.011  0.00  0.00    +0.090 A 
ATOM     18  C   LIG    1       -5.254  -1.975  -0.611  0.00  0.00    -0.080 A 
ATOM     19  S   LIG    1       -3.975  -0.851  -0.710  0.00  0.00    +0.290 S 
BRANCH  16  20
ATOM     20  S   LIG    1       -2.803  -4.464   1.253  0.00  0.00    +2.700 S 
ATOM     21  O   LIG    1       -3.828  -5.432   1.437  0.00  0.00    -0.950 OA
ATOM     22  O   LIG    1       -2.051  -3.916   2.327  0.00  0.00    -0.940 OA
BRANCH  20  23
ATOM     23  N   LIG    1       -1.707  -5.136   0.209  0.00  0.00    -0.990 NA
ATOM     24  C   LIG    1       -2.101  -6.231  -0.687  0.00  0.00    +0.290 C 
ATOM     25  C   LIG    1       -1.734  -5.840  -2.127  0.00  0.00    +0.020 C 
ATOM     26  C   LIG    1       -0.247  -5.482  -2.188  0.00  0.00    +0.000 C 
ATOM     27  C   LIG    1        0.028  -4.282  -1.279  0.00  0.00    +0.020 C 
ATOM     28  C   LIG    1       -0.320  -4.652   0.167  0.00  0.00    +0.280 C 
ENDBRANCH  20  23
ENDBRANCH  16  20
ENDBRANCH   2  15
TORSDOF 4
