REMARK  Name = ZINCvU0000000GdU.0
REMARK                            x       y       z     vdW  Elec       q    Type
REMARK                         _______ _______ _______ _____ _____    ______ ____
ROOT
ATOM      1  C   LIG    1        3.815   2.110  -2.162  0.00  0.00    +0.560 C 
ATOM      2  N   LIG    1        4.050   1.947  -0.845  0.00  0.00    -0.460 N 
ATOM      3  N   LIG    1        4.762   2.829  -0.034  0.00  0.00    -0.240 NA
ATOM      4  C   LIG    1        4.853   2.456   1.195  0.00  0.00    +0.150 C 
ATOM      5  C   LIG    1        4.137   1.133   1.379  0.00  0.00    +0.110 C 
ATOM      6  C   LIG    1        3.596   0.810  -0.028  0.00  0.00    +0.330 C 
ATOM      7  O   LIG    1        3.180   1.275  -2.772  0.00  0.00    -0.480 OA
ENDROOT
BRANCH   4   8
ATOM      8  C   LIG    1        5.550   3.200   2.261  0.00  0.00    -0.040 A 
ATOM      9  C   LIG    1        5.577   2.698   3.564  0.00  0.00    +0.070 A 
ATOM     10  C   LIG    1        6.235   3.397   4.555  0.00  0.00    +0.030 A 
ATOM     11  C   LIG    1        6.857   4.599   4.262  0.00  0.00    -0.020 A 
ATOM     12  C   LIG    1        6.828   5.105   2.974  0.00  0.00    +0.030 A 
ATOM     13 CL   LIG    1        7.677   5.476   5.517  0.00  0.00    -0.060 Cl
ATOM     14  C   LIG    1        6.179   4.414   1.973  0.00  0.00    +0.080 A 
ENDBRANCH   4   8
BRANCH   6  15
ATOM     15  C   LIG    1        2.091   0.734  -0.014  0.00  0.00    -0.030 A 
ATOM     16  C   LIG    1        1.361  -0.395  -0.013  0.00  0.00    -0.030 A 
ATOM     17  C   LIG    1        0.002  -0.004   0.002  0.00  0.00    -0.060 A 
ATOM     18  C   LIG    1       -0.016   1.341   0.009  0.00  0.00    +0.180 A 
ATOM     19  O   LIG    1        1.252   1.783  -0.000  0.00  0.00    -0.170 OA
ENDBRANCH   6  15
BRANCH   1  20
ATOM     20  C   LIG    1        4.340   3.328  -2.877  0.00  0.00    +0.300 C 
BRANCH  20  21
ATOM     21  O   LIG    1        3.958   3.271  -4.276  0.00  0.00    -0.330 OA
BRANCH  21  23
ATOM     22  O   LIG    1        4.998   5.205  -4.588  0.00  0.00    -0.480 OA
ATOM     23  C   LIG    1        4.352   4.292  -5.060  0.00  0.00    +0.520 C 
BRANCH  23  24
ATOM     24  C   LIG    1        3.999   4.301  -6.498  0.00  0.00    -0.050 A 
ATOM     25  C   LIG    1        3.260   3.257  -7.063  0.00  0.00    +0.070 A 
ATOM     26  C   LIG    1        2.947   3.308  -8.409  0.00  0.00    +0.190 A 
ATOM     27  N   LIG    1        3.344   4.319  -9.158  0.00  0.00    -0.450 NA
ATOM     28  C   LIG    1        4.046   5.321  -8.666  0.00  0.00    +0.190 A 
ATOM     29 CL   LIG    1        4.536   6.618  -9.711  0.00  0.00    +0.000 Cl
ATOM     30 CL   LIG    1        2.026   2.022  -9.123  0.00  0.00    +0.000 Cl
ATOM     31  C   LIG    1        4.398   5.352  -7.329  0.00  0.00    +0.080 A 
ENDBRANCH  23  24
ENDBRANCH  21  23
ENDBRANCH  20  21
ENDBRANCH   1  20
TORSDOF 6
