REMARK  Name = ZINCrD000000Atbc.1
REMARK                            x       y       z     vdW  Elec       q    Type
REMARK                         _______ _______ _______ _____ _____    ______ ____
ROOT
ATOM      1  C   LIG    1        1.164   7.855  -3.020  0.00  0.00    +0.110 C 
ENDROOT
BRANCH   1   3
ATOM      2  O   LIG    1        1.239   8.126  -0.677  0.00  0.00    -0.520 OA
ATOM      3  C   LIG    1        1.086   7.355  -1.601  0.00  0.00    +0.530 C 
ATOM      4  N   LIG    1        0.847   6.051  -1.358  0.00  0.00    -0.720 N 
ATOM      5  H   LIG    1        0.725   5.435  -2.097  0.00  0.00    +0.410 HD
BRANCH   4   6
ATOM      6  C   LIG    1        0.771   5.565   0.022  0.00  0.00    +0.340 C 
BRANCH   6   7
ATOM      7  C   LIG    1        0.496   4.083   0.018  0.00  0.00    -0.110 A 
ATOM      8  C   LIG    1       -0.808   3.624   0.028  0.00  0.00    +0.050 A 
ATOM      9  C   LIG    1       -1.065   2.265   0.019  0.00  0.00    +0.040 A 
ATOM     10  C   LIG    1       -0.016   1.361   0.009  0.00  0.00    +0.040 A 
ATOM     11  O   LIG    1        0.002  -0.004   0.002  0.00  0.00    -0.310 OA
ATOM     12  C   LIG    1        1.336  -0.373   0.399  0.00  0.00    +0.440 C 
ATOM     13  O   LIG    1        2.139   0.749  -0.014  0.00  0.00    -0.310 OA
ATOM     14  C   LIG    1        1.297   1.824  -0.001  0.00  0.00    +0.030 A 
ATOM     15  C   LIG    1        1.548   3.186   0.004  0.00  0.00    +0.060 A 
ENDBRANCH   6   7
ENDBRANCH   4   6
ENDBRANCH   1   3
BRANCH   1  16
ATOM     16  S   LIG    1        1.495   9.635  -3.015  0.00  0.00    +0.100 S 
BRANCH  16  17
ATOM     17  C   LIG    1        1.534   9.943  -4.750  0.00  0.00    +0.250 A 
ATOM     18  N   LIG    1        1.364   9.048  -5.697  0.00  0.00    -0.530 NA
ATOM     19  C   LIG    1        1.456   9.639  -6.898  0.00  0.00    +0.280 A 
ATOM     20  N   LIG    1        1.695  10.919  -6.724  0.00  0.00    -0.290 NA
ATOM     21  N   LIG    1        1.750  11.141  -5.338  0.00  0.00    -0.460 N 
ATOM     22  H   LIG    1        1.911  11.986  -4.891  0.00  0.00    +0.450 HD
BRANCH  19  23
ATOM     23  C   LIG    1        1.316   8.958  -8.208  0.00  0.00    -0.000 A 
ATOM     24  C   LIG    1        1.067   7.588  -8.261  0.00  0.00    +0.070 A 
ATOM     25  C   LIG    1        0.933   6.960  -9.482  0.00  0.00    +0.050 A 
ATOM     26  C   LIG    1        1.056   7.686 -10.654  0.00  0.00    -0.080 A 
ATOM     27  C   LIG    1        1.308   9.046 -10.607  0.00  0.00    +0.050 A 
ATOM     28 BR   LIG    1        0.879   6.817 -12.324  0.00  0.00    -0.040 Br
ATOM     29  C   LIG    1        1.439   9.685  -9.391  0.00  0.00    +0.060 A 
ENDBRANCH  19  23
ENDBRANCH  16  17
ENDBRANCH   1  16
TORSDOF 6
