REMARK  Name = ZINCrD000000Atbc.0
REMARK                            x       y       z     vdW  Elec       q    Type
REMARK                         _______ _______ _______ _____ _____    ______ ____
ROOT
ATOM      1  C   LIG    1        1.164   7.855  -3.020  0.00  0.00    +0.080 C 
ENDROOT
BRANCH   1   3
ATOM      2  O   LIG    1        1.239   8.126  -0.677  0.00  0.00    -0.520 OA
ATOM      3  C   LIG    1        1.086   7.355  -1.601  0.00  0.00    +0.540 C 
ATOM      4  N   LIG    1        0.847   6.051  -1.358  0.00  0.00    -0.720 N 
ATOM      5  H   LIG    1        0.725   5.435  -2.097  0.00  0.00    +0.410 HD
BRANCH   4   6
ATOM      6  C   LIG    1        0.771   5.565   0.022  0.00  0.00    +0.340 C 
BRANCH   6   7
ATOM      7  C   LIG    1        0.496   4.083   0.018  0.00  0.00    -0.100 A 
ATOM      8  C   LIG    1       -0.808   3.624   0.028  0.00  0.00    +0.050 A 
ATOM      9  C   LIG    1       -1.065   2.265   0.019  0.00  0.00    +0.040 A 
ATOM     10  C   LIG    1       -0.016   1.361   0.009  0.00  0.00    +0.040 A 
ATOM     11  O   LIG    1        0.002  -0.004   0.002  0.00  0.00    -0.310 OA
ATOM     12  C   LIG    1        1.336  -0.373   0.399  0.00  0.00    +0.430 C 
ATOM     13  O   LIG    1        2.139   0.749  -0.014  0.00  0.00    -0.310 OA
ATOM     14  C   LIG    1        1.297   1.824  -0.001  0.00  0.00    +0.030 A 
ATOM     15  C   LIG    1        1.548   3.186   0.004  0.00  0.00    +0.060 A 
ENDBRANCH   6   7
ENDBRANCH   4   6
ENDBRANCH   1   3
BRANCH   1  16
ATOM     16  S   LIG    1        1.495   9.639  -3.015  0.00  0.00    +0.120 S 
BRANCH  16  17
ATOM     17  C   LIG    1        1.551  10.036  -4.731  0.00  0.00    +0.200 A 
ATOM     18  N   LIG    1        1.389   9.184  -5.717  0.00  0.00    -0.310 NA
ATOM     19  N   LIG    1        1.506   9.912  -6.911  0.00  0.00    -0.470 N 
ATOM     20  H   LIG    1        1.432   9.564  -7.814  0.00  0.00    +0.440 HD
ATOM     21  C   LIG    1        1.747  11.194  -6.555  0.00  0.00    +0.340 A 
ATOM     22  N   LIG    1        1.772  11.251  -5.238  0.00  0.00    -0.500 NA
BRANCH  21  23
ATOM     23  C   LIG    1        1.949  12.331  -7.479  0.00  0.00    -0.020 A 
ATOM     24  C   LIG    1        1.902  12.129  -8.859  0.00  0.00    +0.040 A 
ATOM     25  C   LIG    1        2.085  13.195  -9.716  0.00  0.00    +0.050 A 
ATOM     26  C   LIG    1        2.326  14.460  -9.209  0.00  0.00    -0.070 A 
ATOM     27  C   LIG    1        2.379  14.666  -7.841  0.00  0.00    +0.060 A 
ATOM     28 BR   LIG    1        2.584  15.914 -10.390  0.00  0.00    -0.040 Br
ATOM     29  C   LIG    1        2.192  13.609  -6.974  0.00  0.00    +0.090 A 
ENDBRANCH  21  23
ENDBRANCH  16  17
ENDBRANCH   1  16
TORSDOF 6
