REMARK  Name = ZINCrg00000J1xYb.0
REMARK                            x       y       z     vdW  Elec       q    Type
REMARK                         _______ _______ _______ _____ _____    ______ ____
ROOT
ATOM      1  N   LIG    1        5.934  -1.554   1.035  0.00  0.00    -0.560 N 
ATOM      2  C   LIG    1        4.875  -2.358   0.890  0.00  0.00    +0.710 C 
ATOM      3  N   LIG    1        3.706  -1.686   0.943  0.00  0.00    -0.710 N 
ATOM      4  H   LIG    1        2.815  -2.062   0.864  0.00  0.00    +0.450 HD
ATOM      5  C   LIG    1        4.049  -0.268   1.145  0.00  0.00    +0.230 C 
ATOM      6  O   LIG    1        4.955  -3.560   0.731  0.00  0.00    -0.540 OA
ATOM      7  C   LIG    1        5.564  -0.268   1.196  0.00  0.00    +0.530 C 
ATOM      8  O   LIG    1        6.292   0.690   1.351  0.00  0.00    -0.460 OA
ENDROOT
BRANCH   1   9
ATOM      9  C   LIG    1        7.325  -2.014   1.020  0.00  0.00    +0.360 C 
BRANCH   9  12
ATOM     10  N   LIG    1        9.004  -2.812   2.651  0.00  0.00    -0.720 N 
ATOM     11  H   LIG    1        9.627  -2.911   1.914  0.00  0.00    +0.410 HD
ATOM     12  C   LIG    1        7.755  -2.362   2.422  0.00  0.00    +0.500 C 
ATOM     13  O   LIG    1        6.976  -2.238   3.343  0.00  0.00    -0.520 OA
BRANCH  10  14
ATOM     14  C   LIG    1        9.422  -3.150   4.014  0.00  0.00    +0.370 C 
BRANCH  14  17
ATOM     15  C   LIG    1       11.818  -1.349   4.326  0.00  0.00    +0.110 C 
ATOM     16  C   LIG    1       11.923  -2.840   4.134  0.00  0.00    -0.070 A 
ATOM     17  C   LIG    1       10.852  -3.623   3.998  0.00  0.00    -0.220 A 
ATOM     18  S   LIG    1       11.366  -5.293   3.789  0.00  0.00    +0.120 S 
ATOM     19  C   LIG    1       13.055  -4.820   3.909  0.00  0.00    -0.030 A 
ATOM     20  C   LIG    1       13.139  -3.501   4.090  0.00  0.00    +0.000 A 
ENDBRANCH  14  17
ENDBRANCH  10  14
ENDBRANCH   9  12
ENDBRANCH   1   9
BRANCH   5  21
ATOM     21  C   LIG    1        3.550   0.578  -0.028  0.00  0.00    +0.180 C 
BRANCH  21  22
ATOM     22  C   LIG    1        2.044   0.619  -0.014  0.00  0.00    -0.030 A 
ATOM     23  C   LIG    1        1.264   1.724  -0.001  0.00  0.00    +0.160 A 
ATOM     24  N   LIG    1       -0.015   1.283   0.009  0.00  0.00    -0.280 N 
ATOM     25  N   LIG    1        0.002  -0.004   0.002  0.00  0.00    -0.080 NA
ATOM     26  N   LIG    1        1.215  -0.431  -0.012  0.00  0.00    -0.270 NA
BRANCH  24  27
ATOM     27  C   LIG    1       -1.214   2.125   0.020  0.00  0.00    +0.260 C 
ATOM     28  C   LIG    1       -0.956   3.389  -0.803  0.00  0.00    +0.060 C 
ATOM     29  C   LIG    1       -1.552   2.514   1.460  0.00  0.00    +0.060 C 
ENDBRANCH  24  27
ENDBRANCH  21  22
ENDBRANCH   5  21
TORSDOF 7
