REMARK  Name = ZINCkj00000GePvl.1
REMARK                            x       y       z     vdW  Elec       q    Type
REMARK                         _______ _______ _______ _____ _____    ______ ____
ROOT
ATOM      1  C   LIG    1       -1.498   3.899   5.066  0.00  0.00    +0.170 C 
ATOM      2  C   LIG    1       -1.090   4.288   6.489  0.00  0.00    +0.060 C 
ATOM      3  C   LIG    1       -1.559   5.717   6.776  0.00  0.00    +0.040 C 
ATOM      4  C   LIG    1       -3.074   5.798   6.564  0.00  0.00    +0.070 C 
ATOM      5  C   LIG    1       -3.409   5.353   5.139  0.00  0.00    +0.250 C 
ATOM      6  N   LIG    1       -2.958   3.971   4.936  0.00  0.00    -0.370 N 
ATOM      7  H   LIG    1       -3.386   3.373   5.627  0.00  0.00    +0.420 HD
ENDROOT
BRANCH   1   8
ATOM      8  C   LIG    1       -1.030   2.472   4.774  0.00  0.00    +0.340 C 
BRANCH   8  12
ATOM      9  C   LIG    1        3.612   1.132   6.108  0.00  0.00    +0.130 C 
ATOM     10  C   LIG    1        2.455   1.830   5.441  0.00  0.00    -0.220 A 
ATOM     11  C   LIG    1        1.143   1.573   5.649  0.00  0.00    +0.230 A 
ATOM     12  N   LIG    1        0.431   2.409   4.864  0.00  0.00    -0.390 N 
ATOM     13  N   LIG    1        1.335   3.205   4.149  0.00  0.00    -0.300 NA
ATOM     14  C   LIG    1        2.548   2.861   4.500  0.00  0.00    +0.260 A 
ENDBRANCH   8  12
ENDBRANCH   1   8
BRANCH   6  15
ATOM     15  C   LIG    1       -3.351   3.524   3.593  0.00  0.00    +0.260 C 
BRANCH  15  16
ATOM     16  C   LIG    1       -4.877   3.476   3.497  0.00  0.00    +0.350 C 
BRANCH  16  17
ATOM     17  N   LIG    1       -5.269   3.030   2.158  0.00  0.00    -0.400 N 
ATOM     18  C   LIG    1       -6.071   1.994   1.856  0.00  0.00    +0.500 A 
ATOM     19  N   LIG    1       -6.173   1.926   0.553  0.00  0.00    -0.530 NA
ATOM     20  C   LIG    1       -5.455   2.898  -0.008  0.00  0.00    +0.460 A 
ATOM     21  N   LIG    1       -4.887   3.604   0.934  0.00  0.00    -0.320 NA
ENDBRANCH  16  17
ENDBRANCH  15  16
ENDBRANCH   6  15
TORSDOF 5
