REMARK  Name = ZINCkj00000GePvl.0
REMARK                            x       y       z     vdW  Elec       q    Type
REMARK                         _______ _______ _______ _____ _____    ______ ____
ROOT
ATOM      1  C   LIG    1       -0.719   1.490  -1.184  0.00  0.00    +0.160 C 
ATOM      2  C   LIG    1       -0.670   3.019  -1.223  0.00  0.00    +0.070 C 
ATOM      3  C   LIG    1       -1.345   3.576   0.033  0.00  0.00    +0.060 C 
ATOM      4  C   LIG    1       -0.648   3.005   1.271  0.00  0.00    +0.060 C 
ATOM      5  C   LIG    1       -0.696   1.477   1.217  0.00  0.00    +0.240 C 
ATOM      6  N   LIG    1       -0.012   1.005   0.008  0.00  0.00    -0.380 N 
ATOM      7  H   LIG    1        0.002  -0.004   0.002  0.00  0.00    +0.430 HD
ENDROOT
BRANCH   1   8
ATOM      8  C   LIG    1       -0.047   0.928  -2.439  0.00  0.00    +0.360 C 
BRANCH   8  12
ATOM      9  C   LIG    1       -1.183  -3.723  -3.922  0.00  0.00    +0.120 C 
ATOM     10  C   LIG    1       -0.692  -2.557  -3.103  0.00  0.00    -0.220 A 
ATOM     11  C   LIG    1       -0.735  -1.254  -3.467  0.00  0.00    +0.260 A 
ATOM     12  N   LIG    1       -0.199  -0.529  -2.463  0.00  0.00    -0.400 N 
ATOM     13  N   LIG    1        0.191  -1.416  -1.451  0.00  0.00    -0.360 NA
ATOM     14  C   LIG    1       -0.110  -2.630  -1.834  0.00  0.00    +0.290 A 
ENDBRANCH   8  12
ENDBRANCH   1   8
BRANCH   6  15
ATOM     15  C   LIG    1        1.367   1.512  -0.003  0.00  0.00    +0.250 C 
BRANCH  15  16
ATOM     16  C   LIG    1        2.143   0.905   1.168  0.00  0.00    +0.350 C 
BRANCH  16  17
ATOM     17  N   LIG    1        3.518   1.411   1.158  0.00  0.00    -0.400 N 
ATOM     18  C   LIG    1        4.156   2.029   2.166  0.00  0.00    +0.500 A 
ATOM     19  N   LIG    1        5.365   2.323   1.761  0.00  0.00    -0.530 NA
ATOM     20  C   LIG    1        5.534   1.910   0.506  0.00  0.00    +0.450 A 
ATOM     21  N   LIG    1        4.432   1.340   0.094  0.00  0.00    -0.320 NA
ENDBRANCH  16  17
ENDBRANCH  15  16
ENDBRANCH   6  15
TORSDOF 5
