REMARK  Name = ZINCqH00000015wJ.0
REMARK                            x       y       z     vdW  Elec       q    Type
REMARK                         _______ _______ _______ _____ _____    ______ ____
ROOT
ATOM      1  C   LIG    1       -0.724   2.012   1.250  0.00  0.00    +0.520 C 
ATOM      2  N   LIG    1       -0.863   3.334   1.472  0.00  0.00    -0.560 N 
ATOM      3  C   LIG    1       -0.238   4.312   0.572  0.00  0.00    +0.280 C 
ATOM      4  C   LIG    1        0.423   5.391   1.439  0.00  0.00    +0.030 C 
ATOM      5  C   LIG    1       -0.660   6.116   2.238  0.00  0.00    +0.090 C 
ATOM      6  C   LIG    1       -1.532   5.125   2.963  0.00  0.00    -0.060 A 
ATOM      7  C   LIG    1       -2.274   5.555   4.050  0.00  0.00    +0.020 A 
ATOM      8  C   LIG    1       -3.100   4.671   4.724  0.00  0.00    +0.100 A 
ATOM      9  C   LIG    1       -3.176   3.349   4.325  0.00  0.00    -0.640 A 
ATOM     10  C   LIG    1       -2.434   2.912   3.246  0.00  0.00    +0.140 A 
ATOM     11  C   LIG    1       -1.611   3.799   2.562  0.00  0.00    +0.130 A 
ATOM     12  O   LIG    1       -1.149   1.213   2.058  0.00  0.00    -0.500 OA
ENDROOT
BRANCH   9  13
ATOM     13  S   LIG    1       -4.219   2.225   5.193  0.00  0.00    +2.500 S 
ATOM     14  O   LIG    1       -4.539   1.230   4.230  0.00  0.00    -0.930 OA
ATOM     15  O   LIG    1       -5.229   3.049   5.758  0.00  0.00    -0.940 OA
ATOM     16  C   LIG    1       -3.159   1.535   6.493  0.00  0.00    -0.260 C 
ENDBRANCH   9  13
BRANCH   1  17
ATOM     17  C   LIG    1       -0.041   1.526  -0.002  0.00  0.00    +0.070 C 
BRANCH  17  19
ATOM     18  C   LIG    1        0.750  -0.506   1.219  0.00  0.00    +0.050 C 
ATOM     19  C   LIG    1       -0.015  -0.004  -0.007  0.00  0.00    -0.010 C 
ATOM     20  C   LIG    1       -1.448  -0.538   0.031  0.00  0.00    +0.050 C 
BRANCH  19  21
ATOM     21  C   LIG    1        0.668  -0.491  -1.259  0.00  0.00    -0.070 A 
ATOM     22  C   LIG    1        1.148   0.419  -2.183  0.00  0.00    -0.010 A 
ATOM     23  C   LIG    1        1.779  -0.027  -3.329  0.00  0.00    +0.000 A 
ATOM     24  C   LIG    1        1.922  -1.383  -3.557  0.00  0.00    -0.010 A 
ATOM     25  C   LIG    1        1.438  -2.293  -2.635  0.00  0.00    +0.000 A 
ATOM     26  C   LIG    1        0.811  -1.847  -1.487  0.00  0.00    +0.010 A 
ENDBRANCH  19  21
ENDBRANCH  17  19
ENDBRANCH   1  17
TORSDOF 4
