REMARK  Name = ZINCrD00000eZ86r.0
REMARK                            x       y       z     vdW  Elec       q    Type
REMARK                         _______ _______ _______ _____ _____    ______ ____
ROOT
ATOM      1  C   LIG    1       -2.517   0.616  -1.165  0.00  0.00    +0.600 C 
ATOM      2  N   LIG    1       -2.429  -0.423  -0.311  0.00  0.00    -0.670 N 
ATOM      3  H   LIG    1       -1.583  -0.628   0.118  0.00  0.00    +0.410 HD
ATOM      4  O   LIG    1       -3.551   0.818  -1.774  0.00  0.00    -0.510 OA
ENDROOT
BRANCH   1  11
ATOM      5  C   LIG    1        1.673   4.848  -2.668  0.00  0.00    +0.170 C 
ATOM      6  C   LIG    1        0.295   4.254  -2.801  0.00  0.00    +0.200 A 
ATOM      7  C   LIG    1       -0.617   4.812  -3.638  0.00  0.00    -0.050 A 
ATOM      8  C   LIG    1       -1.890   4.242  -3.744  0.00  0.00    +0.220 A 
ATOM      9  N   LIG    1       -2.196   3.175  -3.038  0.00  0.00    -0.460 NA
ATOM     10  C   LIG    1       -1.306   2.621  -2.214  0.00  0.00    +0.340 A 
ATOM     11  C   LIG    1       -1.366   1.503  -1.361  0.00  0.00    -0.300 A 
ATOM     12  C   LIG    1       -0.112   1.399  -0.733  0.00  0.00    +0.340 A 
ATOM     13  N   LIG    1        0.653   2.368  -1.161  0.00  0.00    -0.310 NA
ATOM     14  C   LIG    1       -2.913   4.850  -4.669  0.00  0.00    +0.170 C 
ATOM     15  N   LIG    1       -0.052   3.149  -2.083  0.00  0.00    -0.310 N 
ENDBRANCH   1  11
BRANCH   2  16
ATOM     16  C   LIG    1       -3.557  -1.204  -0.042  0.00  0.00    +0.170 A 
ATOM     17  C   LIG    1       -3.417  -2.561   0.221  0.00  0.00    -0.030 A 
ATOM     18  C   LIG    1       -4.531  -3.334   0.486  0.00  0.00    +0.050 A 
ATOM     19  C   LIG    1       -5.788  -2.760   0.491  0.00  0.00    -0.010 A 
ATOM     20  C   LIG    1       -5.935  -1.404   0.229  0.00  0.00    +0.170 A 
ATOM     21  C   LIG    1       -4.818  -0.624  -0.032  0.00  0.00    -0.010 A 
BRANCH  20  22
ATOM     22  N   LIG    1       -7.208  -0.823   0.235  0.00  0.00    -0.670 N 
ATOM     23  H   LIG    1       -7.322   0.093   0.531  0.00  0.00    +0.410 HD
ATOM     24  C   LIG    1       -8.277  -1.538  -0.170  0.00  0.00    +0.520 C 
ATOM     25  O   LIG    1       -8.123  -2.652  -0.627  0.00  0.00    -0.520 OA
BRANCH  24  26
ATOM     26  C   LIG    1       -9.661  -0.955  -0.055  0.00  0.00    -0.020 C 
ATOM     27  C   LIG    1      -10.263  -1.070   1.355  0.00  0.00    +0.050 C 
ATOM     28  C   LIG    1      -11.600  -1.406   0.670  0.00  0.00    +0.010 C 
ATOM     29  C   LIG    1      -10.772  -1.909  -0.524  0.00  0.00    +0.050 C 
ENDBRANCH  24  26
ENDBRANCH  20  22
ENDBRANCH   2  16
TORSDOF 4
