REMARK  Name = ZINCvU0000000Hos.0
REMARK                            x       y       z     vdW  Elec       q    Type
REMARK                         _______ _______ _______ _____ _____    ______ ____
ROOT
ATOM      1  S   LIG    1       -5.096   6.144  -0.326  0.00  0.00    +0.090 S 
ENDROOT
BRANCH   1   2
ATOM      2  C   LIG    1       -3.450   5.559  -0.097  0.00  0.00    +0.150 A 
ATOM      3  N   LIG    1       -2.405   6.282   0.236  0.00  0.00    -0.280 NA
ATOM      4  N   LIG    1       -1.361   5.539   0.323  0.00  0.00    -0.250 NA
ATOM      5  C   LIG    1       -1.673   4.293   0.040  0.00  0.00    +0.260 A 
ATOM      6  N   LIG    1       -3.023   4.268  -0.234  0.00  0.00    -0.450 N 
BRANCH   6   7
ATOM      7  C   LIG    1       -3.831   3.101  -0.595  0.00  0.00    +0.250 C 
ATOM      8  C   LIG    1       -4.457   3.321  -1.974  0.00  0.00    +0.010 C 
ATOM      9  C   LIG    1       -5.301   2.102  -2.351  0.00  0.00    +0.040 C 
ATOM     10  C   LIG    1       -6.409   1.908  -1.314  0.00  0.00    +0.010 C 
ATOM     11  C   LIG    1       -5.784   1.688   0.065  0.00  0.00    +0.040 C 
ATOM     12  C   LIG    1       -4.939   2.907   0.442  0.00  0.00    +0.020 C 
ENDBRANCH   6   7
BRANCH   5  13
ATOM     13  C   LIG    1       -0.755   3.143   0.026  0.00  0.00    +0.040 A 
ATOM     14  C   LIG    1        0.606   3.205   0.013  0.00  0.00    +0.030 A 
ATOM     15  C   LIG    1        1.072   1.876   0.002  0.00  0.00    -0.050 A 
ATOM     16  C   LIG    1       -0.013   1.076   0.008  0.00  0.00    +0.200 A 
ATOM     17  O   LIG    1       -1.115   1.844   0.017  0.00  0.00    -0.180 OA
ENDBRANCH   5  13
ENDBRANCH   1   2
BRANCH   1  19
ATOM     18  C   LIG    1       -3.942   8.515  -1.040  0.00  0.00    +0.090 C 
ATOM     19  C   LIG    1       -4.856   7.903   0.024  0.00  0.00    +0.010 C 
BRANCH  19  20
ATOM     20  C   LIG    1       -6.189   8.606   0.006  0.00  0.00    +0.540 C 
ATOM     21  N   LIG    1       -6.330   9.798   0.618  0.00  0.00    -0.720 N 
ATOM     22  H   LIG    1       -5.574  10.204   1.070  0.00  0.00    +0.400 HD
ATOM     23  O   LIG    1       -7.134   8.098  -0.559  0.00  0.00    -0.520 OA
BRANCH  21  24
ATOM     24  C   LIG    1       -7.626  10.481   0.601  0.00  0.00    +0.290 C 
ATOM     25  C   LIG    1       -7.758  11.293  -0.690  0.00  0.00    +0.040 C 
BRANCH  24  26
ATOM     26  C   LIG    1       -7.723  11.405   1.788  0.00  0.00    -0.110 A 
ATOM     27  C   LIG    1       -6.621  12.139   2.184  0.00  0.00    +0.040 A 
ATOM     28  C   LIG    1       -6.710  12.989   3.269  0.00  0.00    -0.010 A 
ATOM     29  C   LIG    1       -7.902  13.099   3.966  0.00  0.00    +0.100 A 
ATOM     30  C   LIG    1       -9.004  12.360   3.571  0.00  0.00    -0.010 A 
ATOM     31  F   LIG    1       -7.989  13.927   5.030  0.00  0.00    -0.140 F 
ATOM     32  C   LIG    1       -8.914  11.514   2.482  0.00  0.00    +0.060 A 
ENDBRANCH  24  26
ENDBRANCH  21  24
ENDBRANCH  19  20
ENDBRANCH   1  19
TORSDOF 7
