REMARK  Name = ZINCpe000000X0le.0
REMARK                            x       y       z     vdW  Elec       q    Type
REMARK                         _______ _______ _______ _____ _____    ______ ____
ROOT
ATOM      1  C   LIG    1       -2.626   3.497   2.752  0.00  0.00    -0.020 C 
ATOM      2  C   LIG    1       -1.139   3.863   2.728  0.00  0.00    +0.070 C 
ATOM      3  C   LIG    1       -0.535   3.436   1.388  0.00  0.00    +0.190 C 
ATOM      4  N   LIG    1       -0.704   1.988   1.213  0.00  0.00    -0.530 NA
ATOM      5  C   LIG    1       -2.125   1.618   1.186  0.00  0.00    +0.160 C 
ATOM      6  C   LIG    1       -2.776   1.991   2.519  0.00  0.00    +0.050 C 
ENDROOT
BRANCH   1  14
ATOM      7  C   LIG    1       -7.074   4.675   6.904  0.00  0.00    +0.070 C 
ATOM      8  C   LIG    1       -6.379   4.066   5.685  0.00  0.00    +0.140 C 
ATOM      9  C   LIG    1       -5.040   4.775   5.450  0.00  0.00    +0.260 C 
ATOM     10  N   LIG    1       -4.483   4.305   4.173  0.00  0.00    -0.620 N 
ATOM     11  C   LIG    1       -5.351   4.338   2.985  0.00  0.00    +0.260 C 
ATOM     12  C   LIG    1       -6.676   3.645   3.340  0.00  0.00    +0.190 C 
ATOM     13  C   LIG    1       -6.431   2.153   3.571  0.00  0.00    +0.010 C 
ATOM     14  C   LIG    1       -3.213   3.861   4.091  0.00  0.00    +0.520 C 
ATOM     15  O   LIG    1       -2.542   3.754   5.096  0.00  0.00    -0.530 OA
ATOM     16  O   LIG    1       -7.207   4.231   4.531  0.00  0.00    -0.370 OA
ENDBRANCH   1  14
BRANCH   4  17
ATOM     17  C   LIG    1       -0.015   1.520   0.003  0.00  0.00    +0.330 C 
BRANCH  17  18
ATOM     18  C   LIG    1        0.001   0.013  -0.015  0.00  0.00    +0.190 A 
ATOM     19  N   LIG    1        0.927  -0.766   0.491  0.00  0.00    -0.280 NA
ATOM     20  N   LIG    1        0.579  -1.988   0.276  0.00  0.00    -0.070 NA
ATOM     21  N   LIG    1       -0.540  -2.009  -0.359  0.00  0.00    -0.090 NA
ATOM     22  N   LIG    1       -0.929  -0.794  -0.557  0.00  0.00    -0.280 N 
BRANCH  22  23
ATOM     23  C   LIG    1       -2.152  -0.373  -1.245  0.00  0.00    +0.200 C 
ATOM     24  C   LIG    1       -3.168  -1.458  -1.607  0.00  0.00    +0.090 C 
ATOM     25  C   LIG    1       -2.326  -0.801  -2.703  0.00  0.00    +0.070 C 
ENDBRANCH  22  23
ENDBRANCH  17  18
ENDBRANCH   4  17
TORSDOF 4
