REMARK  Name = ZINCc70000003Zd3.0
REMARK                            x       y       z     vdW  Elec       q    Type
REMARK                         _______ _______ _______ _____ _____    ______ ____
ROOT
ATOM      1  C   LIG    1        0.293  -1.334  -2.033  0.00  0.00    +0.550 C 
ATOM      2  N   LIG    1        0.801  -0.457  -1.145  0.00  0.00    -0.610 N 
ATOM      3  C   LIG    1        2.167   0.061  -1.302  0.00  0.00    +0.290 C 
ATOM      4  C   LIG    1        2.120   1.592  -1.282  0.00  0.00    +0.020 C 
ATOM      5  C   LIG    1        1.412   2.061  -0.009  0.00  0.00    +0.190 C 
ATOM      6  C   LIG    1       -0.024   1.532   0.003  0.00  0.00    +0.140 C 
ATOM      7  F   LIG    1        1.395   3.459   0.027  0.00  0.00    -0.200 F 
ATOM      8  C   LIG    1       -0.001   0.001  -0.002  0.00  0.00    +0.260 C 
ATOM      9  O   LIG    1       -0.803  -1.826  -1.842  0.00  0.00    -0.540 OA
ENDROOT
BRANCH   1  11
ATOM     10  C   LIG    1        0.521  -2.481  -4.159  0.00  0.00    +0.160 C 
ATOM     11  C   LIG    1        1.064  -1.697  -3.232  0.00  0.00    -0.100 C 
ENDBRANCH   1  11
BRANCH   6  12
ATOM     12  O   LIG    1       -0.693   1.996   1.177  0.00  0.00    -0.550 OA
ATOM     13  H   LIG    1       -1.609   1.697   1.252  0.00  0.00    +0.390 HD
ENDBRANCH   6  12
TORSDOF 2
