REMARK  Name = ZINCbw00000004DL.0
REMARK                            x       y       z     vdW  Elec       q    Type
REMARK                         _______ _______ _______ _____ _____    ______ ____
ROOT
ATOM      1  C   LIG    1        0.002  -0.004   0.002  0.00  0.00    +0.120 A 
ATOM      2  C   LIG    1        1.222  -0.542  -0.013  0.00  0.00    -0.130 A 
ATOM      3  S   LIG    1        2.398   0.769  -0.017  0.00  0.00    +0.090 S 
ATOM      4  C   LIG    1        1.133   1.919   0.002  0.00  0.00    +0.320 A 
ATOM      5  N   LIG    1       -0.016   1.317   0.009  0.00  0.00    -0.550 NA
ENDROOT
BRANCH   4   6
ATOM      6  N   LIG    1        1.309   3.294   0.006  0.00  0.00    -0.700 N 
ATOM      7  H   LIG    1        0.538   3.881   0.017  0.00  0.00    +0.410 HD
ATOM      8  C   LIG    1        2.661   3.859  -0.003  0.00  0.00    +0.300 C 
ENDBRANCH   4   6
BRANCH   1   9
ATOM      9  C   LIG    1       -1.255  -0.836   0.010  0.00  0.00    +0.070 C 
ATOM     10  C   LIG    1       -1.020  -2.107   0.829  0.00  0.00    +0.040 C 
BRANCH   9  12
ATOM     11  C   LIG    1       -2.966  -1.952  -1.428  0.00  0.00    +0.030 C 
ATOM     12  C   LIG    1       -1.625  -1.215  -1.425  0.00  0.00    +0.010 C 
ENDBRANCH   9  12
ENDBRANCH   1   9
TORSDOF 3
