REMARK  Name = ZINCvU0000000Ji4.0
REMARK                            x       y       z     vdW  Elec       q    Type
REMARK                         _______ _______ _______ _____ _____    ______ ____
ROOT
ATOM      1  O   LIG    1       -8.535   3.326  -2.467  0.00  0.00    -0.490 OA
ATOM      2  C   LIG    1       -7.620   2.804  -1.857  0.00  0.00    +0.560 A 
ATOM      3  C   LIG    1       -7.867   2.021  -0.638  0.00  0.00    -0.200 A 
ATOM      4  C   LIG    1       -9.151   1.841  -0.128  0.00  0.00    +0.100 A 
ATOM      5  C   LIG    1       -9.329   1.097   1.018  0.00  0.00    +0.000 A 
ATOM      6  C   LIG    1       -8.241   0.528   1.667  0.00  0.00    +0.070 A 
ATOM      7  C   LIG    1       -6.964   0.693   1.181  0.00  0.00    +0.030 A 
ATOM      8  C   LIG    1       -6.757   1.442   0.019  0.00  0.00    +0.160 A 
ATOM      9  N   LIG    1       -5.518   1.624  -0.494  0.00  0.00    -0.530 NA
ATOM     10  C   LIG    1       -5.322   2.331  -1.580  0.00  0.00    +0.370 A 
ATOM     11  N   LIG    1       -6.339   2.923  -2.276  0.00  0.00    -0.480 N 
ENDROOT
BRANCH  11  12
ATOM     12  C   LIG    1       -6.052   3.660  -3.433  0.00  0.00    +0.040 A 
ATOM     13  C   LIG    1       -6.035   3.039  -4.679  0.00  0.00    +0.100 A 
ATOM     14  C   LIG    1       -5.746   3.810  -5.794  0.00  0.00    -0.010 A 
ATOM     15  C   LIG    1       -5.488   5.158  -5.635  0.00  0.00    +0.290 A 
ATOM     16  N   LIG    1       -5.513   5.716  -4.440  0.00  0.00    -0.470 NA
ATOM     17  C   LIG    1       -5.787   5.021  -3.354  0.00  0.00    +0.300 A 
ENDBRANCH  11  12
BRANCH  10  18
ATOM     18  S   LIG    1       -3.674   2.522  -2.173  0.00  0.00    +0.030 S 
BRANCH  18  19
ATOM     19  C   LIG    1       -2.777   1.573  -0.920  0.00  0.00    +0.070 C 
BRANCH  19  20
ATOM     20  C   LIG    1       -1.280   1.597  -1.237  0.00  0.00    +0.220 C 
ATOM     21  C   LIG    1       -0.521   0.793  -0.177  0.00  0.00    +0.020 C 
ATOM     22  C   LIG    1       -0.982  -0.667  -0.227  0.00  0.00    +0.010 C 
ATOM     23  C   LIG    1       -0.761  -1.213  -1.641  0.00  0.00    +0.010 C 
ATOM     24  C   LIG    1       -1.511  -0.331  -2.644  0.00  0.00    +0.200 C 
ATOM     25  O   LIG    1       -1.056   1.018  -2.524  0.00  0.00    -0.360 OA
BRANCH  24  26
ATOM     26  C   LIG    1       -1.250  -0.828  -4.042  0.00  0.00    -0.080 A 
ATOM     27  C   LIG    1       -0.074  -0.491  -4.687  0.00  0.00    +0.040 A 
ATOM     28  C   LIG    1        0.167  -0.951  -5.968  0.00  0.00    +0.000 A 
ATOM     29  C   LIG    1       -0.771  -1.738  -6.609  0.00  0.00    +0.000 A 
ATOM     30  C   LIG    1       -1.950  -2.069  -5.966  0.00  0.00    +0.000 A 
ATOM     31  C   LIG    1       -2.189  -1.614  -4.683  0.00  0.00    +0.010 A 
ENDBRANCH  24  26
ENDBRANCH  19  20
ENDBRANCH  18  19
ENDBRANCH  10  18
TORSDOF 5
