REMARK  Name = ZINCrH000004vFha.0
REMARK                            x       y       z     vdW  Elec       q    Type
REMARK                         _______ _______ _______ _____ _____    ______ ____
ROOT
ATOM      1  O   LIG    1        5.436  -5.598  -1.548  0.00  0.00    -0.540 OA
ATOM      2  C   LIG    1        4.380  -5.039  -1.776  0.00  0.00    +0.600 C 
ATOM      3  N   LIG    1        4.265  -3.711  -1.582  0.00  0.00    -0.590 N 
ATOM      4  C   LIG    1        5.351  -2.949  -0.950  0.00  0.00    +0.280 C 
ATOM      5  C   LIG    1        5.728  -1.778  -1.863  0.00  0.00    +0.030 C 
ATOM      6  C   LIG    1        4.476  -0.952  -2.169  0.00  0.00    -0.050 C 
ATOM      7  C   LIG    1        3.453  -1.824  -2.900  0.00  0.00    +0.030 C 
ATOM      8  C   LIG    1        3.051  -2.996  -1.999  0.00  0.00    +0.290 C 
ENDROOT
BRANCH   2   9
ATOM      9  C   LIG    1        3.226  -5.816  -2.264  0.00  0.00    -0.070 A 
ATOM     10  C   LIG    1        3.231  -7.125  -2.634  0.00  0.00    +0.250 A 
ATOM     11  O   LIG    1        1.979  -7.431  -3.011  0.00  0.00    -0.190 OA
ATOM     12  C   LIG    1        1.221  -6.333  -2.875  0.00  0.00    +0.210 A 
ATOM     13  N   LIG    1        1.954  -5.360  -2.423  0.00  0.00    -0.460 NA
BRANCH  12  14
ATOM     14  C   LIG    1       -0.250  -6.244  -3.191  0.00  0.00    +0.120 C 
ATOM     15  C   LIG    1       -1.031  -7.293  -2.373  0.00  0.00    +0.030 C 
ATOM     16  C   LIG    1       -2.139  -7.780  -3.339  0.00  0.00    +0.020 C 
ATOM     17  C   LIG    1       -1.410  -7.813  -4.706  0.00  0.00    +0.010 C 
ATOM     18  C   LIG    1       -0.491  -6.574  -4.674  0.00  0.00    +0.030 C 
ENDBRANCH  12  14
ENDBRANCH   2   9
BRANCH   6  19
ATOM     19  C   LIG    1        3.869  -0.442  -0.860  0.00  0.00    +0.070 C 
BRANCH  19  20
ATOM     20  C   LIG    1        2.638   0.372  -1.161  0.00  0.00    -0.060 A 
ATOM     21  C   LIG    1        1.401  -0.243  -1.226  0.00  0.00    +0.000 A 
ATOM     22  C   LIG    1        0.271   0.504  -1.502  0.00  0.00    -0.020 A 
ATOM     23  C   LIG    1        0.378   1.866  -1.714  0.00  0.00    -0.010 A 
ATOM     24  C   LIG    1        1.614   2.481  -1.648  0.00  0.00    -0.020 A 
ATOM     25  C   LIG    1        2.744   1.734  -1.373  0.00  0.00    +0.050 A 
ENDBRANCH  19  20
ENDBRANCH   6  19
BRANCH   6  26
ATOM     26  C   LIG    1        4.855   0.238  -3.053  0.00  0.00    +0.160 C 
BRANCH  26  27
ATOM     27  O   LIG    1        3.687   1.010  -3.338  0.00  0.00    -0.550 OA
ATOM     28  H   LIG    1        3.852   1.783  -3.895  0.00  0.00    +0.370 HD
ENDBRANCH  26  27
ENDBRANCH   6  26
TORSDOF 6
