REMARK  Name = ZINCqH0000035VQV.0
REMARK                            x       y       z     vdW  Elec       q    Type
REMARK                         _______ _______ _______ _____ _____    ______ ____
ROOT
ATOM      1  C   LIG    1        4.473  -0.006   0.677  0.00  0.00    +0.250 C 
ENDROOT
BRANCH   1   2
ATOM      2  N   LIG    1        3.447  -0.773  -0.042  0.00  0.00    -0.480 N 
ATOM      3  C   LIG    1        2.106  -0.244   0.231  0.00  0.00    +0.160 C 
ATOM      4  C   LIG    1        1.095  -1.000  -0.640  0.00  0.00    +0.250 C 
ATOM      5  O   LIG    1        1.404  -0.729  -2.011  0.00  0.00    -0.320 OA
ATOM      6  C   LIG    1        2.716  -0.806  -2.369  0.00  0.00    +0.140 A 
ATOM      7  C   LIG    1        3.035  -0.865  -3.718  0.00  0.00    -0.080 A 
ATOM      8  C   LIG    1        4.362  -0.935  -4.117  0.00  0.00    +0.220 A 
ATOM      9  C   LIG    1        5.372  -0.945  -3.164  0.00  0.00    -0.070 A 
ATOM     10  C   LIG    1        5.055  -0.888  -1.822  0.00  0.00    +0.060 A 
ATOM     11  C   LIG    1        3.726  -0.820  -1.416  0.00  0.00    -0.020 A 
BRANCH   8  12
ATOM     12  N   LIG    1        4.683  -1.001  -5.479  0.00  0.00    -0.640 N 
ATOM     13  C   LIG    1        6.084  -1.074  -5.899  0.00  0.00    +0.280 C 
ATOM     14  C   LIG    1        3.616  -0.996  -6.483  0.00  0.00    +0.280 C 
ENDBRANCH   8  12
ENDBRANCH   1   2
BRANCH   1  18
ATOM     15  C   LIG    1        3.359   0.352   4.791  0.00  0.00    +0.100 A 
ATOM     16  C   LIG    1        2.954   1.308   3.875  0.00  0.00    -0.030 A 
ATOM     17  C   LIG    1        3.320   1.193   2.546  0.00  0.00    +0.020 A 
ATOM     18  C   LIG    1        4.081   0.118   2.127  0.00  0.00    -0.090 A 
ATOM     19  C   LIG    1        4.489  -0.840   3.037  0.00  0.00    -0.010 A 
ATOM     20  C   LIG    1        4.131  -0.728   4.370  0.00  0.00    +0.100 A 
BRANCH  15  22
ATOM     21  C   LIG    1        2.212   1.600   6.458  0.00  0.00    +0.250 C 
ATOM     22  O   LIG    1        3.004   0.467   6.099  0.00  0.00    -0.310 OA
ENDBRANCH  15  22
BRANCH  20  23
ATOM     23  O   LIG    1        4.531  -1.669   5.265  0.00  0.00    -0.270 OA
BRANCH  23  24
ATOM     24  C   LIG    1        5.426  -2.677   4.791  0.00  0.00    +0.120 C 
ATOM     25  C   LIG    1        5.121  -4.128   5.169  0.00  0.00    +0.030 C 
ATOM     26  C   LIG    1        6.293  -3.396   5.826  0.00  0.00    +0.040 C 
ENDBRANCH  23  24
ENDBRANCH  20  23
ENDBRANCH   1  18
TORSDOF 6
