REMARK  Name = ZINCpe00000MJIUb.1
REMARK                            x       y       z     vdW  Elec       q    Type
REMARK                         _______ _______ _______ _____ _____    ______ ____
ROOT
ATOM      1  C   LIG    1        4.356   1.084  -1.595  0.00  0.00    +0.140 C 
ATOM      2  C   LIG    1        4.750   0.517  -2.985  0.00  0.00    +0.040 C 
ATOM      3  C   LIG    1        6.285   0.741  -2.986  0.00  0.00    +0.260 C 
ATOM      4  N   LIG    1        6.482   2.026  -2.291  0.00  0.00    -0.610 N 
ATOM      5  C   LIG    1        7.544   2.844  -2.436  0.00  0.00    +0.580 C 
ATOM      6  O   LIG    1        8.488   2.498  -3.119  0.00  0.00    -0.530 OA
ATOM      7  C   LIG    1        5.328   2.269  -1.413  0.00  0.00    +0.270 C 
ENDROOT
BRANCH   5   8
ATOM      8  C   LIG    1        7.560   4.161  -1.765  0.00  0.00    -0.140 A 
ATOM      9  C   LIG    1        6.556   4.495  -0.854  0.00  0.00    +0.070 A 
ATOM     10  C   LIG    1        6.573   5.722  -0.222  0.00  0.00    +0.010 A 
ATOM     11  C   LIG    1        7.575   6.632  -0.493  0.00  0.00    +0.070 A 
ATOM     12  C   LIG    1        8.583   6.313  -1.407  0.00  0.00    -0.150 A 
ATOM     13  C   LIG    1        8.575   5.074  -2.044  0.00  0.00    +0.150 A 
BRANCH  12  14
ATOM     14  C   LIG    1        9.656   7.288  -1.697  0.00  0.00    +0.560 C 
ATOM     15  O   LIG    1       10.532   7.009  -2.492  0.00  0.00    -0.530 OA
ATOM     16  N   LIG    1        9.662   8.486  -1.080  0.00  0.00    -0.850 N 
ATOM     17  H   LIG    1       10.366   9.126  -1.270  0.00  0.00    +0.410 HD
ATOM     18  H   LIG    1        8.963   8.709  -0.445  0.00  0.00    +0.400 HD
ENDBRANCH  12  14
ENDBRANCH   5   8
BRANCH   1  19
ATOM     19  N   LIG    1        2.963   1.550  -1.600  0.00  0.00    -0.670 NA
ATOM     20  H   LIG    1        2.393   0.980  -2.207  0.00  0.00    +0.350 HD
BRANCH  19  21
ATOM     21  C   LIG    1        2.414   1.582  -0.238  0.00  0.00    +0.290 C 
BRANCH  21  25
ATOM     22  C   LIG    1       -2.675   1.613  -0.425  0.00  0.00    +0.150 C 
ATOM     23  C   LIG    1       -1.237   2.060  -0.365  0.00  0.00    +0.080 A 
ATOM     24  C   LIG    1       -0.152   1.253  -0.328  0.00  0.00    -0.120 A 
ATOM     25  C   LIG    1        0.987   2.064  -0.283  0.00  0.00    +0.070 A 
ATOM     26  N   LIG    1        0.599   3.313  -0.287  0.00  0.00    -0.270 NA
ATOM     27  N   LIG    1       -0.801   3.337  -0.335  0.00  0.00    -0.370 N 
ATOM     28  C   LIG    1       -1.643   4.536  -0.355  0.00  0.00    +0.360 C 
ENDBRANCH  21  25
ENDBRANCH  19  21
ENDBRANCH   1  19
TORSDOF 5
