REMARK  Name = ZINCrH000004lOrF.0
REMARK                            x       y       z     vdW  Elec       q    Type
REMARK                         _______ _______ _______ _____ _____    ______ ____
ROOT
ATOM      1  N   LIG    1       -1.346  -1.852   0.109  0.00  0.00    -0.730 N 
ATOM      2  H   LIG    1       -0.541  -2.391   0.161  0.00  0.00    +0.400 HD
ATOM      3  C   LIG    1       -1.254  -0.511   0.013  0.00  0.00    +0.710 C 
ATOM      4  N   LIG    1       -0.043   0.082  -0.012  0.00  0.00    -0.680 N 
ATOM      5  H   LIG    1        0.761  -0.460  -0.044  0.00  0.00    +0.410 HD
ATOM      6  O   LIG    1       -2.263   0.165  -0.052  0.00  0.00    -0.570 OA
ENDROOT
BRANCH   4   7
ATOM      7  C   LIG    1        0.053   1.479   0.008  0.00  0.00    +0.140 A 
ATOM      8  C   LIG    1        1.148   2.108  -0.569  0.00  0.00    +0.000 A 
ATOM      9  C   LIG    1        1.241   3.486  -0.553  0.00  0.00    +0.040 A 
ATOM     10  C   LIG    1        0.244   4.242   0.050  0.00  0.00    +0.130 A 
ATOM     11  C   LIG    1       -0.849   3.612   0.631  0.00  0.00    -0.010 A 
ATOM     12  C   LIG    1       -0.944   2.235   0.611  0.00  0.00    +0.050 A 
BRANCH  10  13
ATOM     13  N   LIG    1        0.341   5.639   0.071  0.00  0.00    -0.550 N 
ATOM     14  C   LIG    1        1.314   6.258  -0.626  0.00  0.00    +0.510 C 
ATOM     15  O   LIG    1        2.155   5.603  -1.205  0.00  0.00    -0.520 OA
ATOM     16  C   LIG    1        1.357   7.763  -0.687  0.00  0.00    +0.100 C 
ATOM     17  C   LIG    1       -0.616   6.428   0.851  0.00  0.00    +0.300 C 
ENDBRANCH  10  13
ENDBRANCH   4   7
BRANCH   1  18
ATOM     18  C   LIG    1       -2.661  -2.496   0.136  0.00  0.00    +0.270 C 
ATOM     19  C   LIG    1       -3.152  -2.712  -1.297  0.00  0.00    +0.030 C 
BRANCH  18  20
ATOM     20  C   LIG    1       -2.554  -3.846   0.847  0.00  0.00    +0.210 C 
BRANCH  20  21
ATOM     21  C   LIG    1       -3.927  -4.453   0.984  0.00  0.00    -0.130 A 
ATOM     22  C   LIG    1       -4.464  -5.187  -0.057  0.00  0.00    +0.080 A 
ATOM     23  C   LIG    1       -5.721  -5.748   0.068  0.00  0.00    -0.020 A 
ATOM     24  C   LIG    1       -6.446  -5.565   1.233  0.00  0.00    +0.110 A 
ATOM     25  C   LIG    1       -5.909  -4.825   2.273  0.00  0.00    -0.010 A 
ATOM     26  F   LIG    1       -7.677  -6.109   1.356  0.00  0.00    -0.140 F 
ATOM     27  C   LIG    1       -4.650  -4.270   2.147  0.00  0.00    +0.050 A 
ENDBRANCH  20  21
BRANCH  20  29
ATOM     28  C   LIG    1       -1.007  -5.677   0.872  0.00  0.00    +0.200 C 
ATOM     29  O   LIG    1       -1.720  -4.721   0.085  0.00  0.00    -0.370 OA
ENDBRANCH  20  29
ENDBRANCH  18  20
ENDBRANCH   1  18
TORSDOF 6
