REMARK  Name = ZINCvU000000069v.0
REMARK                            x       y       z     vdW  Elec       q    Type
REMARK                         _______ _______ _______ _____ _____    ______ ____
ROOT
ATOM      1  C   LIG    1        1.071   1.809  -0.036  0.00  0.00    +0.270 C 
ATOM      2  C   LIG    1        1.014   2.288   1.429  0.00  0.00    +0.070 C 
ATOM      3  C   LIG    1        2.479   2.111   1.910  0.00  0.00    +0.040 C 
ATOM      4  C   LIG    1        2.902   0.828   1.152  0.00  0.00    +0.270 C 
ATOM      5  N   LIG    1        2.246   0.935  -0.168  0.00  0.00    -0.600 N 
ATOM      6  C   LIG    1        2.654   0.332  -1.302  0.00  0.00    +0.550 C 
ATOM      7  O   LIG    1        2.079   0.553  -2.347  0.00  0.00    -0.520 OA
ENDROOT
BRANCH   6   8
ATOM      8  C   LIG    1        3.824  -0.617  -1.272  0.00  0.00    -0.060 C 
ATOM      9  C   LIG    1        3.616  -1.648  -0.161  0.00  0.00    +0.040 C 
ATOM     10  C   LIG    1        4.804  -2.612  -0.131  0.00  0.00    -0.010 C 
ATOM     11  C   LIG    1        6.091  -1.827   0.135  0.00  0.00    +0.020 C 
ATOM     12  C   LIG    1        6.298  -0.796  -0.976  0.00  0.00    +0.000 C 
ATOM     13  C   LIG    1        6.408  -1.513  -2.323  0.00  0.00    +0.020 C 
ATOM     14  C   LIG    1        5.122  -2.297  -2.589  0.00  0.00    -0.020 C 
ATOM     15  C   LIG    1        4.914  -3.329  -1.478  0.00  0.00    +0.010 C 
ATOM     16  C   LIG    1        5.110   0.168  -1.006  0.00  0.00    +0.030 C 
ATOM     17  C   LIG    1        3.933  -1.334  -2.619  0.00  0.00    +0.050 C 
ENDBRANCH   6   8
BRANCH   1  19
ATOM     18  O   LIG    1       -0.106  -0.123  -0.697  0.00  0.00    -0.470 OA
ATOM     19  C   LIG    1       -0.180   1.039  -0.372  0.00  0.00    +0.460 C 
BRANCH  19  20
ATOM     20  O   LIG    1       -1.376   1.646  -0.317  0.00  0.00    -0.280 OA
BRANCH  20  21
ATOM     21  C   LIG    1       -2.451   0.929  -0.738  0.00  0.00    +0.120 A 
ATOM     22  C   LIG    1       -2.891   1.043  -2.026  0.00  0.00    +0.060 A 
ATOM     23  C   LIG    1       -3.987   0.313  -2.477  0.00  0.00    +0.060 A 
ATOM     24  C   LIG    1       -4.660  -0.528  -1.643  0.00  0.00    -0.010 A 
ATOM     25  C   LIG    1       -4.241  -0.668  -0.308  0.00  0.00    -0.090 A 
ATOM     26  C   LIG    1       -4.910  -1.527   0.583  0.00  0.00    +0.100 A 
ATOM     27  C   LIG    1       -4.446  -1.613   1.865  0.00  0.00    -0.020 A 
ATOM     28  C   LIG    1       -3.341  -0.861   2.256  0.00  0.00    +0.310 A 
ATOM     29  N   LIG    1       -2.720  -0.062   1.422  0.00  0.00    -0.460 NA
ATOM     30 CL   LIG    1       -6.029  -1.424  -2.225  0.00  0.00    -0.050 Cl
ATOM     31  C   LIG    1       -3.123   0.067   0.155  0.00  0.00    +0.140 A 
ENDBRANCH  20  21
ENDBRANCH  19  20
ENDBRANCH   1  19
TORSDOF 4
