REMARK  Name = ZINCrH00000No4zU.0
REMARK                            x       y       z     vdW  Elec       q    Type
REMARK                         _______ _______ _______ _____ _____    ______ ____
ROOT
ATOM      1  C   LIG    1       -1.114   3.248  -0.228  0.00  0.00    -0.080 A 
ATOM      2  C   LIG    1       -0.323   3.040  -1.364  0.00  0.00    +0.110 A 
ATOM      3  C   LIG    1        0.831   2.317  -1.268  0.00  0.00    +0.040 A 
ATOM      4  C   LIG    1        1.228   1.795  -0.039  0.00  0.00    +0.240 A 
ATOM      5  C   LIG    1        0.446   2.004   1.096  0.00  0.00    -0.050 A 
ATOM      6  C   LIG    1       -0.712   2.721   1.007  0.00  0.00    +0.140 A 
ENDROOT
BRANCH   5   7
ATOM      7  N   LIG    1        0.872   1.446   2.399  0.00  0.00    +0.030 N 
ATOM      8  O   LIG    1        1.943   0.874   2.496  0.00  0.00    -0.120 OA
ATOM      9  O   LIG    1        0.152   1.560   3.375  0.00  0.00    -0.170 OA
ENDBRANCH   5   7
BRANCH   1  11
ATOM     10  C   LIG    1       -2.745   4.529  -1.520  0.00  0.00    -0.040 C 
ATOM     11  C   LIG    1       -2.359   4.021  -0.328  0.00  0.00    +0.150 C 
BRANCH  10  12
ATOM     12  C   LIG    1       -3.946   5.275  -1.617  0.00  0.00    +0.500 C 
ATOM     13  O   LIG    1       -4.630   5.458  -0.627  0.00  0.00    -0.510 OA
BRANCH  12  15
ATOM     14  C   LIG    1       -5.553   6.523  -2.831  0.00  0.00    +0.250 C 
ATOM     15  O   LIG    1       -4.332   5.781  -2.807  0.00  0.00    -0.350 OA
ENDBRANCH  12  15
ENDBRANCH  10  12
ENDBRANCH   1  11
BRANCH   4  16
ATOM     16  N   LIG    1        2.406   1.063   0.057  0.00  0.00    -0.700 N 
ATOM     17  H   LIG    1        3.262   1.520   0.069  0.00  0.00    +0.420 HD
BRANCH  16  18
ATOM     18  C   LIG    1        2.359  -0.333   0.133  0.00  0.00    +0.210 A 
ATOM     19  C   LIG    1        1.143  -0.994   0.017  0.00  0.00    -0.070 A 
ATOM     20  C   LIG    1        1.097  -2.372   0.086  0.00  0.00    +0.060 A 
ATOM     21  C   LIG    1        2.264  -3.097   0.285  0.00  0.00    +0.100 A 
ATOM     22  C   LIG    1        3.479  -2.436   0.408  0.00  0.00    -0.070 A 
ATOM     23  C   LIG    1        4.747  -3.222   0.624  0.00  0.00    +0.090 C 
ATOM     24  C   LIG    1        3.527  -1.058   0.332  0.00  0.00    -0.020 A 
BRANCH  21  25
ATOM     25  N   LIG    1        2.216  -4.495   0.362  0.00  0.00    -0.670 N 
ATOM     26  H   LIG    1        2.940  -4.982   0.787  0.00  0.00    +0.410 HD
ATOM     27  C   LIG    1        1.166  -5.163  -0.154  0.00  0.00    +0.510 C 
ATOM     28  O   LIG    1        0.307  -4.563  -0.765  0.00  0.00    -0.530 OA
ATOM     29  C   LIG    1        1.058  -6.655   0.028  0.00  0.00    +0.110 C 
ENDBRANCH  21  25
ENDBRANCH  16  18
ENDBRANCH   4  16
TORSDOF 7
