REMARK  Name = ZINCkj00000y7zJJ.0
REMARK                            x       y       z     vdW  Elec       q    Type
REMARK                         _______ _______ _______ _____ _____    ______ ____
ROOT
ATOM      1  C   LIG    1       -2.139   3.636   2.985  0.00  0.00    +0.170 C 
ATOM      2  C   LIG    1       -2.661   2.593   3.996  0.00  0.00    +0.050 C 
ATOM      3  C   LIG    1       -3.902   1.979   3.302  0.00  0.00    +0.050 C 
ATOM      4  C   LIG    1       -3.463   1.907   1.818  0.00  0.00    +0.050 C 
ATOM      5  C   LIG    1       -2.650   3.199   1.601  0.00  0.00    +0.140 C 
ENDROOT
BRANCH   5   6
ATOM      6  N   LIG    1       -1.514   2.935   0.707  0.00  0.00    -0.530 NA
ATOM      7  C   LIG    1       -1.935   2.115  -0.461  0.00  0.00    +0.200 C 
ATOM      8  C   LIG    1       -0.849   2.376  -1.528  0.00  0.00    +0.020 C 
ATOM      9  C   LIG    1       -0.237   3.742  -1.154  0.00  0.00    +0.170 C 
ATOM     10  C   LIG    1       -1.005   4.194   0.106  0.00  0.00    +0.170 C 
BRANCH   9  11
ATOM     11  O   LIG    1       -0.430   4.679  -2.216  0.00  0.00    -0.560 OA
ATOM     12  H   LIG    1       -0.007   4.424  -3.047  0.00  0.00    +0.390 HD
ENDBRANCH   9  11
ENDBRANCH   5   6
BRANCH   1  13
ATOM     13  N   LIG    1       -0.671   3.657   2.997  0.00  0.00    -0.500 N 
ATOM     14  H   LIG    1       -0.337   4.265   2.264  0.00  0.00    +0.420 HD
ATOM     15  H   LIG    1       -0.320   2.723   2.845  0.00  0.00    +0.430 HD
BRANCH  13  16
ATOM     16  C   LIG    1       -0.198   4.152   4.297  0.00  0.00    +0.280 C 
BRANCH  16  17
ATOM     17  C   LIG    1        1.331   4.174   4.309  0.00  0.00    -0.120 C 
ATOM     18  C   LIG    1        1.965   2.811   4.634  0.00  0.00    +0.040 C 
ATOM     19  C   LIG    1        2.993   3.580   5.481  0.00  0.00    +0.050 C 
ATOM     20  C   LIG    1        1.930   4.680   5.632  0.00  0.00    +0.060 C 
BRANCH  17  21
ATOM     21  C   LIG    1        1.926   4.848   3.070  0.00  0.00    +0.170 C 
BRANCH  21  23
ATOM     22  C   LIG    1        4.009   5.437   2.042  0.00  0.00    +0.220 C 
ATOM     23  O   LIG    1        3.352   4.829   3.155  0.00  0.00    -0.370 OA
ENDBRANCH  21  23
ENDBRANCH  17  21
ENDBRANCH  16  17
ENDBRANCH  13  16
ENDBRANCH   1  13
TORSDOF 7
