REMARK  Name = ZINCvU00000009bf.0
REMARK                            x       y       z     vdW  Elec       q    Type
REMARK                         _______ _______ _______ _____ _____    ______ ____
ROOT
ATOM      1  C   LIG    1        2.100   1.631  -1.818  0.00  0.00    +0.280 C 
ATOM      2  C   LIG    1        1.105   0.889  -2.735  0.00  0.00    +0.050 C 
ATOM      3  C   LIG    1       -0.265   1.176  -2.067  0.00  0.00    +0.040 C 
ATOM      4  C   LIG    1       -0.062   2.622  -1.550  0.00  0.00    +0.250 C 
ATOM      5  N   LIG    1        1.342   2.669  -1.103  0.00  0.00    -0.620 N 
ATOM      6  C   LIG    1        1.848   3.522  -0.190  0.00  0.00    +0.530 C 
ATOM      7  O   LIG    1        3.024   3.470   0.102  0.00  0.00    -0.510 OA
ENDROOT
BRANCH   1  12
ATOM      8  C   LIG    1        4.112   4.188  -3.739  0.00  0.00    +0.090 A 
ATOM      9  C   LIG    1        5.187   3.427  -4.173  0.00  0.00    -0.040 A 
ATOM     10  C   LIG    1        5.262   2.087  -3.844  0.00  0.00    -0.040 A 
ATOM     11  C   LIG    1        4.262   1.504  -3.081  0.00  0.00    +0.100 A 
ATOM     12  C   LIG    1        3.187   2.265  -2.647  0.00  0.00    -0.070 A 
ATOM     13  C   LIG    1        3.110   3.604  -2.979  0.00  0.00    +0.040 A 
BRANCH   8  15
ATOM     14  C   LIG    1        5.104   6.042  -4.851  0.00  0.00    +0.230 C 
ATOM     15  O   LIG    1        4.039   5.507  -4.063  0.00  0.00    -0.320 OA
ENDBRANCH   8  15
BRANCH  11  16
ATOM     16  O   LIG    1        4.335   0.185  -2.757  0.00  0.00    -0.310 OA
ATOM     17  C   LIG    1        5.470  -0.539  -3.238  0.00  0.00    +0.230 C 
ENDBRANCH  11  16
ENDBRANCH   1  12
BRANCH   6  18
ATOM     18  C   LIG    1        0.953   4.540   0.468  0.00  0.00    +0.070 C 
BRANCH  18  19
ATOM     19  C   LIG    1        1.769   5.376   1.454  0.00  0.00    +0.100 C 
BRANCH  19  20
ATOM     20  C   LIG    1        2.260   4.495   2.574  0.00  0.00    -0.060 A 
ATOM     21  C   LIG    1        1.368   3.700   3.269  0.00  0.00    +0.000 A 
ATOM     22  C   LIG    1        1.819   2.888   4.293  0.00  0.00    +0.000 A 
ATOM     23  C   LIG    1        3.160   2.878   4.628  0.00  0.00    +0.000 A 
ATOM     24  C   LIG    1        4.051   3.677   3.937  0.00  0.00    +0.000 A 
ATOM     25  C   LIG    1        3.601   4.486   2.910  0.00  0.00    +0.030 A 
ENDBRANCH  19  20
BRANCH  19  26
ATOM     26  C   LIG    1        0.904   6.473   2.021  0.00  0.00    -0.070 A 
ATOM     27  C   LIG    1        1.340   7.784   1.988  0.00  0.00    +0.010 A 
ATOM     28  C   LIG    1        0.545   8.790   2.504  0.00  0.00    +0.000 A 
ATOM     29  C   LIG    1       -0.683   8.484   3.059  0.00  0.00    +0.000 A 
ATOM     30  C   LIG    1       -1.117   7.172   3.097  0.00  0.00    +0.000 A 
ATOM     31  C   LIG    1       -0.324   6.166   2.577  0.00  0.00    +0.010 A 
ENDBRANCH  19  26
ENDBRANCH  18  19
ENDBRANCH   6  18
TORSDOF 7
