REMARK  Name = ZINCpe000000Y2dI.0
REMARK                            x       y       z     vdW  Elec       q    Type
REMARK                         _______ _______ _______ _____ _____    ______ ____
ROOT
ATOM      1  C   LIG    1       -0.013   1.086   0.008  0.00  0.00    +0.190 C 
ATOM      2  C   LIG    1       -0.718   1.572   1.248  0.00  0.00    +0.410 A 
ATOM      3  N   LIG    1       -0.006   1.786   2.336  0.00  0.00    -0.520 NA
ATOM      4  C   LIG    1       -0.579   2.216   3.461  0.00  0.00    +0.230 A 
ATOM      5  C   LIG    1       -1.965   2.435   3.453  0.00  0.00    -0.310 A 
ATOM      6  C   LIG    1       -2.699   2.906   4.631  0.00  0.00    +0.570 A 
ATOM      7  N   LIG    1       -4.035   3.086   4.519  0.00  0.00    -0.560 N 
ATOM      8  C   LIG    1       -4.674   2.839   3.365  0.00  0.00    +0.710 A 
ATOM      9  N   LIG    1       -4.043   2.406   2.259  0.00  0.00    -0.520 N 
ATOM     10  O   LIG    1       -5.876   3.015   3.317  0.00  0.00    -0.520 OA
ATOM     11  C   LIG    1       -4.798   3.556   5.678  0.00  0.00    +0.350 C 
ATOM     12  O   LIG    1       -2.124   3.130   5.679  0.00  0.00    -0.470 OA
ATOM     13  C   LIG    1       -2.682   2.192   2.266  0.00  0.00    +0.470 A 
ATOM     14  N   LIG    1       -2.022   1.770   1.196  0.00  0.00    -0.550 NA
ENDROOT
BRANCH   9  15
ATOM     15  C   LIG    1       -4.811   2.160   1.035  0.00  0.00    +0.330 C 
BRANCH  15  16
ATOM     16  C   LIG    1       -4.861   3.439   0.198  0.00  0.00    -0.040 C 
ATOM     17  C   LIG    1       -5.764   3.219  -1.017  0.00  0.00    +0.040 C 
ATOM     18  C   LIG    1       -3.449   3.795  -0.274  0.00  0.00    +0.020 C 
ENDBRANCH  15  16
ENDBRANCH   9  15
BRANCH   4  19
ATOM     19  S   LIG    1        0.376   2.501   4.914  0.00  0.00    +0.120 S 
BRANCH  19  20
ATOM     20  C   LIG    1        2.019   2.054   4.303  0.00  0.00    -0.050 C 
ATOM     21  C   LIG    1        3.085   2.304   5.393  0.00  0.00    +0.080 C 
ATOM     22  C   LIG    1        3.922   1.005   5.334  0.00  0.00    +0.270 C 
ATOM     23  O   LIG    1        2.994  -0.003   4.835  0.00  0.00    -0.340 OA
ATOM     24  C   LIG    1        2.091   0.569   4.021  0.00  0.00    +0.490 C 
ATOM     25  O   LIG    1        1.433  -0.014   3.191  0.00  0.00    -0.420 OA
ENDBRANCH  19  20
ENDBRANCH   4  19
TORSDOF 4
