REMARK  Name = ZINCqH0000051aWH.0
REMARK                            x       y       z     vdW  Elec       q    Type
REMARK                         _______ _______ _______ _____ _____    ______ ____
ROOT
ATOM      1  O   LIG    1        0.082  -3.788   3.029  0.00  0.00    -0.330 OA
ENDROOT
BRANCH   1   2
ATOM      2  C   LIG    1        0.102  -4.406   4.227  0.00  0.00    +0.520 C 
ATOM      3  O   LIG    1        0.103  -3.750   5.249  0.00  0.00    -0.500 OA
BRANCH   2   4
ATOM      4  C   LIG    1        0.123  -5.879   4.296  0.00  0.00    -0.150 A 
ATOM      5  C   LIG    1        0.116  -6.636   3.120  0.00  0.00    +0.140 A 
ATOM      6  C   LIG    1        0.140  -8.011   3.189  0.00  0.00    -0.070 A 
ATOM      7  C   LIG    1        0.160  -8.646   4.426  0.00  0.00    +0.150 A 
ATOM      8  C   LIG    1        0.162  -7.897   5.597  0.00  0.00    +0.010 A 
ATOM      9  C   LIG    1        0.143  -6.522   5.537  0.00  0.00    +0.150 A 
BRANCH   7  10
ATOM     10  O   LIG    1        0.178 -10.002   4.489  0.00  0.00    -0.310 OA
BRANCH  10  11
ATOM     11  C   LIG    1        0.175 -10.710   3.248  0.00  0.00    +0.600 C 
ATOM     12  F   LIG    1       -0.979 -10.382   2.527  0.00  0.00    -0.160 F 
ATOM     13  F   LIG    1        0.195 -12.086   3.496  0.00  0.00    -0.130 F 
ATOM     14  F   LIG    1        1.306 -10.353   2.505  0.00  0.00    -0.160 F 
ENDBRANCH  10  11
ENDBRANCH   7  10
ENDBRANCH   2   4
ENDBRANCH   1   2
BRANCH   1  15
ATOM     15  C   LIG    1        0.063  -2.336   3.037  0.00  0.00    +0.270 C 
BRANCH  15  17
ATOM     16  O   LIG    1        0.044  -2.609   0.693  0.00  0.00    -0.510 OA
ATOM     17  C   LIG    1        0.042  -1.826   1.619  0.00  0.00    +0.520 C 
ATOM     18  N   LIG    1        0.022  -0.500   1.381  0.00  0.00    -0.720 N 
ATOM     19  H   LIG    1        0.020   0.127   2.121  0.00  0.00    +0.410 HD
BRANCH  18  20
ATOM     20  C   LIG    1        0.002  -0.004   0.002  0.00  0.00    +0.320 C 
BRANCH  20  21
ATOM     21  C   LIG    1       -0.018   1.503   0.010  0.00  0.00    -0.110 A 
ATOM     22  C   LIG    1       -1.225   2.177   0.020  0.00  0.00    +0.050 A 
ATOM     23  C   LIG    1       -1.244   3.559   0.032  0.00  0.00    +0.030 A 
ATOM     24  C   LIG    1       -0.056   4.268   0.024  0.00  0.00    -0.030 A 
ATOM     25  C   LIG    1        1.151   3.592   0.009  0.00  0.00    +0.030 A 
ATOM     26 CL   LIG    1       -0.079   6.003   0.032  0.00  0.00    -0.060 Cl
ATOM     27  C   LIG    1        1.169   2.210   0.003  0.00  0.00    +0.050 A 
ENDBRANCH  20  21
ENDBRANCH  18  20
ENDBRANCH  15  17
ENDBRANCH   1  15
TORSDOF 8
