REMARK  Name = ZINCqH0000002Fts.0
REMARK                            x       y       z     vdW  Elec       q    Type
REMARK                         _______ _______ _______ _____ _____    ______ ____
ROOT
ATOM      1  N   LIG    1       -1.904   2.390   3.531  0.00  0.00    -0.660 N 
ATOM      2  H   LIG    1       -2.248   2.706   2.681  0.00  0.00    +0.410 HD
ATOM      3  C   LIG    1       -2.541   2.706   4.675  0.00  0.00    +0.600 C 
ATOM      4  O   LIG    1       -2.066   2.379   5.746  0.00  0.00    -0.530 OA
ENDROOT
BRANCH   1  11
ATOM      5  C   LIG    1       -0.478   0.700   2.543  0.00  0.00    +0.140 A 
ATOM      6  C   LIG    1        0.667  -0.077   2.587  0.00  0.00    -0.090 A 
ATOM      7  C   LIG    1        1.553   0.055   3.643  0.00  0.00    +0.130 A 
ATOM      8  C   LIG    1        1.290   0.954   4.662  0.00  0.00    -0.030 A 
ATOM      9  C   LIG    1        0.145   1.729   4.626  0.00  0.00    +0.100 A 
ATOM     10  F   LIG    1        2.672  -0.700   3.683  0.00  0.00    -0.140 F 
ATOM     11  C   LIG    1       -0.743   1.605   3.568  0.00  0.00    +0.110 A 
BRANCH   5  12
ATOM     12  O   LIG    1       -1.347   0.575   1.504  0.00  0.00    -0.310 OA
BRANCH  12  13
ATOM     13  C   LIG    1       -1.011  -0.372   0.488  0.00  0.00    +0.200 C 
BRANCH  13  15
ATOM     14  C   LIG    1       -1.738  -1.386  -1.677  0.00  0.00    +0.040 C 
ATOM     15  C   LIG    1       -2.098  -0.371  -0.589  0.00  0.00    +0.020 C 
ENDBRANCH  13  15
ENDBRANCH  12  13
ENDBRANCH   5  12
ENDBRANCH   1  11
BRANCH   3  16
ATOM     16  C   LIG    1       -3.815   3.447   4.630  0.00  0.00    -0.300 A 
ATOM     17  C   LIG    1       -4.578   3.832   5.713  0.00  0.00    +0.200 A 
ATOM     18  N   LIG    1       -5.653   4.486   5.235  0.00  0.00    -0.320 N 
ATOM     19  N   LIG    1       -5.575   4.506   3.838  0.00  0.00    -0.280 NA
ATOM     20  C   LIG    1       -4.263   3.572   7.164  0.00  0.00    +0.190 C 
ATOM     21  C   LIG    1       -4.486   3.891   3.467  0.00  0.00    +0.300 A 
BRANCH  18  22
ATOM     22  C   LIG    1       -6.678   5.045   6.004  0.00  0.00    +0.360 A 
ATOM     23  C   LIG    1       -7.425   6.099   5.493  0.00  0.00    +0.000 A 
ATOM     24  C   LIG    1       -8.441   6.640   6.263  0.00  0.00    +0.100 A 
ATOM     25  C   LIG    1       -8.667   6.112   7.526  0.00  0.00    -0.020 A 
ATOM     26  C   LIG    1       -7.882   5.066   7.972  0.00  0.00    +0.300 A 
ATOM     27  N   LIG    1       -6.925   4.568   7.214  0.00  0.00    -0.500 NA
ENDBRANCH  18  22
ENDBRANCH   3  16
TORSDOF 6
