REMARK  Name = ZINCrD000000CEMg.0
REMARK                            x       y       z     vdW  Elec       q    Type
REMARK                         _______ _______ _______ _____ _____    ______ ____
ROOT
ATOM      1  O   LIG    1        4.133  -0.183  -0.032  0.00  0.00    -0.530 OA
ATOM      2  C   LIG    1        3.117  -0.852  -0.030  0.00  0.00    +0.570 C 
ATOM      3  N   LIG    1        3.194  -2.194   0.059  0.00  0.00    -0.610 N 
ATOM      4  C   LIG    1        1.987  -3.029  -0.051  0.00  0.00    +0.280 C 
ATOM      5  C   LIG    1        2.249  -4.118  -1.103  0.00  0.00    +0.170 C 
ATOM      6  N   LIG    1        3.477  -4.845  -0.752  0.00  0.00    -0.530 NA
ATOM      7  C   LIG    1        4.648  -3.960  -0.784  0.00  0.00    +0.180 C 
ATOM      8  C   LIG    1        4.485  -2.864   0.274  0.00  0.00    +0.290 C 
ENDROOT
BRANCH   2   9
ATOM      9  C   LIG    1        1.801  -0.193  -0.123  0.00  0.00    -0.120 A 
ATOM     10  C   LIG    1        0.803  -0.467   0.803  0.00  0.00    +0.050 A 
ATOM     11  C   LIG    1       -0.435   0.154   0.712  0.00  0.00    +0.000 A 
ATOM     12  C   LIG    1       -0.720   1.046  -0.275  0.00  0.00    +0.050 A 
ATOM     13  C   LIG    1        0.242   1.372  -1.246  0.00  0.00    -0.060 A 
ATOM     14  C   LIG    1       -0.038   2.290  -2.272  0.00  0.00    +0.030 A 
ATOM     15  C   LIG    1        0.920   2.580  -3.196  0.00  0.00    +0.020 A 
ATOM     16  C   LIG    1        2.175   1.978  -3.141  0.00  0.00    +0.020 A 
ATOM     17  C   LIG    1        2.480   1.083  -2.159  0.00  0.00    +0.030 A 
ATOM     18  C   LIG    1        1.519   0.762  -1.193  0.00  0.00    -0.020 A 
ENDBRANCH   2   9
BRANCH   6  19
ATOM     19  C   LIG    1        3.670  -6.007  -1.631  0.00  0.00    +0.200 C 
BRANCH  19  20
ATOM     20  C   LIG    1        3.653  -5.550  -3.091  0.00  0.00    +0.220 C 
BRANCH  20  21
ATOM     21  C   LIG    1        3.670  -6.756  -3.995  0.00  0.00    -0.120 A 
ATOM     22  C   LIG    1        4.860  -7.409  -4.255  0.00  0.00    +0.010 A 
ATOM     23  C   LIG    1        4.874  -8.517  -5.080  0.00  0.00    +0.000 A 
ATOM     24  C   LIG    1        3.699  -8.967  -5.653  0.00  0.00    +0.000 A 
ATOM     25  C   LIG    1        2.510  -8.311  -5.398  0.00  0.00    +0.000 A 
ATOM     26  C   LIG    1        2.495  -7.205  -4.569  0.00  0.00    +0.010 A 
ENDBRANCH  20  21
BRANCH  20  27
ATOM     27  O   LIG    1        4.804  -4.744  -3.351  0.00  0.00    -0.550 OA
ATOM     28  H   LIG    1        5.645  -5.199  -3.204  0.00  0.00    +0.370 HD
ENDBRANCH  20  27
ENDBRANCH  19  20
ENDBRANCH   6  19
TORSDOF 5
