REMARK  Name = ZINCrD0000074MCB.0
REMARK                            x       y       z     vdW  Elec       q    Type
REMARK                         _______ _______ _______ _____ _____    ______ ____
ROOT
ATOM      1  C   LIG    1        5.139  -2.022  -1.701  0.00  0.00    +0.570 C 
ATOM      2  N   LIG    1        3.888  -1.596  -1.433  0.00  0.00    -0.730 N 
ATOM      3  H   LIG    1        3.320  -1.278  -2.152  0.00  0.00    +0.400 HD
ATOM      4  O   LIG    1        5.851  -2.420  -0.800  0.00  0.00    -0.520 OA
ENDROOT
BRANCH   1  10
ATOM      5  C   LIG    1        4.228  -0.999  -8.989  0.00  0.00    +0.100 C 
ATOM      6  C   LIG    1        5.081  -1.350  -7.798  0.00  0.00    -0.080 A 
ATOM      7  C   LIG    1        4.532  -1.342  -6.552  0.00  0.00    +0.040 A 
ATOM      8  C   LIG    1        5.328  -1.669  -5.440  0.00  0.00    -0.110 A 
ATOM      9  C   LIG    1        4.795  -1.675  -4.140  0.00  0.00    +0.130 A 
ATOM     10  C   LIG    1        5.644  -2.004  -3.089  0.00  0.00    -0.190 A 
ATOM     11  C   LIG    1        6.986  -2.325  -3.359  0.00  0.00    +0.210 A 
ATOM     12  N   LIG    1        7.460  -2.317  -4.578  0.00  0.00    -0.480 NA
ATOM     13  C   LIG    1        7.900  -2.686  -2.217  0.00  0.00    +0.150 C 
ATOM     14  C   LIG    1        6.692  -2.004  -5.629  0.00  0.00    +0.150 A 
ATOM     15  C   LIG    1        7.221  -2.001  -6.931  0.00  0.00    +0.040 A 
ATOM     16  C   LIG    1        6.422  -1.680  -7.985  0.00  0.00    +0.050 A 
ENDBRANCH   1  10
BRANCH   2  17
ATOM     17  C   LIG    1        3.387  -1.614  -0.057  0.00  0.00    +0.340 C 
BRANCH  17  18
ATOM     18  C   LIG    1        1.974  -1.092  -0.030  0.00  0.00    -0.040 A 
ATOM     19  C   LIG    1        1.720   0.260   0.147  0.00  0.00    -0.010 A 
ATOM     20  C   LIG    1        0.412   0.706   0.167  0.00  0.00    +0.310 A 
ATOM     21  N   LIG    1       -0.592  -0.138   0.021  0.00  0.00    -0.490 NA
ATOM     22  C   LIG    1       -0.390  -1.434  -0.151  0.00  0.00    +0.350 A 
ATOM     23  C   LIG    1        0.899  -1.952  -0.181  0.00  0.00    -0.010 A 
BRANCH  22  24
ATOM     24  N   LIG    1       -1.484  -2.291  -0.302  0.00  0.00    -0.410 N 
ATOM     25  C   LIG    1       -2.803  -1.923  -0.384  0.00  0.00    +0.150 A 
ATOM     26  C   LIG    1       -3.516  -3.056  -0.527  0.00  0.00    +0.150 A 
ATOM     27  N   LIG    1       -2.663  -4.091  -0.524  0.00  0.00    -0.470 NA
ATOM     28  C   LIG    1       -1.443  -3.647  -0.390  0.00  0.00    +0.400 A 
ENDBRANCH  22  24
ENDBRANCH  17  18
ENDBRANCH   2  17
TORSDOF 4
