REMARK  Name = ZINCpe00000RaCAX.0
REMARK                            x       y       z     vdW  Elec       q    Type
REMARK                         _______ _______ _______ _____ _____    ______ ____
ROOT
ATOM      1  C   LIG    1       -4.916   3.594   0.147  0.00  0.00    +0.230 C 
ATOM      2  C   LIG    1       -5.186   4.193  -1.235  0.00  0.00    +0.010 C 
ATOM      3  C   LIG    1       -6.348   5.186  -1.145  0.00  0.00    +0.020 C 
ATOM      4  C   LIG    1       -7.609   4.449  -0.682  0.00  0.00    +0.290 C 
ATOM      5  N   LIG    1       -7.313   3.749   0.576  0.00  0.00    -0.570 N 
ATOM      6  C   LIG    1       -6.160   2.840   0.625  0.00  0.00    +0.300 C 
ENDROOT
BRANCH   5   7
ATOM      7  C   LIG    1       -8.108   3.945   1.697  0.00  0.00    +0.350 A 
ATOM      8  N   LIG    1       -7.761   3.432   2.858  0.00  0.00    -0.510 NA
ATOM      9  C   LIG    1       -8.519   3.616   3.939  0.00  0.00    +0.190 A 
ATOM     10  C   LIG    1       -9.664   4.329   3.889  0.00  0.00    +0.170 A 
ATOM     11  N   LIG    1      -10.089   4.891   2.722  0.00  0.00    -0.590 N 
ATOM     12  H   LIG    1      -10.913   5.402   2.694  0.00  0.00    +0.420 HD
ATOM     13  C   LIG    1       -9.344   4.731   1.605  0.00  0.00    +0.490 A 
ATOM     14  O   LIG    1       -9.692   5.225   0.546  0.00  0.00    -0.520 OA
ENDBRANCH   5   7
BRANCH   1  17
ATOM     15  O   LIG    1       -2.326   4.324   0.323  0.00  0.00    -0.530 OA
ATOM     16  C   LIG    1       -2.523   3.135   0.166  0.00  0.00    +0.570 C 
ATOM     17  N   LIG    1       -3.784   2.668   0.066  0.00  0.00    -0.720 N 
ATOM     18  H   LIG    1       -3.941   1.719  -0.060  0.00  0.00    +0.400 HD
BRANCH  16  19
ATOM     19  C   LIG    1       -1.385   2.203   0.084  0.00  0.00    -0.160 A 
ATOM     20  C   LIG    1       -0.083   2.669   0.185  0.00  0.00    +0.180 A 
ATOM     21  C   LIG    1        0.976   1.752   0.102  0.00  0.00    -0.030 A 
ATOM     22  C   LIG    1        2.353   1.890   0.165  0.00  0.00    +0.210 A 
ATOM     23  N   LIG    1        2.880   0.676   0.027  0.00  0.00    -0.460 NA
ATOM     24  C   LIG    1        1.927  -0.212  -0.117  0.00  0.00    +0.380 A 
ATOM     25  N   LIG    1        0.728   0.405  -0.077  0.00  0.00    -0.370 N 
ATOM     26  C   LIG    1       -0.558  -0.067  -0.179  0.00  0.00    +0.220 A 
ATOM     27  C   LIG    1       -1.607   0.767  -0.113  0.00  0.00    +0.040 A 
ENDBRANCH  16  19
ENDBRANCH   1  17
TORSDOF 3
