REMARK  Name = ZINCnE000001N22D.0
REMARK                            x       y       z     vdW  Elec       q    Type
REMARK                         _______ _______ _______ _____ _____    ______ ____
ROOT
ATOM      1  C   LIG    1       -0.757   1.467  -3.582  0.00  0.00    +0.510 A 
ATOM      2  N   LIG    1       -1.908   2.114  -3.462  0.00  0.00    -0.560 NA
ATOM      3  C   LIG    1       -2.614   2.453  -4.529  0.00  0.00    +0.350 A 
ATOM      4  C   LIG    1       -2.144   2.115  -5.786  0.00  0.00    -0.110 A 
ATOM      5  C   LIG    1       -0.931   1.429  -5.881  0.00  0.00    +0.240 A 
ATOM      6  N   LIG    1       -0.272   1.125  -4.765  0.00  0.00    -0.520 NA
ENDROOT
BRANCH   1  12
ATOM      7  C   LIG    1       -0.730   1.580   1.266  0.00  0.00    +0.020 C 
ATOM      8  C   LIG    1       -0.013   1.086   0.008  0.00  0.00    -0.030 C 
ATOM      9  C   LIG    1        1.423   1.617  -0.003  0.00  0.00    +0.040 C 
ATOM     10  C   LIG    1        2.116   1.167  -1.292  0.00  0.00    -0.080 C 
ATOM     11  C   LIG    1        1.318   1.672  -2.497  0.00  0.00    +0.230 C 
ATOM     12  N   LIG    1       -0.048   1.136  -2.441  0.00  0.00    -0.460 N 
ATOM     13  C   LIG    1       -0.749   1.594  -1.234  0.00  0.00    +0.210 C 
BRANCH  10  14
ATOM     14  C   LIG    1        3.511   1.734  -1.339  0.00  0.00    +0.500 C 
ATOM     15  O   LIG    1        3.718   2.875  -0.962  0.00  0.00    -0.690 OA
ATOM     16  O   LIG    1        4.433   1.053  -1.753  0.00  0.00    -0.700 OA
ENDBRANCH  10  14
ENDBRANCH   1  12
BRANCH   5  17
ATOM     17  C   LIG    1       -0.385   1.044  -7.205  0.00  0.00    -0.040 A 
ATOM     18  C   LIG    1       -1.085   1.361  -8.369  0.00  0.00    +0.050 A 
ATOM     19  C   LIG    1       -0.570   1.007  -9.599  0.00  0.00    +0.040 A 
ATOM     20  C   LIG    1        0.633   0.326  -9.678  0.00  0.00    -0.080 A 
ATOM     21  C   LIG    1        1.329   0.004  -8.526  0.00  0.00    +0.040 A 
ATOM     22 BR   LIG    1        1.329  -0.164 -11.367  0.00  0.00    -0.050 Br
ATOM     23  C   LIG    1        0.826   0.359  -7.291  0.00  0.00    +0.090 A 
ENDBRANCH   5  17
TORSDOF 3
