REMARK  Name = ZINCpk00000xI9fO.0
REMARK                            x       y       z     vdW  Elec       q    Type
REMARK                         _______ _______ _______ _____ _____    ______ ____
ROOT
ATOM      1  C   LIG    1        0.050   8.526  -2.814  0.00  0.00    +0.080 A 
ATOM      2  C   LIG    1       -0.981   7.601  -2.893  0.00  0.00    +0.070 A 
ATOM      3  C   LIG    1       -1.170   6.689  -1.873  0.00  0.00    -0.680 A 
ATOM      4  C   LIG    1       -0.334   6.702  -0.767  0.00  0.00    +0.200 A 
ATOM      5  C   LIG    1        0.700   7.624  -0.690  0.00  0.00    -0.050 A 
ATOM      6  C   LIG    1        0.890   8.536  -1.710  0.00  0.00    -0.020 A 
ATOM      7  C   LIG    1        2.009   9.541  -1.624  0.00  0.00    +0.110 C 
ENDROOT
BRANCH   3   8
ATOM      8  S   LIG    1       -2.479   5.514  -1.973  0.00  0.00    +2.710 S 
ATOM      9  O   LIG    1       -3.159   5.563  -0.726  0.00  0.00    -0.940 OA
ATOM     10  O   LIG    1       -3.125   5.739  -3.219  0.00  0.00    -0.960 OA
BRANCH   8  11
ATOM     11  N   LIG    1       -1.785   4.014  -2.070  0.00  0.00    -1.120 NA
ATOM     12  H   LIG    1       -1.894   3.480  -2.872  0.00  0.00    +0.420 HD
BRANCH  11  13
ATOM     13  C   LIG    1       -1.007   3.493  -0.943  0.00  0.00    +0.290 C 
BRANCH  13  14
ATOM     14  C   LIG    1       -0.798   1.988  -1.120  0.00  0.00    +0.180 C 
BRANCH  14  15
ATOM     15  N   LIG    1       -0.018   1.466   0.010  0.00  0.00    -0.530 NA
ATOM     16  C   LIG    1        1.350   2.006  -0.000  0.00  0.00    +0.150 C 
ATOM     17  C   LIG    1        2.107   1.484   1.224  0.00  0.00    +0.220 C 
ATOM     18  O   LIG    1        2.090   0.054   1.216  0.00  0.00    -0.380 OA
ATOM     19  C   LIG    1        0.773  -0.505   1.226  0.00  0.00    +0.220 C 
ATOM     20  C   LIG    1        0.002  -0.004   0.002  0.00  0.00    +0.160 C 
ENDBRANCH  14  15
ENDBRANCH  13  14
ENDBRANCH  11  13
ENDBRANCH   8  11
ENDBRANCH   3   8
BRANCH   1  21
ATOM     21  O   LIG    1        0.236   9.424  -3.818  0.00  0.00    -0.310 OA
BRANCH  21  23
ATOM     22  C   LIG    1       -0.301  10.435  -5.946  0.00  0.00    +0.070 C 
ATOM     23  C   LIG    1       -0.665   9.356  -4.925  0.00  0.00    +0.180 C 
ENDBRANCH  21  23
ENDBRANCH   1  21
BRANCH   4  24
ATOM     24  O   LIG    1       -0.524   5.809   0.240  0.00  0.00    -0.310 OA
BRANCH  24  25
ATOM     25  C   LIG    1        0.375   5.879   1.349  0.00  0.00    +0.190 C 
ATOM     26  C   LIG    1        0.007   4.804   2.373  0.00  0.00    +0.070 C 
ENDBRANCH  24  25
ENDBRANCH   4  24
TORSDOF 9
