REMARK  Name = ZINCqH0000000ofl.0
REMARK                            x       y       z     vdW  Elec       q    Type
REMARK                         _______ _______ _______ _____ _____    ______ ____
ROOT
ATOM      1  S   LIG    1        7.850  -0.972   1.932  0.00  0.00    +0.060 S 
ENDROOT
BRANCH   1   5
ATOM      2  C   LIG    1       12.050  -0.787   1.536  0.00  0.00    +0.230 A 
ATOM      3  N   LIG    1       11.420  -1.048   0.430  0.00  0.00    -0.280 NA
ATOM      4  N   LIG    1       10.162  -1.124   0.473  0.00  0.00    -0.240 NA
ATOM      5  C   LIG    1        9.583  -0.925   1.621  0.00  0.00    -0.060 A 
ATOM      6  S   LIG    1       10.846  -0.607   2.813  0.00  0.00    +0.240 S 
BRANCH   2   9
ATOM      7  C   LIG    1       15.441  -0.274   3.070  0.00  0.00    +0.140 C 
ATOM      8  C   LIG    1       13.963  -0.526   2.915  0.00  0.00    +0.520 C 
ATOM      9  N   LIG    1       13.429  -0.670   1.686  0.00  0.00    -0.480 N 
ATOM     10  O   LIG    1       13.255  -0.600   3.897  0.00  0.00    -0.500 OA
BRANCH   9  11
ATOM     11  C   LIG    1       14.300  -0.703   0.508  0.00  0.00    +0.200 C 
ATOM     12  C   LIG    1       13.647  -0.492  -0.859  0.00  0.00    +0.070 C 
ATOM     13  C   LIG    1       14.142  -1.881  -0.454  0.00  0.00    +0.040 C 
ENDBRANCH   9  11
ENDBRANCH   2   9
ENDBRANCH   1   5
BRANCH   1  14
ATOM     14  C   LIG    1        7.152  -1.343   0.299  0.00  0.00    +0.240 C 
BRANCH  14  15
ATOM     15  C   LIG    1        5.650  -1.418   0.400  0.00  0.00    +0.180 A 
ATOM     16  N   LIG    1        4.950  -2.483   0.656  0.00  0.00    -0.360 NA
ATOM     17  O   LIG    1        3.766  -2.219   0.674  0.00  0.00    +0.090 OA
ATOM     18  C   LIG    1        3.590  -0.914   0.413  0.00  0.00    +0.240 A 
ATOM     19  N   LIG    1        4.794  -0.397   0.240  0.00  0.00    -0.460 NA
BRANCH  18  20
ATOM     20  C   LIG    1        2.301  -0.195   0.340  0.00  0.00    -0.050 A 
ATOM     21  C   LIG    1        1.103  -0.880   0.547  0.00  0.00    +0.070 A 
ATOM     22  C   LIG    1       -0.097  -0.202   0.478  0.00  0.00    +0.020 A 
ATOM     23  C   LIG    1       -0.114   1.154   0.204  0.00  0.00    -0.050 A 
ATOM     24  C   LIG    1        1.070   1.839  -0.002  0.00  0.00    +0.010 A 
ATOM     25  C   LIG    1       -1.428   1.886   0.124  0.00  0.00    +0.100 C 
ATOM     26  C   LIG    1        2.277   1.173   0.064  0.00  0.00    +0.090 A 
ENDBRANCH  18  20
ENDBRANCH  14  15
ENDBRANCH   1  14
TORSDOF 6
