REMARK  Name = ZINCtV00001bB3QA.0
REMARK                            x       y       z     vdW  Elec       q    Type
REMARK                         _______ _______ _______ _____ _____    ______ ____
ROOT
ATOM      1  N   LIG    1        0.757  -0.483  -1.392  0.00  0.00    -0.930 NA
ATOM      2  C   LIG    1        0.944  -1.748  -1.648  0.00  0.00    +0.350 C 
ENDROOT
BRANCH   2   3
ATOM      3  C   LIG    1        0.532  -2.772  -0.662  0.00  0.00    -0.190 A 
ATOM      4  C   LIG    1        1.144  -2.826   0.590  0.00  0.00    +0.090 A 
ATOM      5  C   LIG    1        0.751  -3.779   1.507  0.00  0.00    +0.020 A 
ATOM      6  C   LIG    1       -0.240  -4.688   1.182  0.00  0.00    +0.050 A 
ATOM      7  C   LIG    1       -0.847  -4.644  -0.060  0.00  0.00    +0.010 A 
ATOM      8  C   LIG    1       -0.467  -3.691  -0.983  0.00  0.00    +0.090 A 
ENDBRANCH   2   3
BRANCH   1   9
ATOM      9  S   LIG    1       -0.105  -0.029  -0.052  0.00  0.00    +2.640 S 
ATOM     10  O   LIG    1       -1.405  -0.583  -0.204  0.00  0.00    -0.960 OA
ATOM     11  O   LIG    1        0.727  -0.294   1.069  0.00  0.00    -0.950 OA
BRANCH   9  18
ATOM     12  C   LIG    1        0.812   2.547  -0.037  0.00  0.00    +0.250 A 
ATOM     13  C   LIG    1        0.657   3.924  -0.095  0.00  0.00    -0.070 A 
ATOM     14  C   LIG    1       -0.603   4.470  -0.241  0.00  0.00    +0.160 A 
ATOM     15  C   LIG    1       -1.710   3.645  -0.331  0.00  0.00    -0.150 A 
ATOM     16  C   LIG    1       -1.556   2.271  -0.278  0.00  0.00    +0.200 A 
ATOM     17 BR   LIG    1       -3.434   4.396  -0.532  0.00  0.00    -0.030 Br
ATOM     18  C   LIG    1       -0.299   1.721  -0.126  0.00  0.00    -0.680 A 
BRANCH  12  19
ATOM     19  O   LIG    1        2.052   2.007   0.107  0.00  0.00    -0.300 OA
BRANCH  19  21
ATOM     20  C   LIG    1        4.453   2.131   0.350  0.00  0.00    +0.070 C 
ATOM     21  C   LIG    1        3.150   2.917   0.192  0.00  0.00    +0.190 C 
ENDBRANCH  19  21
ENDBRANCH  12  19
ENDBRANCH   9  18
ENDBRANCH   1   9
BRANCH   2  22
ATOM     22  S   LIG    1        1.689  -2.238  -3.168  0.00  0.00    +0.120 S 
BRANCH  22  23
ATOM     23  C   LIG    1        2.095  -0.657  -3.833  0.00  0.00    -0.140 A 
ATOM     24  C   LIG    1        1.162   0.041  -4.588  0.00  0.00    +0.100 A 
ATOM     25  C   LIG    1        1.482   1.281  -5.104  0.00  0.00    +0.020 A 
ATOM     26  C   LIG    1        2.735   1.824  -4.878  0.00  0.00    -0.000 A 
ATOM     27  C   LIG    1        3.669   1.128  -4.130  0.00  0.00    +0.020 A 
ATOM     28 CL   LIG    1        3.136   3.381  -5.534  0.00  0.00    -0.060 Cl
ATOM     29  C   LIG    1        3.352  -0.110  -3.607  0.00  0.00    +0.100 A 
ENDBRANCH  22  23
ENDBRANCH   2  22
TORSDOF 7
