REMARK  Name = ZINCvU00000004Ui.0
REMARK                            x       y       z     vdW  Elec       q    Type
REMARK                         _______ _______ _______ _____ _____    ______ ____
ROOT
ATOM      1  S   LIG    1       -1.778   2.386   1.351  0.00  0.00    +0.020 S 
ENDROOT
BRANCH   1   3
ATOM      2  N   LIG    1       -3.957   3.806   2.381  0.00  0.00    -0.460 N 
ATOM      3  C   LIG    1       -3.265   3.330   1.304  0.00  0.00    +0.160 A 
ATOM      4  N   LIG    1       -3.912   3.711   0.226  0.00  0.00    -0.290 NA
ATOM      5  N   LIG    1       -4.959   4.381   0.553  0.00  0.00    -0.270 NA
ATOM      6  C   LIG    1       -5.039   4.477   1.860  0.00  0.00    +0.240 A 
BRANCH   6   7
ATOM      7  C   LIG    1       -6.094   5.173   2.627  0.00  0.00    -0.060 A 
ATOM      8  C   LIG    1       -7.317   5.471   2.023  0.00  0.00    +0.110 A 
ATOM      9  C   LIG    1       -8.300   6.116   2.743  0.00  0.00    -0.070 A 
ATOM     10  C   LIG    1       -8.070   6.479   4.064  0.00  0.00    +0.150 A 
ATOM     11  C   LIG    1       -6.853   6.190   4.666  0.00  0.00    -0.010 A 
ATOM     12  C   LIG    1       -5.867   5.541   3.954  0.00  0.00    +0.060 A 
BRANCH  10  13
ATOM     13  O   LIG    1       -9.040   7.119   4.768  0.00  0.00    -0.310 OA
ATOM     14  C   LIG    1      -10.268   7.386   4.088  0.00  0.00    +0.240 C 
ENDBRANCH  10  13
ENDBRANCH   6   7
BRANCH   2  16
ATOM     15  C   LIG    1       -2.652   4.744   4.225  0.00  0.00    +0.050 C 
ATOM     16  C   LIG    1       -3.618   3.638   3.796  0.00  0.00    +0.300 C 
ENDBRANCH   2  16
ENDBRANCH   1   3
BRANCH   1  17
ATOM     17  C   LIG    1       -1.499   2.149  -0.422  0.00  0.00    +0.210 C 
BRANCH  17  18
ATOM     18  C   LIG    1       -0.243   1.344  -0.630  0.00  0.00    +0.070 A 
ATOM     19  C   LIG    1        0.962   1.906  -0.767  0.00  0.00    -0.040 A 
ATOM     20  S   LIG    1        2.140   0.616  -0.995  0.00  0.00    +0.180 S 
ATOM     21  C   LIG    1        0.895  -0.552  -0.883  0.00  0.00    +0.030 A 
ATOM     22  N   LIG    1       -0.242   0.028  -0.697  0.00  0.00    -0.430 NA
BRANCH  21  23
ATOM     23  C   LIG    1        1.098  -2.041  -0.987  0.00  0.00    +0.330 C 
BRANCH  23  24
ATOM     24  O   LIG    1        0.979  -2.444  -2.353  0.00  0.00    -0.300 OA
BRANCH  24  25
ATOM     25  C   LIG    1        1.136  -3.767  -2.622  0.00  0.00    +0.140 A 
ATOM     26  C   LIG    1        1.405  -4.658  -1.593  0.00  0.00    -0.060 A 
ATOM     27  C   LIG    1        1.560  -6.003  -1.868  0.00  0.00    +0.070 A 
ATOM     28  C   LIG    1        1.456  -6.460  -3.169  0.00  0.00    -0.070 A 
ATOM     29  C   LIG    1        1.193  -5.573  -4.197  0.00  0.00    +0.070 A 
ATOM     30 CL   LIG    1        1.657  -8.150  -3.513  0.00  0.00    -0.070 Cl
ATOM     31  C   LIG    1        1.032  -4.228  -3.926  0.00  0.00    +0.000 A 
ENDBRANCH  24  25
ENDBRANCH  23  24
ENDBRANCH  21  23
ENDBRANCH  17  18
ENDBRANCH   1  17
TORSDOF 9
