REMARK  Name = ZINCqH00000372io.0
REMARK                            x       y       z     vdW  Elec       q    Type
REMARK                         _______ _______ _______ _____ _____    ______ ____
ROOT
ATOM      1  C   LIG    1        1.086   4.121   1.444  0.00  0.00    +0.100 C 
ATOM      2  C   LIG    1        1.151   3.592   0.010  0.00  0.00    +0.170 C 
ATOM      3  N   LIG    1        0.018   4.099  -0.784  0.00  0.00    -0.720 N 
ATOM      4  H   LIG    1       -0.924   3.942  -0.616  0.00  0.00    +0.440 HD
ATOM      5  C   LIG    1        0.545   4.824  -1.788  0.00  0.00    +0.710 C 
ATOM      6  N   LIG    1        1.883   4.853  -1.749  0.00  0.00    -0.570 N 
ATOM      7  O   LIG    1       -0.118   5.388  -2.635  0.00  0.00    -0.540 OA
ATOM      8  C   LIG    1        2.365   4.146  -0.708  0.00  0.00    +0.540 C 
ATOM      9  O   LIG    1        3.529   3.986  -0.408  0.00  0.00    -0.440 OA
ENDROOT
BRANCH   2  10
ATOM     10  C   LIG    1        1.171   2.086   0.002  0.00  0.00    -0.100 A 
ATOM     11  C   LIG    1       -0.017   1.378   0.010  0.00  0.00    +0.020 A 
ATOM     12  C   LIG    1        0.002  -0.004   0.002  0.00  0.00    +0.010 A 
ATOM     13  C   LIG    1        1.208  -0.679  -0.014  0.00  0.00    +0.020 A 
ATOM     14  C   LIG    1        2.396   0.029  -0.021  0.00  0.00    +0.020 A 
ATOM     15  C   LIG    1        2.377   1.411  -0.014  0.00  0.00    +0.030 A 
ENDBRANCH   2  10
BRANCH   6  16
ATOM     16  C   LIG    1        2.718   5.566  -2.718  0.00  0.00    +0.440 C 
BRANCH  16  17
ATOM     17  C   LIG    1        3.054   4.646  -3.864  0.00  0.00    +0.040 A 
ATOM     18  C   LIG    1        2.337   4.628  -4.993  0.00  0.00    -0.030 A 
ATOM     19  S   LIG    1        3.044   3.429  -6.075  0.00  0.00    +0.100 S 
ATOM     20  C   LIG    1        4.267   3.062  -4.862  0.00  0.00    +0.120 A 
ATOM     21  N   LIG    1        4.070   3.816  -3.818  0.00  0.00    -0.440 NA
BRANCH  20  22
ATOM     22  C   LIG    1        5.348   2.064  -5.007  0.00  0.00    -0.030 A 
ATOM     23  C   LIG    1        6.265   1.868  -3.974  0.00  0.00    +0.070 A 
ATOM     24  C   LIG    1        7.269   0.932  -4.114  0.00  0.00    +0.010 A 
ATOM     25  C   LIG    1        7.373   0.195  -5.280  0.00  0.00    +0.030 A 
ATOM     26  C   LIG    1        6.471   0.388  -6.311  0.00  0.00    +0.010 A 
ATOM     27  C   LIG    1        5.460   1.318  -6.181  0.00  0.00    +0.020 A 
ENDBRANCH  20  22
ENDBRANCH  16  17
ENDBRANCH   6  16
TORSDOF 4
