REMARK  Name = ZINCrH000004tWTC.0
REMARK                            x       y       z     vdW  Elec       q    Type
REMARK                         _______ _______ _______ _____ _____    ______ ____
ROOT
ATOM      1  C   LIG    1        1.040   5.894   3.067  0.00  0.00    +0.220 C 
ATOM      2  C   LIG    1       -0.162   5.069   3.538  0.00  0.00    +0.010 C 
ATOM      3  C   LIG    1       -1.418   5.546   2.806  0.00  0.00    +0.210 C 
ATOM      4  O   LIG    1       -1.610   6.941   3.051  0.00  0.00    -0.380 OA
ATOM      5  C   LIG    1       -0.539   7.767   2.589  0.00  0.00    +0.210 C 
ATOM      6  C   LIG    1        0.752   7.379   3.313  0.00  0.00    +0.020 C 
ENDROOT
BRANCH   1   7
ATOM      7  C   LIG    1        2.268   5.484   3.838  0.00  0.00    -0.080 A 
ATOM      8  C   LIG    1        2.166   5.146   5.174  0.00  0.00    +0.050 A 
ATOM      9  C   LIG    1        3.293   4.770   5.880  0.00  0.00    +0.020 A 
ATOM     10  C   LIG    1        4.523   4.732   5.250  0.00  0.00    +0.070 A 
ATOM     11  C   LIG    1        4.625   5.071   3.914  0.00  0.00    -0.180 A 
ATOM     12  C   LIG    1        3.498   5.441   3.206  0.00  0.00    +0.080 A 
BRANCH  11  13
ATOM     13  C   LIG    1        5.966   5.030   3.227  0.00  0.00    +0.510 C 
ATOM     14  F   LIG    1        6.281   6.304   2.742  0.00  0.00    -0.180 F 
ATOM     15  F   LIG    1        5.917   4.124   2.162  0.00  0.00    -0.180 F 
ATOM     16  F   LIG    1        6.945   4.623   4.140  0.00  0.00    -0.180 F 
ENDBRANCH  11  13
ENDBRANCH   1   7
BRANCH   1  19
ATOM     17  O   LIG    1        1.600   3.499   1.960  0.00  0.00    -0.500 OA
ATOM     18  C   LIG    1        1.486   4.420   1.179  0.00  0.00    +0.510 C 
ATOM     19  N   LIG    1        1.259   5.667   1.637  0.00  0.00    -0.730 N 
ATOM     20  H   LIG    1        1.242   6.415   1.019  0.00  0.00    +0.400 HD
BRANCH  18  21
ATOM     21  C   LIG    1        1.597   4.170  -0.302  0.00  0.00    +0.120 C 
BRANCH  21  22
ATOM     22  C   LIG    1        1.849   2.704  -0.547  0.00  0.00    -0.050 A 
ATOM     23  C   LIG    1        3.145   2.226  -0.603  0.00  0.00    +0.010 A 
ATOM     24  C   LIG    1        3.379   0.882  -0.827  0.00  0.00    +0.030 A 
ATOM     25  C   LIG    1        2.319   0.013  -0.995  0.00  0.00    -0.010 A 
ATOM     26  C   LIG    1        1.017   0.490  -0.939  0.00  0.00    +0.110 A 
ATOM     27  C   LIG    1        0.784   1.839  -0.714  0.00  0.00    +0.000 A 
BRANCH  26  28
ATOM     28  O   LIG    1       -0.028  -0.362  -1.105  0.00  0.00    -0.500 OA
ATOM     29  H   LIG    1       -0.313  -0.461  -2.023  0.00  0.00    +0.390 HD
ENDBRANCH  26  28
ENDBRANCH  21  22
ENDBRANCH  18  21
ENDBRANCH   1  19
TORSDOF 6
