REMARK  Name = ZINCrD00000724XT.0
REMARK                            x       y       z     vdW  Elec       q    Type
REMARK                         _______ _______ _______ _____ _____    ______ ____
ROOT
ATOM      1  N   LIG    1        0.059  -4.174  -0.021  0.00  0.00    -0.680 N 
ATOM      2  H   LIG    1       -0.770  -4.670   0.063  0.00  0.00    +0.410 HD
ATOM      3  C   LIG    1        1.229  -4.831  -0.138  0.00  0.00    +0.700 C 
ATOM      4  N   LIG    1        1.240  -6.175  -0.246  0.00  0.00    -0.730 N 
ATOM      5  H   LIG    1        0.405  -6.668  -0.240  0.00  0.00    +0.400 HD
ATOM      6  O   LIG    1        2.276  -4.213  -0.145  0.00  0.00    -0.550 OA
ENDROOT
BRANCH   1  10
ATOM      7  C   LIG    1       -0.001  -0.004  -0.020  0.00  0.00    +0.120 A 
ATOM      8  C   LIG    1       -0.921  -0.711   0.740  0.00  0.00    -0.060 A 
ATOM      9  C   LIG    1       -0.905  -2.091   0.736  0.00  0.00    +0.020 A 
ATOM     10  C   LIG    1        0.039  -2.772  -0.020  0.00  0.00    +0.130 A 
ATOM     11  C   LIG    1        0.963  -2.065  -0.777  0.00  0.00    +0.060 A 
ATOM     12  C   LIG    1        0.943  -0.684  -0.776  0.00  0.00    +0.000 A 
BRANCH   7  13
ATOM     13  O   LIG    1       -0.020   1.356  -0.020  0.00  0.00    -0.320 OA
BRANCH  13  15
ATOM     14  C   LIG    1       -0.885   3.509   0.655  0.00  0.00    +0.070 C 
ATOM     15  C   LIG    1       -1.019   1.990   0.781  0.00  0.00    +0.170 C 
ENDBRANCH  13  15
ENDBRANCH   7  13
ENDBRANCH   1  10
BRANCH   4  16
ATOM     16  C   LIG    1        2.512  -6.889  -0.373  0.00  0.00    +0.260 C 
ATOM     17  C   LIG    1        2.289  -8.285  -1.000  0.00  0.00    +0.060 C 
ATOM     18  C   LIG    1        2.151  -9.175   0.255  0.00  0.00    +0.260 C 
ATOM     19  N   LIG    1        2.881  -8.472   1.316  0.00  0.00    -0.610 N 
ATOM     20  C   LIG    1        3.093  -7.184   0.992  0.00  0.00    +0.500 C 
ATOM     21  O   LIG    1        3.665  -6.377   1.693  0.00  0.00    -0.500 OA
BRANCH  19  22
ATOM     22  C   LIG    1        3.323  -9.093   2.567  0.00  0.00    +0.350 C 
BRANCH  22  23
ATOM     23  C   LIG    1        2.242  -8.950   3.608  0.00  0.00    -0.120 A 
ATOM     24  C   LIG    1        2.223  -7.845   4.439  0.00  0.00    +0.030 A 
ATOM     25  C   LIG    1        1.230  -7.712   5.390  0.00  0.00    +0.000 A 
ATOM     26  C   LIG    1        0.259  -8.688   5.517  0.00  0.00    -0.080 A 
ATOM     27  C   LIG    1        0.280  -9.796   4.689  0.00  0.00    -0.010 A 
ATOM     28  C   LIG    1       -0.822  -8.546   6.558  0.00  0.00    +0.090 C 
ATOM     29  C   LIG    1        1.272  -9.927   3.735  0.00  0.00    +0.020 A 
ENDBRANCH  22  23
ENDBRANCH  19  22
ENDBRANCH   4  16
TORSDOF 6
