REMARK  Name = ZINCrH000004sSN1.0
REMARK                            x       y       z     vdW  Elec       q    Type
REMARK                         _______ _______ _______ _____ _____    ______ ____
ROOT
ATOM      1  C   LIG    1        4.263  -0.066  -0.037  0.00  0.00    +0.240 A 
ATOM      2  N   LIG    1        4.705  -1.285  -0.043  0.00  0.00    -0.490 NA
ATOM      3  C   LIG    1        6.015  -1.445  -0.060  0.00  0.00    +0.110 A 
ATOM      4  C   LIG    1        6.713  -0.307  -0.060  0.00  0.00    -0.130 A 
ATOM      5  S   LIG    1        5.571   1.034  -0.043  0.00  0.00    +0.250 S 
ENDROOT
BRANCH   1   7
ATOM      6  C   LIG    1        2.572   1.596  -0.013  0.00  0.00    +0.600 C 
ATOM      7  N   LIG    1        2.921   0.294  -0.023  0.00  0.00    -0.620 N 
ATOM      8  H   LIG    1        2.235  -0.392  -0.021  0.00  0.00    +0.420 HD
ATOM      9  O   LIG    1        3.432   2.455  -0.017  0.00  0.00    -0.510 OA
BRANCH   6  12
ATOM     10  C   LIG    1        1.433   4.518   0.013  0.00  0.00    +0.190 C 
ATOM     11  C   LIG    1        0.634   3.240   0.013  0.00  0.00    +0.100 A 
ATOM     12  C   LIG    1        1.149   1.977   0.002  0.00  0.00    -0.260 A 
ATOM     13  C   LIG    1       -0.013   1.076   0.008  0.00  0.00    -0.030 A 
ATOM     14  C   LIG    1       -1.095   1.869   0.017  0.00  0.00    +0.180 A 
ATOM     15  O   LIG    1       -0.700   3.152   0.026  0.00  0.00    -0.170 OA
ENDBRANCH   6  12
ENDBRANCH   1   7
BRANCH   3  16
ATOM     16  C   LIG    1        6.669  -2.802  -0.072  0.00  0.00    +0.160 C 
BRANCH  16  17
ATOM     17  C   LIG    1        6.163  -3.615   1.091  0.00  0.00    +0.520 C 
ATOM     18  N   LIG    1        6.613  -4.870   1.283  0.00  0.00    -0.730 N 
ATOM     19  H   LIG    1        7.263  -5.251   0.672  0.00  0.00    +0.400 HD
ATOM     20  O   LIG    1        5.351  -3.138   1.856  0.00  0.00    -0.510 OA
BRANCH  18  21
ATOM     21  C   LIG    1        6.121  -5.660   2.415  0.00  0.00    +0.300 C 
BRANCH  21  22
ATOM     22  C   LIG    1        6.785  -7.038   2.402  0.00  0.00    +0.070 C 
BRANCH  22  23
ATOM     23  S   LIG    1        6.176  -8.016   3.803  0.00  0.00    -0.090 S 
BRANCH  23  24
ATOM     24  C   LIG    1        7.037  -9.543   3.626  0.00  0.00    -0.090 A 
ATOM     25  C   LIG    1        7.924  -9.723   2.571  0.00  0.00    -0.010 A 
ATOM     26  C   LIG    1        8.601 -10.920   2.438  0.00  0.00    +0.030 A 
ATOM     27  C   LIG    1        8.390 -11.941   3.347  0.00  0.00    +0.010 A 
ATOM     28  C   LIG    1        7.505 -11.766   4.394  0.00  0.00    +0.030 A 
ATOM     29  C   LIG    1        6.828 -10.571   4.537  0.00  0.00    +0.030 A 
ENDBRANCH  23  24
ENDBRANCH  22  23
ENDBRANCH  21  22
ENDBRANCH  18  21
ENDBRANCH  16  17
ENDBRANCH   3  16
TORSDOF 8
