REMARK  Name = ZINCpe000000X6WF.0
REMARK                            x       y       z     vdW  Elec       q    Type
REMARK                         _______ _______ _______ _____ _____    ______ ____
ROOT
ATOM      1  C   LIG    1        3.514  -6.318  -0.067  0.00  0.00    +0.500 C 
ATOM      2  N   LIG    1        3.491  -4.971  -0.059  0.00  0.00    -0.730 N 
ATOM      3  H   LIG    1        4.323  -4.472  -0.064  0.00  0.00    +0.400 HD
ATOM      4  O   LIG    1        2.474  -6.942  -0.061  0.00  0.00    -0.510 OA
ENDROOT
BRANCH   1   5
ATOM      5  C   LIG    1        4.831  -7.050  -0.084  0.00  0.00    +0.340 C 
BRANCH   5  15
ATOM      6  C   LIG    1        5.630 -11.376   1.010  0.00  0.00    +0.060 C 
ATOM      7  C   LIG    1        4.273 -10.670   1.045  0.00  0.00    +0.230 C 
ATOM      8  O   LIG    1        3.520 -11.027  -0.117  0.00  0.00    -0.300 OA
ATOM      9  C   LIG    1        3.913 -10.473  -1.295  0.00  0.00    +0.090 A 
ATOM     10  C   LIG    1        3.778 -11.169  -2.482  0.00  0.00    +0.030 A 
ATOM     11  C   LIG    1        4.186 -10.590  -3.671  0.00  0.00    +0.030 A 
ATOM     12  C   LIG    1        4.726  -9.318  -3.677  0.00  0.00    +0.020 A 
ATOM     13  C   LIG    1        4.863  -8.615  -2.493  0.00  0.00    +0.000 A 
ATOM     14  C   LIG    1        4.458  -9.189  -1.300  0.00  0.00    +0.100 A 
ATOM     15  N   LIG    1        4.588  -8.494  -0.089  0.00  0.00    -0.530 N 
ATOM     16  C   LIG    1        4.490  -9.178   1.071  0.00  0.00    +0.500 C 
ATOM     17  O   LIG    1        4.574  -8.594   2.131  0.00  0.00    -0.500 OA
ENDBRANCH   5  15
ENDBRANCH   1   5
BRANCH   2  18
ATOM     18  C   LIG    1        2.211  -4.260  -0.043  0.00  0.00    +0.270 C 
BRANCH  18  19
ATOM     19  C   LIG    1        2.465  -2.751  -0.037  0.00  0.00    +0.280 C 
BRANCH  19  20
ATOM     20  N   LIG    1        1.184  -2.040  -0.021  0.00  0.00    -0.710 N 
ATOM     21  H   LIG    1        0.352  -2.539  -0.016  0.00  0.00    +0.410 HD
BRANCH  20  22
ATOM     22  C   LIG    1        1.161  -0.650  -0.013  0.00  0.00    +0.360 A 
ATOM     23  C   LIG    1        2.354   0.069  -0.020  0.00  0.00    +0.150 A 
ATOM     24  N   LIG    1        2.328   1.388  -0.013  0.00  0.00    -0.400 NA
ATOM     25  C   LIG    1        1.170   2.027   0.002  0.00  0.00    +0.150 A 
ATOM     26  C   LIG    1       -0.016   1.318   0.009  0.00  0.00    +0.280 A 
ATOM     27  N   LIG    1        0.002  -0.004   0.002  0.00  0.00    -0.500 NA
ENDBRANCH  20  22
ENDBRANCH  19  20
ENDBRANCH  18  19
ENDBRANCH   2  18
TORSDOF 6
