REMARK  Name = ZINCpe00000MJLUf.0
REMARK                            x       y       z     vdW  Elec       q    Type
REMARK                         _______ _______ _______ _____ _____    ______ ____
ROOT
ATOM      1  C   LIG    1       -3.517   1.905   2.449  0.00  0.00    +0.300 C 
ENDROOT
BRANCH   1   2
ATOM      2  C   LIG    1       -2.607   3.046   1.990  0.00  0.00    -0.070 C 
ATOM      3  C   LIG    1       -2.344   2.992   0.471  0.00  0.00    +0.020 C 
ATOM      4  C   LIG    1       -0.895   3.516   0.315  0.00  0.00    +0.020 C 
ATOM      5  C   LIG    1       -0.177   2.905   1.544  0.00  0.00    +0.020 C 
ATOM      6  C   LIG    1       -3.173   4.436   2.349  0.00  0.00    +0.200 C 
ATOM      7  N   LIG    1       -2.464   4.817   3.603  0.00  0.00    -0.450 N 
ATOM      8  C   LIG    1       -1.070   4.352   3.389  0.00  0.00    +0.210 C 
ATOM      9  C   LIG    1       -1.217   2.990   2.678  0.00  0.00    +0.020 C 
BRANCH   7  10
ATOM     10  C   LIG    1       -2.505   6.187   3.797  0.00  0.00    +0.480 A 
ATOM     11  N   LIG    1       -3.001   6.665   4.929  0.00  0.00    -0.490 NA
ATOM     12  C   LIG    1       -3.050   7.969   5.149  0.00  0.00    +0.330 A 
ATOM     13  C   LIG    1       -2.586   8.837   4.172  0.00  0.00    -0.080 A 
ATOM     14  C   LIG    1       -2.079   8.303   2.998  0.00  0.00    +0.330 A 
ATOM     15  N   LIG    1       -2.054   6.989   2.844  0.00  0.00    -0.540 NA
ENDBRANCH   7  10
ENDBRANCH   1   2
BRANCH   1  17
ATOM     16  C   LIG    1       -5.780   1.107   2.025  0.00  0.00    +0.590 C 
ATOM     17  N   LIG    1       -4.813   2.011   1.774  0.00  0.00    -0.710 N 
ATOM     18  H   LIG    1       -4.974   2.733   1.145  0.00  0.00    +0.410 HD
ATOM     19  O   LIG    1       -5.577   0.203   2.812  0.00  0.00    -0.540 OA
BRANCH  16  25
ATOM     20  C   LIG    1       -8.136   0.347   1.689  0.00  0.00    +0.410 A 
ATOM     21  N   LIG    1       -9.306   0.453   1.070  0.00  0.00    -0.500 NA
ATOM     22  C   LIG    1       -9.479   1.370   0.136  0.00  0.00    +0.320 A 
ATOM     23  C   LIG    1       -8.442   2.226  -0.205  0.00  0.00    +0.150 A 
ATOM     24  N   LIG    1       -7.277   2.137   0.405  0.00  0.00    -0.380 NA
ATOM     25  C   LIG    1       -7.087   1.215   1.344  0.00  0.00    -0.050 A 
BRANCH  20  26
ATOM     26  N   LIG    1       -7.951  -0.612   2.668  0.00  0.00    -0.820 N 
ATOM     27  H   LIG    1       -8.513  -1.403   2.684  0.00  0.00    +0.400 HD
ATOM     28  H   LIG    1       -7.260  -0.494   3.338  0.00  0.00    +0.430 HD
ENDBRANCH  20  26
ENDBRANCH  16  25
ENDBRANCH   1  17
TORSDOF 5
