REMARK  Name = ZINCrH000004mPrs.0
REMARK                            x       y       z     vdW  Elec       q    Type
REMARK                         _______ _______ _______ _____ _____    ______ ____
ROOT
ATOM      1  N   LIG    1        0.002  -0.004   0.002  0.00  0.00    -0.660 N 
ATOM      2  H   LIG    1        0.852  -0.470   0.039  0.00  0.00    +0.410 HD
ATOM      3  C   LIG    1       -0.026   1.334  -0.158  0.00  0.00    +0.500 C 
ATOM      4  O   LIG    1       -1.087   1.905  -0.303  0.00  0.00    -0.490 OA
ENDROOT
BRANCH   1   8
ATOM      5  C   LIG    1       -3.569  -2.136   0.343  0.00  0.00    +0.090 A 
ATOM      6  C   LIG    1       -3.478  -0.850   0.848  0.00  0.00    -0.010 A 
ATOM      7  C   LIG    1       -2.295  -0.143   0.735  0.00  0.00    +0.030 A 
ATOM      8  C   LIG    1       -1.196  -0.722   0.115  0.00  0.00    +0.140 A 
ATOM      9  C   LIG    1       -1.285  -2.009  -0.397  0.00  0.00    -0.060 A 
ATOM     10  C   LIG    1       -2.468  -2.719  -0.279  0.00  0.00    +0.120 A 
BRANCH   5  12
ATOM     11  C   LIG    1       -5.822  -2.171   1.104  0.00  0.00    +0.240 C 
ATOM     12  O   LIG    1       -4.734  -2.830   0.455  0.00  0.00    -0.310 OA
ENDBRANCH   5  12
BRANCH  10  13
ATOM     13  O   LIG    1       -2.556  -3.982  -0.775  0.00  0.00    -0.300 OA
ATOM     14  C   LIG    1       -1.387  -4.517  -1.400  0.00  0.00    +0.230 C 
ENDBRANCH  10  13
ENDBRANCH   1   8
BRANCH   3  15
ATOM     15  C   LIG    1        1.260   2.119  -0.164  0.00  0.00    +0.350 C 
BRANCH  15  16
ATOM     16  N   LIG    1        0.963   3.542  -0.352  0.00  0.00    -0.450 N 
ATOM     17  C   LIG    1        0.876   4.207  -1.559  0.00  0.00    +0.080 A 
ATOM     18  C   LIG    1        1.008   3.822  -2.886  0.00  0.00    +0.020 A 
ATOM     19  C   LIG    1        0.850   4.758  -3.887  0.00  0.00    +0.060 A 
ATOM     20  C   LIG    1        0.554   6.077  -3.576  0.00  0.00    +0.010 A 
ATOM     21  C   LIG    1        0.414   6.472  -2.275  0.00  0.00    +0.090 A 
ATOM     22  C   LIG    1        0.571   5.542  -1.245  0.00  0.00    +0.040 A 
ATOM     23  N   LIG    1        0.496   5.623   0.109  0.00  0.00    -0.420 NA
ATOM     24  C   LIG    1        0.726   4.453   0.630  0.00  0.00    +0.190 A 
BRANCH  24  25
ATOM     25  C   LIG    1        0.729   4.151   2.106  0.00  0.00    +0.560 C 
ATOM     26  F   LIG    1        2.047   3.998   2.548  0.00  0.00    -0.160 F 
ATOM     27  F   LIG    1        0.018   2.969   2.342  0.00  0.00    -0.160 F 
ATOM     28  F   LIG    1        0.124   5.205   2.799  0.00  0.00    -0.140 F 
ENDBRANCH  24  25
ENDBRANCH  15  16
ENDBRANCH   3  15
TORSDOF 6
