REMARK  Name = ZINCqH0000005qqO.0
REMARK                            x       y       z     vdW  Elec       q    Type
REMARK                         _______ _______ _______ _____ _____    ______ ____
ROOT
ATOM      1  C   LIG    1       -0.018   1.503   0.010  0.00  0.00    +0.070 A 
ATOM      2  C   LIG    1       -1.161   2.197   0.019  0.00  0.00    -0.040 A 
ATOM      3  S   LIG    1       -0.762   3.914   0.030  0.00  0.00    +0.110 S 
ATOM      4  C   LIG    1        0.953   3.511   0.012  0.00  0.00    +0.100 A 
ATOM      5  N   LIG    1        1.085   2.215   0.004  0.00  0.00    -0.450 NA
ENDROOT
BRANCH   4   6
ATOM      6  C   LIG    1        2.064   4.486   0.007  0.00  0.00    +0.010 A 
ATOM      7  C   LIG    1        3.387   4.042  -0.002  0.00  0.00    +0.080 A 
ATOM      8  C   LIG    1        4.419   4.957  -0.012  0.00  0.00    +0.070 A 
ATOM      9  C   LIG    1        4.145   6.313  -0.002  0.00  0.00    -0.170 A 
ATOM     10  C   LIG    1        2.836   6.761   0.012  0.00  0.00    +0.080 A 
ATOM     11  C   LIG    1        1.794   5.856   0.017  0.00  0.00    +0.040 A 
BRANCH   9  12
ATOM     12  C   LIG    1        5.277   7.308  -0.008  0.00  0.00    +0.510 C 
ATOM     13  F   LIG    1        4.868   8.477  -0.658  0.00  0.00    -0.170 F 
ATOM     14  F   LIG    1        6.375   6.761  -0.680  0.00  0.00    -0.170 F 
ATOM     15  F   LIG    1        5.640   7.609   1.309  0.00  0.00    -0.170 F 
ENDBRANCH   9  12
ENDBRANCH   4   6
BRANCH   1  16
ATOM     16  C   LIG    1        0.002  -0.004   0.002  0.00  0.00    +0.290 C 
BRANCH  16  20
ATOM     17  C   LIG    1        1.408  -1.670  -3.676  0.00  0.00    -0.020 C 
ATOM     18  C   LIG    1        0.346  -2.419  -2.866  0.00  0.00    +0.060 C 
ATOM     19  C   LIG    1        0.377  -1.929  -1.417  0.00  0.00    +0.180 C 
ATOM     20  N   LIG    1        0.117  -0.485  -1.381  0.00  0.00    -0.530 NA
ATOM     21  C   LIG    1        1.150   0.259  -2.113  0.00  0.00    +0.180 C 
ATOM     22  C   LIG    1        1.142  -0.165  -3.583  0.00  0.00    +0.040 C 
BRANCH  17  26
ATOM     23  C   LIG    1        2.127  -2.000  -7.422  0.00  0.00    +0.290 C 
ATOM     24  N   LIG    1        2.190  -1.576  -6.021  0.00  0.00    -0.740 N 
ATOM     25  H   LIG    1        2.842  -0.913  -5.744  0.00  0.00    +0.400 HD
ATOM     26  C   LIG    1        1.343  -2.107  -5.117  0.00  0.00    +0.520 C 
ATOM     27  O   LIG    1        0.527  -2.935  -5.464  0.00  0.00    -0.540 OA
ENDBRANCH  17  26
ENDBRANCH  16  20
ENDBRANCH   1  16
TORSDOF 5
