REMARK  Name = ZINCvU00000008WY.0
REMARK                            x       y       z     vdW  Elec       q    Type
REMARK                         _______ _______ _______ _____ _____    ______ ____
ROOT
ATOM      1  C   LIG    1       -0.200   0.769   2.451  0.00  0.00    +0.510 C 
ATOM      2  O   LIG    1       -0.477  -0.359   2.804  0.00  0.00    -0.500 OA
ENDROOT
BRANCH   1   3
ATOM      3  C   LIG    1       -0.015   1.834   3.459  0.00  0.00    -0.110 A 
ATOM      4  C   LIG    1        0.309   3.131   3.056  0.00  0.00    +0.070 A 
ATOM      5  C   LIG    1        0.475   4.125   3.999  0.00  0.00    +0.030 A 
ATOM      6  C   LIG    1        0.334   3.839   5.343  0.00  0.00    +0.040 A 
ATOM      7  C   LIG    1        0.017   2.550   5.755  0.00  0.00    +0.150 A 
ATOM      8  C   LIG    1       -0.159   1.546   4.816  0.00  0.00    +0.090 A 
BRANCH   7   9
ATOM      9  N   LIG    1       -0.126   2.266   7.119  0.00  0.00    -0.650 N 
ATOM     10  H   LIG    1       -0.486   2.938   7.719  0.00  0.00    +0.420 HD
ATOM     11  C   LIG    1        0.237   1.060   7.597  0.00  0.00    +0.650 C 
ATOM     12  O   LIG    1        0.771   0.251   6.864  0.00  0.00    -0.540 OA
BRANCH  11  13
ATOM     13  O   LIG    1        0.007   0.750   8.887  0.00  0.00    -0.360 OA
BRANCH  13  14
ATOM     14  C   LIG    1        0.424  -0.567   9.334  0.00  0.00    +0.140 C 
ATOM     15  C   LIG    1       -0.306  -1.637   8.519  0.00  0.00    +0.030 C 
ATOM     16  C   LIG    1        0.083  -0.735  10.816  0.00  0.00    +0.080 C 
ATOM     17  C   LIG    1        1.934  -0.718   9.138  0.00  0.00    +0.030 C 
ENDBRANCH  13  14
ENDBRANCH  11  13
ENDBRANCH   7   9
ENDBRANCH   1   3
BRANCH   1  18
ATOM     18  O   LIG    1       -0.061   1.050   1.141  0.00  0.00    -0.320 OA
BRANCH  18  19
ATOM     19  C   LIG    1       -0.257  -0.045   0.208  0.00  0.00    +0.180 C 
ATOM     20  C   LIG    1        1.079  -0.749  -0.039  0.00  0.00    +0.070 C 
BRANCH  19  23
ATOM     21  N   LIG    1       -1.144  -0.354  -2.080  0.00  0.00    -0.670 N 
ATOM     22  H   LIG    1       -1.134  -1.311  -1.924  0.00  0.00    +0.410 HD
ATOM     23  C   LIG    1       -0.789   0.494  -1.095  0.00  0.00    +0.520 C 
ATOM     24  O   LIG    1       -0.899   1.691  -1.256  0.00  0.00    -0.490 OA
BRANCH  21  29
ATOM     25  C   LIG    1       -2.694   1.675  -7.146  0.00  0.00    +0.090 C 
ATOM     26  C   LIG    1       -2.283   1.136  -5.801  0.00  0.00    -0.080 A 
ATOM     27  C   LIG    1       -1.239   0.234  -5.709  0.00  0.00    +0.010 A 
ATOM     28  C   LIG    1       -0.859  -0.262  -4.477  0.00  0.00    -0.080 A 
ATOM     29  C   LIG    1       -1.526   0.147  -3.330  0.00  0.00    +0.120 A 
ATOM     30  C   LIG    1       -2.578   1.049  -3.426  0.00  0.00    -0.060 A 
ATOM     31  C   LIG    1       -3.309   1.490  -2.184  0.00  0.00    +0.090 C 
ATOM     32  C   LIG    1        0.280  -1.244  -4.378  0.00  0.00    +0.090 C 
ATOM     33  C   LIG    1       -2.949   1.545  -4.660  0.00  0.00    +0.010 A 
ENDBRANCH  21  29
ENDBRANCH  19  23
ENDBRANCH  18  19
ENDBRANCH   1  18
TORSDOF 8
