REMARK  Name = ZINCrH000004tp8h.0
REMARK                            x       y       z     vdW  Elec       q    Type
REMARK                         _______ _______ _______ _____ _____    ______ ____
ROOT
ATOM      1  C   LIG    1       -3.786   2.795  -3.303  0.00  0.00    +0.370 A 
ATOM      2  N   LIG    1       -4.181   2.359  -4.474  0.00  0.00    -0.530 NA
ATOM      3  C   LIG    1       -3.298   2.087  -5.463  0.00  0.00    +0.160 A 
ATOM      4  C   LIG    1       -3.719   1.622  -6.712  0.00  0.00    +0.030 A 
ATOM      5  C   LIG    1       -2.788   1.358  -7.690  0.00  0.00    +0.070 A 
ATOM      6  C   LIG    1       -1.433   1.549  -7.453  0.00  0.00    -0.010 A 
ATOM      7  C   LIG    1       -0.992   2.006  -6.231  0.00  0.00    +0.100 A 
ATOM      8  C   LIG    1       -1.917   2.279  -5.225  0.00  0.00    -0.200 A 
ATOM      9  C   LIG    1       -1.504   2.774  -3.905  0.00  0.00    +0.560 A 
ATOM     10  O   LIG    1       -0.330   2.964  -3.642  0.00  0.00    -0.490 OA
ATOM     11  N   LIG    1       -2.474   3.008  -2.991  0.00  0.00    -0.530 N 
ENDROOT
BRANCH   1  12
ATOM     12  S   LIG    1       -5.005   3.124  -2.074  0.00  0.00    +0.000 S 
BRANCH  12  13
ATOM     13  C   LIG    1       -6.503   2.687  -2.992  0.00  0.00    +0.160 C 
BRANCH  13  19
ATOM     14  C   LIG    1       -8.183   1.851  -1.316  0.00  0.00    -0.010 A 
ATOM     15  C   LIG    1       -9.297   2.054  -0.500  0.00  0.00    +0.070 A 
ATOM     16  C   LIG    1       -9.931   3.280  -0.497  0.00  0.00    +0.030 A 
ATOM     17  C   LIG    1       -9.460   4.308  -1.294  0.00  0.00    +0.050 A 
ATOM     18  C   LIG    1       -8.352   4.115  -2.100  0.00  0.00    +0.040 A 
ATOM     19  C   LIG    1       -7.709   2.895  -2.114  0.00  0.00    -0.040 A 
BRANCH  14  21
ATOM     20  N   LIG    1       -7.001  -0.429  -1.340  0.00  0.00    -0.400 NA
ATOM     21  C   LIG    1       -7.524   0.580  -1.329  0.00  0.00    +0.240 C 
ENDBRANCH  14  21
ENDBRANCH  13  19
ENDBRANCH  12  13
ENDBRANCH   1  12
BRANCH  11  22
ATOM     22  C   LIG    1       -2.114   3.498  -1.658  0.00  0.00    +0.310 C 
BRANCH  22  23
ATOM     23  C   LIG    1       -1.880   2.309  -0.724  0.00  0.00    +0.140 C 
ATOM     24  C   LIG    1       -1.552   2.804   0.708  0.00  0.00    +0.020 C 
ATOM     25  C   LIG    1       -0.753   1.593   1.264  0.00  0.00    +0.020 C 
ATOM     26  C   LIG    1       -0.013   1.086   0.008  0.00  0.00    +0.190 C 
ATOM     27  O   LIG    1       -0.722   1.569  -1.139  0.00  0.00    -0.370 OA
ENDBRANCH  22  23
ENDBRANCH  11  22
TORSDOF 6
