REMARK  Name = ZINCqH0000000otC.0
REMARK                            x       y       z     vdW  Elec       q    Type
REMARK                         _______ _______ _______ _____ _____    ______ ____
ROOT
ATOM      1  C   LIG    1       -4.250   5.306   3.802  0.00  0.00    +0.010 C 
ATOM      2  C   LIG    1       -4.114   6.412   2.752  0.00  0.00    +0.020 C 
ATOM      3  C   LIG    1       -3.982   5.779   1.365  0.00  0.00    +0.170 C 
ATOM      4  N   LIG    1       -2.803   4.903   1.335  0.00  0.00    -0.530 NA
ATOM      5  C   LIG    1       -2.932   3.806   2.303  0.00  0.00    +0.170 C 
ATOM      6  C   LIG    1       -3.033   4.380   3.717  0.00  0.00    +0.030 C 
ENDROOT
BRANCH   1  15
ATOM      7  C   LIG    1       -7.484   7.844   4.330  0.00  0.00    +0.090 C 
ATOM      8  C   LIG    1       -6.443   6.759   4.429  0.00  0.00    +0.510 C 
ATOM      9  N   LIG    1       -5.367   6.928   5.224  0.00  0.00    -0.600 N 
ATOM     10  C   LIG    1       -5.306   8.125   6.086  0.00  0.00    +0.260 C 
ATOM     11  C   LIG    1       -4.786   7.797   7.497  0.00  0.00    +0.020 C 
ATOM     12  C   LIG    1       -5.374   6.493   7.977  0.00  0.00    +0.000 C 
ATOM     13  C   LIG    1       -4.436   5.348   7.604  0.00  0.00    +0.000 C 
ATOM     14  C   LIG    1       -4.627   4.828   6.240  0.00  0.00    +0.010 C 
ATOM     15  C   LIG    1       -4.321   5.931   5.197  0.00  0.00    +0.240 C 
ATOM     16  O   LIG    1       -6.572   5.734   3.795  0.00  0.00    -0.530 OA
ENDBRANCH   1  15
BRANCH   4  17
ATOM     17  C   LIG    1       -2.565   4.386  -0.019  0.00  0.00    +0.230 C 
BRANCH  17  18
ATOM     18  C   LIG    1       -1.224   3.700  -0.066  0.00  0.00    -0.120 A 
ATOM     19  C   LIG    1       -1.157   2.324  -0.099  0.00  0.00    +0.100 A 
ATOM     20  C   LIG    1        0.087   1.688  -0.137  0.00  0.00    -0.040 A 
ATOM     21  C   LIG    1        1.256   2.453  -0.153  0.00  0.00    +0.100 A 
ATOM     22  C   LIG    1        1.176   3.829  -0.125  0.00  0.00    -0.010 A 
ATOM     23  C   LIG    1       -0.061   4.454  -0.082  0.00  0.00    +0.160 A 
ATOM     24  F   LIG    1       -0.133   5.803  -0.054  0.00  0.00    -0.120 F 
BRANCH  20  25
ATOM     25  C   LIG    1        0.163   0.259  -0.166  0.00  0.00    +0.250 C 
ATOM     26  N   LIG    1        0.224  -0.875  -0.189  0.00  0.00    -0.410 NA
ENDBRANCH  20  25
ENDBRANCH  17  18
ENDBRANCH   4  17
TORSDOF 4
