REMARK  Name = ZINCvU0000000CRS.0
REMARK                            x       y       z     vdW  Elec       q    Type
REMARK                         _______ _______ _______ _____ _____    ______ ____
ROOT
ATOM      1  O   LIG    1       -0.747  -2.987  -5.541  0.00  0.00    -0.320 OA
ENDROOT
BRANCH   1   2
ATOM      2  C   LIG    1        0.053  -3.347  -6.557  0.00  0.00    +0.470 C 
ATOM      3  O   LIG    1        1.242  -3.140  -6.492  0.00  0.00    -0.490 OA
BRANCH   2   4
ATOM      4  C   LIG    1       -0.531  -4.008  -7.778  0.00  0.00    +0.150 C 
ATOM      5  C   LIG    1       -1.219  -5.283  -7.371  0.00  0.00    -0.160 A 
ATOM      6  C   LIG    1       -2.469  -5.221  -6.783  0.00  0.00    +0.080 A 
ATOM      7  C   LIG    1       -3.117  -6.381  -6.401  0.00  0.00    -0.010 A 
ATOM      8  C   LIG    1       -2.515  -7.609  -6.606  0.00  0.00    +0.060 A 
ATOM      9  C   LIG    1       -1.270  -7.676  -7.194  0.00  0.00    +0.000 A 
ATOM     10  C   LIG    1       -0.616  -6.512  -7.580  0.00  0.00    +0.130 A 
ATOM     11  O   LIG    1        0.607  -6.601  -8.155  0.00  0.00    -0.240 OA
ATOM     12  C   LIG    1        1.083  -5.574  -8.901  0.00  0.00    +0.130 A 
ATOM     13  C   LIG    1        2.100  -5.815  -9.817  0.00  0.00    +0.000 A 
ATOM     14  C   LIG    1        2.598  -4.783 -10.586  0.00  0.00    +0.060 A 
ATOM     15  C   LIG    1        2.086  -3.506 -10.446  0.00  0.00    -0.010 A 
ATOM     16  C   LIG    1        1.074  -3.264  -9.536  0.00  0.00    +0.070 A 
ATOM     17  C   LIG    1        0.571  -4.295  -8.763  0.00  0.00    -0.140 A 
ENDBRANCH   2   4
ENDBRANCH   1   2
BRANCH   1  18
ATOM     18  C   LIG    1       -0.115  -2.355  -4.397  0.00  0.00    +0.270 C 
BRANCH  18  21
ATOM     19  N   LIG    1       -0.805  -1.427  -2.210  0.00  0.00    -0.660 N 
ATOM     20  H   LIG    1        0.116  -1.159  -2.067  0.00  0.00    +0.410 HD
ATOM     21  C   LIG    1       -1.162  -2.024  -3.364  0.00  0.00    +0.520 C 
ATOM     22  O   LIG    1       -2.326  -2.294  -3.573  0.00  0.00    -0.490 OA
BRANCH  19  28
ATOM     23  C   LIG    1       -1.378  -1.101   0.114  0.00  0.00    -0.100 A 
ATOM     24  C   LIG    1       -2.325  -0.866   1.091  0.00  0.00    +0.030 A 
ATOM     25  C   LIG    1       -3.658  -0.729   0.746  0.00  0.00    -0.010 A 
ATOM     26  C   LIG    1       -4.045  -0.829  -0.578  0.00  0.00    +0.030 A 
ATOM     27  C   LIG    1       -3.103  -1.064  -1.560  0.00  0.00    +0.020 A 
ATOM     28  C   LIG    1       -1.764  -1.195  -1.217  0.00  0.00    +0.150 A 
BRANCH  23  29
ATOM     29  C   LIG    1        0.074  -1.248   0.491  0.00  0.00    +0.020 C 
ATOM     30  C   LIG    1        0.217  -2.346   1.547  0.00  0.00    +0.030 C 
BRANCH  29  32
ATOM     31  C   LIG    1        2.093  -0.035   1.325  0.00  0.00    +0.010 C 
ATOM     32  C   LIG    1        0.590   0.076   1.058  0.00  0.00    +0.010 C 
ENDBRANCH  29  32
ENDBRANCH  23  29
ENDBRANCH  19  28
ENDBRANCH  18  21
ENDBRANCH   1  18
TORSDOF 7
