REMARK  Name = ZINCpe000000SGO2.2
REMARK                            x       y       z     vdW  Elec       q    Type
REMARK                         _______ _______ _______ _____ _____    ______ ____
ROOT
ATOM      1  N   LIG    1       -0.766   1.593   1.183  0.00  0.00    -0.500 NA
ATOM      2  C   LIG    1       -1.197   2.963   0.823  0.00  0.00    +0.180 C 
ATOM      3  C   LIG    1       -1.265   3.028  -0.714  0.00  0.00    +0.030 C 
ATOM      4  C   LIG    1       -0.821   1.628  -1.197  0.00  0.00    +0.060 C 
ATOM      5  C   LIG    1       -0.013   1.086   0.008  0.00  0.00    +0.220 C 
ENDROOT
BRANCH   4   6
ATOM      6  C   LIG    1        0.052   1.734  -2.421  0.00  0.00    +0.210 A 
ATOM      7  C   LIG    1       -0.254   1.036  -3.535  0.00  0.00    -0.110 A 
ATOM      8  C   LIG    1        0.579   1.155  -4.674  0.00  0.00    +0.550 A 
ATOM      9  N   LIG    1        1.663   1.955  -4.619  0.00  0.00    -0.660 N 
ATOM     10  H   LIG    1        2.241   2.038  -5.393  0.00  0.00    +0.430 HD
ATOM     11  C   LIG    1        1.948   2.636  -3.493  0.00  0.00    +0.700 A 
ATOM     12  O   LIG    1        2.929   3.353  -3.459  0.00  0.00    -0.540 OA
ATOM     13  O   LIG    1        0.321   0.538  -5.691  0.00  0.00    -0.510 OA
ATOM     14  N   LIG    1        1.161   2.535  -2.406  0.00  0.00    -0.630 N 
ATOM     15  H   LIG    1        1.383   3.034  -1.605  0.00  0.00    +0.430 HD
ENDBRANCH   4   6
BRANCH   1  20
ATOM     16  N   LIG    1        0.443  -0.271   3.999  0.00  0.00    -0.590 N 
ATOM     17  C   LIG    1        0.044   0.515   5.161  0.00  0.00    +0.260 C 
ATOM     18  C   LIG    1        0.092   2.009   4.838  0.00  0.00    +0.020 C 
ATOM     19  C   LIG    1       -0.686   2.255   3.539  0.00  0.00    +0.040 C 
ATOM     20  C   LIG    1        0.079   1.602   2.386  0.00  0.00    +0.140 C 
ATOM     21  C   LIG    1        0.444   0.191   2.749  0.00  0.00    +0.530 C 
ATOM     22  O   LIG    1        0.757  -0.568   1.856  0.00  0.00    -0.540 OA
BRANCH  16  23
ATOM     23  C   LIG    1        0.868  -1.655   4.220  0.00  0.00    +0.290 C 
BRANCH  23  25
ATOM     24  C   LIG    1        2.717  -0.851   5.696  0.00  0.00    +0.030 C 
ATOM     25  C   LIG    1        2.378  -1.692   4.463  0.00  0.00    -0.080 C 
ATOM     26  C   LIG    1        3.105  -1.123   3.243  0.00  0.00    +0.030 C 
ATOM     27  C   LIG    1        2.823  -3.137   4.694  0.00  0.00    +0.040 C 
ENDBRANCH  23  25
ENDBRANCH  16  23
ENDBRANCH   1  20
TORSDOF 4
