REMARK  Name = ZINCrH000004nQJt.0
REMARK                            x       y       z     vdW  Elec       q    Type
REMARK                         _______ _______ _______ _____ _____    ______ ____
ROOT
ATOM      1  C   LIG    1        6.037   0.769  -0.051  0.00  0.00    +0.270 C 
ENDROOT
BRANCH   1   2
ATOM      2  N   LIG    1        4.572   0.749  -0.037  0.00  0.00    -0.560 N 
ATOM      3  C   LIG    1        3.796   1.848  -0.024  0.00  0.00    +0.580 C 
ATOM      4  C   LIG    1        2.380   1.424  -0.013  0.00  0.00    -0.130 A 
ATOM      5  C   LIG    1        1.169   2.097   0.002  0.00  0.00    +0.100 A 
ATOM      6  C   LIG    1       -0.017   1.378   0.010  0.00  0.00    +0.050 A 
ATOM      7  C   LIG    1        0.002  -0.004   0.002  0.00  0.00    +0.040 A 
ATOM      8  C   LIG    1        1.207  -0.691  -0.013  0.00  0.00    +0.100 A 
ATOM      9  C   LIG    1        2.399   0.015  -0.020  0.00  0.00    -0.140 A 
ATOM     10  O   LIG    1        4.192   2.996  -0.022  0.00  0.00    -0.440 OA
ATOM     11  C   LIG    1        3.826  -0.370  -0.035  0.00  0.00    +0.580 C 
ATOM     12  O   LIG    1        4.253  -1.507  -0.046  0.00  0.00    -0.460 OA
ENDBRANCH   1   2
BRANCH   1  13
ATOM     13  C   LIG    1        6.517   1.493  -1.283  0.00  0.00    +0.510 C 
ATOM     14  N   LIG    1        7.838   1.635  -1.508  0.00  0.00    -0.720 N 
ATOM     15  H   LIG    1        8.480   1.272  -0.878  0.00  0.00    +0.400 HD
ATOM     16  O   LIG    1        5.715   1.947  -2.071  0.00  0.00    -0.510 OA
BRANCH  14  17
ATOM     17  C   LIG    1        8.306   2.339  -2.705  0.00  0.00    +0.230 C 
ATOM     18  C   LIG    1        8.339   3.844  -2.432  0.00  0.00    +0.020 C 
BRANCH  17  19
ATOM     19  C   LIG    1        9.711   1.854  -3.066  0.00  0.00    +0.020 C 
BRANCH  19  20
ATOM     20  C   LIG    1        9.656   0.377  -3.460  0.00  0.00    +0.000 C 
BRANCH  20  21
ATOM     21  C   LIG    1       11.062  -0.107  -3.820  0.00  0.00    +0.010 C 
BRANCH  21  22
ATOM     22  C   LIG    1       11.007  -1.585  -4.215  0.00  0.00    -0.030 C 
ATOM     23  C   LIG    1       10.589  -2.421  -3.003  0.00  0.00    +0.010 C 
ATOM     24  C   LIG    1       12.388  -2.036  -4.694  0.00  0.00    +0.000 C 
ENDBRANCH  21  22
ENDBRANCH  20  21
ENDBRANCH  19  20
ENDBRANCH  17  19
ENDBRANCH  14  17
ENDBRANCH   1  13
BRANCH   1  25
ATOM     25  C   LIG    1        6.549   1.490   1.197  0.00  0.00    +0.080 C 
BRANCH  25  26
ATOM     26  C   LIG    1        6.168   0.688   2.443  0.00  0.00    +0.080 C 
BRANCH  26  28
ATOM     27  C   LIG    1        6.235   0.458   5.272  0.00  0.00    +0.140 C 
ATOM     28  S   LIG    1        6.775   1.543   3.922  0.00  0.00    -0.250 S 
ENDBRANCH  26  28
ENDBRANCH  25  26
ENDBRANCH   1  25
TORSDOF 10
