REMARK  Name = ZINCrD0000075KAO.0
REMARK                            x       y       z     vdW  Elec       q    Type
REMARK                         _______ _______ _______ _____ _____    ______ ____
ROOT
ATOM      1  C   LIG    1        2.435   1.024   0.103  0.00  0.00    +0.010 A 
ATOM      2  N   LIG    1        2.495  -0.286   0.197  0.00  0.00    -0.160 NA
ATOM      3  N   LIG    1        3.610  -0.916   0.279  0.00  0.00    -0.330 N 
ATOM      4  C   LIG    1        4.791  -0.271   0.285  0.00  0.00    +0.480 A 
ATOM      5  C   LIG    1        4.816   1.139   0.193  0.00  0.00    -0.020 A 
ATOM      6  O   LIG    1        5.834  -0.899   0.368  0.00  0.00    -0.520 OA
ATOM      7  C   LIG    1        3.623   1.793   0.102  0.00  0.00    +0.140 A 
ENDROOT
BRANCH   1   9
ATOM      8  O   LIG    1        1.064   2.908  -0.075  0.00  0.00    -0.500 OA
ATOM      9  C   LIG    1        1.122   1.696   0.006  0.00  0.00    +0.600 C 
ATOM     10  N   LIG    1       -0.011   0.966   0.007  0.00  0.00    -0.650 N 
ATOM     11  H   LIG    1        0.036  -0.003   0.004  0.00  0.00    +0.420 HD
BRANCH  10  12
ATOM     12  C   LIG    1       -1.256   1.605   0.007  0.00  0.00    +0.150 A 
ATOM     13  C   LIG    1       -2.325   1.046   0.694  0.00  0.00    +0.040 A 
ATOM     14  C   LIG    1       -3.552   1.681   0.697  0.00  0.00    +0.030 A 
ATOM     15  C   LIG    1       -3.719   2.869   0.007  0.00  0.00    +0.100 A 
ATOM     16  C   LIG    1       -2.655   3.426  -0.685  0.00  0.00    -0.060 A 
ATOM     17 CL   LIG    1       -2.868   4.916  -1.550  0.00  0.00    -0.040 Cl
ATOM     18  F   LIG    1       -4.921   3.485   0.007  0.00  0.00    -0.120 F 
ATOM     19  C   LIG    1       -1.425   2.797  -0.685  0.00  0.00    +0.070 A 
ENDBRANCH  10  12
ENDBRANCH   1   9
BRANCH   3  20
ATOM     20  C   LIG    1        3.597  -2.378   0.374  0.00  0.00    +0.360 C 
BRANCH  20  21
ATOM     21  C   LIG    1        3.533  -2.793   1.845  0.00  0.00    +0.200 C 
BRANCH  21  22
ATOM     22  O   LIG    1        2.291  -2.366   2.407  0.00  0.00    -0.310 OA
BRANCH  22  23
ATOM     23  C   LIG    1        2.073  -2.658   3.716  0.00  0.00    +0.130 A 
ATOM     24  C   LIG    1        3.033  -3.346   4.444  0.00  0.00    -0.080 A 
ATOM     25  C   LIG    1        2.812  -3.637   5.776  0.00  0.00    +0.050 A 
ATOM     26  C   LIG    1        1.630  -3.252   6.381  0.00  0.00    -0.030 A 
ATOM     27  C   LIG    1        0.669  -2.571   5.657  0.00  0.00    +0.050 A 
ATOM     28  C   LIG    1        0.888  -2.273   4.326  0.00  0.00    -0.020 A 
ENDBRANCH  22  23
ENDBRANCH  21  22
ENDBRANCH  20  21
ENDBRANCH   3  20
TORSDOF 6
