REMARK  Name = ZINCc70000006lDi.0
REMARK                            x       y       z     vdW  Elec       q    Type
REMARK                         _______ _______ _______ _____ _____    ______ ____
ROOT
ATOM      1  CA  LIG    1       -0.462   1.780  -2.579  0.00  0.00    -0.090 A 
ATOM      2  C   LIG    1       -0.730   1.579  -1.222  0.00  0.00    -0.040 A 
ATOM      3  C   LIG    1       -0.013   1.086   0.008  0.00  0.00    +0.150 C 
ATOM      4  C   LIG    1       -0.723   1.577   1.287  0.00  0.00    -0.270 C 
ATOM      5  S   LIG    1       -2.444   1.756   0.681  0.00  0.00    +2.510 S 
ATOM      6  O   LIG    1       -3.158   0.529   0.759  0.00  0.00    -0.930 OA
ATOM      7  O   LIG    1       -3.018   2.987   1.096  0.00  0.00    -0.940 OA
ATOM      8  C   LIG    1       -2.056   1.969  -1.038  0.00  0.00    -0.740 A 
ATOM      9  C   LIG    1       -2.564   2.373  -2.224  0.00  0.00    +0.380 A 
ATOM     10  N   LIG    1       -1.607   2.264  -3.167  0.00  0.00    -0.510 N 
ATOM     11  H   LIG    1       -1.710   2.490  -4.105  0.00  0.00    +0.430 HD
ENDROOT
BRANCH   1  13
ATOM     12  O   LIG    1        1.712   1.100  -2.602  0.00  0.00    -0.450 OA
ATOM     13  C   LIG    1        0.767   1.530  -3.232  0.00  0.00    +0.500 C 
ENDBRANCH   1  13
TORSDOF 1
