REMARK  Name = ZINCvU0000000Gff.0
REMARK                            x       y       z     vdW  Elec       q    Type
REMARK                         _______ _______ _______ _____ _____    ______ ____
ROOT
ATOM      1  N   LIG    1       -5.026  -2.643  -2.250  0.00  0.00    -0.480 N 
ATOM      2  C   LIG    1       -5.187  -3.906  -2.784  0.00  0.00    +0.060 A 
ATOM      3  C   LIG    1       -6.128  -4.489  -3.622  0.00  0.00    +0.010 A 
ATOM      4  C   LIG    1       -6.002  -5.816  -3.972  0.00  0.00    +0.030 A 
ATOM      5  C   LIG    1       -4.942  -6.572  -3.493  0.00  0.00    +0.000 A 
ATOM      6  C   LIG    1       -4.006  -6.016  -2.667  0.00  0.00    +0.070 A 
ATOM      7  C   LIG    1       -4.113  -4.672  -2.299  0.00  0.00    +0.050 A 
ATOM      8  N   LIG    1       -3.366  -3.853  -1.515  0.00  0.00    -0.480 NA
ATOM      9  C   LIG    1       -3.898  -2.666  -1.490  0.00  0.00    +0.290 A 
ENDROOT
BRANCH   9  10
ATOM     10  C   LIG    1       -3.349  -1.490  -0.724  0.00  0.00    +0.090 C 
ATOM     11  C   LIG    1       -3.108  -1.858   0.758  0.00  0.00    +0.090 C 
ATOM     12  C   LIG    1       -1.837  -1.121   1.123  0.00  0.00    +0.530 C 
ATOM     13  N   LIG    1       -1.199  -0.722   0.009  0.00  0.00    -0.570 N 
ATOM     14  O   LIG    1       -1.452  -0.919   2.255  0.00  0.00    -0.510 OA
ATOM     15  C   LIG    1       -1.921  -1.140  -1.198  0.00  0.00    +0.300 C 
BRANCH  13  16
ATOM     16  C   LIG    1        0.002  -0.004   0.002  0.00  0.00    +0.130 A 
ATOM     17  C   LIG    1       -0.017   1.384   0.010  0.00  0.00    +0.020 A 
ATOM     18  C   LIG    1        1.171   2.090   0.002  0.00  0.00    +0.010 A 
ATOM     19  C   LIG    1        2.377   1.415  -0.013  0.00  0.00    -0.070 A 
ATOM     20  C   LIG    1        2.400   0.032  -0.021  0.00  0.00    +0.010 A 
ATOM     21  C   LIG    1        3.671   2.188  -0.023  0.00  0.00    +0.090 C 
ATOM     22  C   LIG    1        1.216  -0.679  -0.013  0.00  0.00    -0.070 A 
ATOM     23  C   LIG    1        1.241  -2.186  -0.022  0.00  0.00    +0.100 C 
ENDBRANCH  13  16
ENDBRANCH   9  10
BRANCH   1  24
ATOM     24  C   LIG    1       -5.905  -1.491  -2.465  0.00  0.00    +0.350 C 
BRANCH  24  30
ATOM     25  C   LIG    1       -6.025  -0.667  -7.400  0.00  0.00    +0.090 C 
ATOM     26  C   LIG    1       -5.493  -0.325  -6.032  0.00  0.00    -0.080 A 
ATOM     27  C   LIG    1       -4.574   0.697  -5.884  0.00  0.00    +0.020 A 
ATOM     28  C   LIG    1       -4.086   1.011  -4.629  0.00  0.00    +0.020 A 
ATOM     29  C   LIG    1       -4.520   0.306  -3.522  0.00  0.00    +0.010 A 
ATOM     30  C   LIG    1       -5.435  -0.719  -3.671  0.00  0.00    -0.110 A 
ATOM     31  C   LIG    1       -5.923  -1.033  -4.925  0.00  0.00    +0.020 A 
ENDBRANCH  24  30
ENDBRANCH   1  24
TORSDOF 4
