REMARK  Name = ZINCrD000000Al92.0
REMARK                            x       y       z     vdW  Elec       q    Type
REMARK                         _______ _______ _______ _____ _____    ______ ____
ROOT
ATOM      1  N   LIG    1        0.627   4.154   4.449  0.00  0.00    -0.470 N 
ATOM      2  C   LIG    1        1.501   3.513   5.457  0.00  0.00    +0.240 C 
ATOM      3  C   LIG    1        0.504   3.129   6.566  0.00  0.00    -0.050 C 
ATOM      4  C   LIG    1       -0.628   4.111   6.378  0.00  0.00    -0.120 A 
ATOM      5  C   LIG    1       -1.669   4.486   7.200  0.00  0.00    +0.040 A 
ATOM      6  C   LIG    1       -2.578   5.439   6.779  0.00  0.00    +0.000 A 
ATOM      7  C   LIG    1       -2.442   6.018   5.530  0.00  0.00    +0.030 A 
ATOM      8  C   LIG    1       -1.404   5.645   4.702  0.00  0.00    +0.010 A 
ATOM      9  C   LIG    1        0.017   1.698   6.371  0.00  0.00    +0.010 C 
ATOM     10  C   LIG    1        1.185   0.733   6.601  0.00  0.00    +0.210 C 
ATOM     11  O   LIG    1        1.730   0.952   7.904  0.00  0.00    -0.380 OA
ATOM     12  C   LIG    1        2.264   2.263   8.102  0.00  0.00    +0.210 C 
ATOM     13  C   LIG    1        1.146   3.297   7.938  0.00  0.00    +0.020 C 
ATOM     14  C   LIG    1       -0.485   4.683   5.117  0.00  0.00    +0.090 A 
ENDROOT
BRANCH   1  15
ATOM     15  C   LIG    1        0.214   3.190   3.421  0.00  0.00    +0.230 C 
BRANCH  15  17
ATOM     16  O   LIG    1        2.386   3.579   2.584  0.00  0.00    -0.510 OA
ATOM     17  C   LIG    1        1.363   2.936   2.480  0.00  0.00    +0.520 C 
ATOM     18  N   LIG    1        1.255   1.993   1.523  0.00  0.00    -0.610 N 
ATOM     19  C   LIG    1        0.022   1.206   1.384  0.00  0.00    +0.270 C 
ATOM     20  C   LIG    1        0.381  -0.283   1.411  0.00  0.00    +0.030 C 
ATOM     21  C   LIG    1        1.434  -0.570   0.339  0.00  0.00    +0.040 C 
ATOM     22  C   LIG    1        2.700   0.238   0.635  0.00  0.00    -0.030 C 
ATOM     23  C   LIG    1        2.367   1.733   0.599  0.00  0.00    +0.310 C 
BRANCH  22  24
ATOM     24  C   LIG    1        3.764  -0.074  -0.419  0.00  0.00    +0.460 C 
ATOM     25  F   LIG    1        4.065  -1.440  -0.387  0.00  0.00    -0.180 F 
ATOM     26  F   LIG    1        4.920   0.664  -0.147  0.00  0.00    -0.180 F 
ATOM     27  F   LIG    1        3.279   0.267  -1.686  0.00  0.00    -0.180 F 
ENDBRANCH  22  24
ENDBRANCH  15  17
ENDBRANCH   1  15
TORSDOF 3
