REMARK  Name = ZINCpk00000KfLT7.2
REMARK                            x       y       z     vdW  Elec       q    Type
REMARK                         _______ _______ _______ _____ _____    ______ ____
ROOT
ATOM      1  C   LIG    1       -0.505  -0.588   2.185  0.00  0.00    +0.260 C 
ATOM      2  C   LIG    1       -0.404  -0.065   0.747  0.00  0.00    +0.300 C 
ATOM      3  N   LIG    1       -0.361   1.405   0.789  0.00  0.00    -0.610 N 
ATOM      4  C   LIG    1        0.610   2.043   1.692  0.00  0.00    +0.260 C 
ATOM      5  C   LIG    1        0.459   1.418   3.084  0.00  0.00    +0.240 C 
ATOM      6  C   LIG    1       -1.183   2.145   0.019  0.00  0.00    +0.570 C 
ATOM      7  O   LIG    1       -1.926   1.602  -0.773  0.00  0.00    -0.510 OA
ATOM      8  O   LIG    1        0.536  -0.005   2.972  0.00  0.00    -0.380 OA
ENDROOT
BRANCH   1  13
ATOM      9  C   LIG    1       -0.681  -4.177   1.738  0.00  0.00    +0.230 A 
ATOM     10  N   LIG    1        0.305  -4.145   2.595  0.00  0.00    -0.310 NA
ATOM     11  N   LIG    1        0.536  -2.793   2.898  0.00  0.00    -0.460 N 
ATOM     12  H   LIG    1        1.207  -2.439   3.502  0.00  0.00    +0.450 HD
ATOM     13  C   LIG    1       -0.361  -2.088   2.187  0.00  0.00    +0.290 A 
ATOM     14  N   LIG    1       -1.082  -2.930   1.493  0.00  0.00    -0.530 NA
BRANCH   9  15
ATOM     15  C   LIG    1       -1.270  -5.422   1.127  0.00  0.00    +0.150 C 
BRANCH  15  17
ATOM     16  C   LIG    1       -1.125  -7.019  -0.790  0.00  0.00    +0.030 C 
ATOM     17  C   LIG    1       -0.527  -5.754  -0.169  0.00  0.00    +0.010 C 
ENDBRANCH  15  17
ENDBRANCH   9  15
ENDBRANCH   1  13
BRANCH   6  18
ATOM     18  C   LIG    1       -1.179   3.622   0.139  0.00  0.00    -0.040 A 
ATOM     19  C   LIG    1        0.022   4.340   0.139  0.00  0.00    -0.080 A 
ATOM     20  C   LIG    1       -0.016   5.715   0.253  0.00  0.00    +0.320 A 
ATOM     21  N   LIG    1       -1.163   6.356   0.359  0.00  0.00    -0.530 NA
ATOM     22  C   LIG    1       -2.324   5.720   0.364  0.00  0.00    +0.410 A 
ATOM     23  C   LIG    1       -2.374   4.335   0.249  0.00  0.00    -0.050 A 
BRANCH  22  24
ATOM     24  N   LIG    1       -3.505   6.444   0.479  0.00  0.00    -0.610 N 
ATOM     25  C   LIG    1       -3.469   7.908   0.485  0.00  0.00    +0.300 C 
ATOM     26  C   LIG    1       -4.785   5.742   0.595  0.00  0.00    +0.300 C 
ENDBRANCH  22  24
ENDBRANCH   6  18
TORSDOF 5
