REMARK  Name = ZINCpk00000KfLT7.1
REMARK                            x       y       z     vdW  Elec       q    Type
REMARK                         _______ _______ _______ _____ _____    ______ ____
ROOT
ATOM      1  C   LIG    1        2.335   1.960  -4.982  0.00  0.00    +0.270 C 
ATOM      2  C   LIG    1        1.676   1.986  -6.366  0.00  0.00    +0.290 C 
ATOM      3  N   LIG    1        2.724   2.209  -7.374  0.00  0.00    -0.610 N 
ATOM      4  C   LIG    1        3.918   1.349  -7.333  0.00  0.00    +0.260 C 
ATOM      5  C   LIG    1        4.467   1.353  -5.902  0.00  0.00    +0.230 C 
ATOM      6  C   LIG    1        2.595   3.172  -8.308  0.00  0.00    +0.570 C 
ATOM      7  O   LIG    1        1.573   3.826  -8.369  0.00  0.00    -0.520 OA
ATOM      8  O   LIG    1        3.415   1.023  -4.992  0.00  0.00    -0.360 OA
ENDROOT
BRANCH   1  11
ATOM      9  C   LIG    1       -0.098   1.676  -2.323  0.00  0.00    +0.290 A 
ATOM     10  N   LIG    1        0.730   2.358  -3.073  0.00  0.00    -0.530 NA
ATOM     11  C   LIG    1        1.319   1.545  -3.949  0.00  0.00    +0.230 A 
ATOM     12  N   LIG    1        0.873   0.330  -3.767  0.00  0.00    -0.280 NA
ATOM     13  N   LIG    1       -0.048   0.390  -2.708  0.00  0.00    -0.480 N 
ATOM     14  H   LIG    1       -0.549  -0.350  -2.332  0.00  0.00    +0.440 HD
BRANCH   9  15
ATOM     15  C   LIG    1       -0.953   2.236  -1.215  0.00  0.00    +0.150 C 
BRANCH  15  17
ATOM     16  C   LIG    1       -1.100   2.630   1.248  0.00  0.00    +0.030 C 
ATOM     17  C   LIG    1       -0.232   2.062   0.123  0.00  0.00    +0.010 C 
ENDBRANCH  15  17
ENDBRANCH   9  15
ENDBRANCH   1  11
BRANCH   6  18
ATOM     18  C   LIG    1        3.700   3.433  -9.261  0.00  0.00    -0.040 A 
ATOM     19  C   LIG    1        4.327   2.382  -9.940  0.00  0.00    -0.080 A 
ATOM     20  C   LIG    1        5.348   2.666 -10.822  0.00  0.00    +0.320 A 
ATOM     21  N   LIG    1        5.746   3.907 -11.025  0.00  0.00    -0.530 NA
ATOM     22  C   LIG    1        5.186   4.932 -10.402  0.00  0.00    +0.410 A 
ATOM     23  C   LIG    1        4.147   4.733  -9.500  0.00  0.00    -0.050 A 
BRANCH  22  24
ATOM     24  N   LIG    1        5.644   6.221 -10.652  0.00  0.00    -0.610 N 
ATOM     25  C   LIG    1        6.662   6.451 -11.680  0.00  0.00    +0.280 C 
ATOM     26  C   LIG    1        5.107   7.349  -9.887  0.00  0.00    +0.300 C 
ENDBRANCH  22  24
ENDBRANCH   6  18
TORSDOF 5
