REMARK  Name = ZINCpk00000KfLT7.0
REMARK                            x       y       z     vdW  Elec       q    Type
REMARK                         _______ _______ _______ _____ _____    ______ ____
ROOT
ATOM      1  C   LIG    1        3.486  -0.376  -0.539  0.00  0.00    +0.270 C 
ATOM      2  C   LIG    1        4.009  -0.543   0.892  0.00  0.00    +0.300 C 
ATOM      3  N   LIG    1        5.472  -0.391   0.871  0.00  0.00    -0.610 N 
ATOM      4  C   LIG    1        6.036   0.789   0.198  0.00  0.00    +0.250 C 
ATOM      5  C   LIG    1        5.414   0.892  -1.200  0.00  0.00    +0.230 C 
ATOM      6  C   LIG    1        6.273  -1.307   1.452  0.00  0.00    +0.560 C 
ATOM      7  O   LIG    1        5.787  -2.244   2.054  0.00  0.00    -0.520 OA
ATOM      8  O   LIG    1        3.990   0.846  -1.085  0.00  0.00    -0.380 OA
ENDROOT
BRANCH   1  12
ATOM      9  C   LIG    1       -0.082   0.265  -0.798  0.00  0.00    +0.190 A 
ATOM     10  N   LIG    1       -0.038  -0.881  -0.175  0.00  0.00    -0.280 NA
ATOM     11  N   LIG    1        1.187  -1.237  -0.011  0.00  0.00    -0.270 NA
ATOM     12  C   LIG    1        1.979  -0.336  -0.523  0.00  0.00    +0.180 A 
ATOM     13  N   LIG    1        1.196   0.644  -1.038  0.00  0.00    -0.560 N 
ATOM     14  H   LIG    1        1.491   1.452  -1.486  0.00  0.00    +0.430 HD
BRANCH   9  15
ATOM     15  C   LIG    1       -1.326   1.022  -1.187  0.00  0.00    +0.150 C 
BRANCH  15  17
ATOM     16  C   LIG    1       -3.497   0.887  -2.415  0.00  0.00    +0.020 C 
ATOM     17  C   LIG    1       -2.235   0.118  -2.021  0.00  0.00    +0.020 C 
ENDBRANCH  15  17
ENDBRANCH   9  15
ENDBRANCH   1  12
BRANCH   6  18
ATOM     18  C   LIG    1        7.745  -1.171   1.357  0.00  0.00    -0.040 A 
ATOM     19  C   LIG    1        8.348   0.092   1.308  0.00  0.00    -0.080 A 
ATOM     20  C   LIG    1        9.723   0.178   1.224  0.00  0.00    +0.310 A 
ATOM     21  N   LIG    1       10.470  -0.908   1.180  0.00  0.00    -0.530 NA
ATOM     22  C   LIG    1        9.944  -2.122   1.219  0.00  0.00    +0.410 A 
ATOM     23  C   LIG    1        8.567  -2.297   1.309  0.00  0.00    -0.040 A 
BRANCH  22  24
ATOM     24  N   LIG    1       10.777  -3.235   1.170  0.00  0.00    -0.610 N 
ATOM     25  C   LIG    1       12.224  -3.074   1.329  0.00  0.00    +0.300 C 
ATOM     26  C   LIG    1       10.207  -4.567   0.959  0.00  0.00    +0.300 C 
ENDBRANCH  22  24
ENDBRANCH   6  18
TORSDOF 5
