REMARK  Name = ZINCpe00000MygrM.0
REMARK                            x       y       z     vdW  Elec       q    Type
REMARK                         _______ _______ _______ _____ _____    ______ ____
ROOT
ATOM      1  C   LIG    1        7.078   4.130   0.011  0.00  0.00    +0.240 C 
ATOM      2  C   LIG    1        7.049   4.826   1.391  0.00  0.00    +0.100 C 
ATOM      3  C   LIG    1        7.600   3.738   2.330  0.00  0.00    -0.160 C 
ATOM      4  C   LIG    1        8.621   2.999   1.455  0.00  0.00    +0.310 C 
ATOM      5  C   LIG    1        6.724   3.018   3.338  0.00  0.00    +0.030 C 
ATOM      6  C   LIG    1        7.819   3.981   3.812  0.00  0.00    +0.050 C 
ATOM      7  N   LIG    1        8.039   3.020   0.098  0.00  0.00    -0.600 N 
ATOM      8  C   LIG    1        8.335   2.159  -0.895  0.00  0.00    +0.610 C 
ATOM      9  O   LIG    1        7.880   2.336  -2.010  0.00  0.00    -0.540 OA
ENDROOT
BRANCH   8  10
ATOM     10  C   LIG    1        9.207   1.008  -0.633  0.00  0.00    -0.360 A 
ATOM     11  C   LIG    1        8.885  -0.263  -1.130  0.00  0.00    +0.440 A 
ATOM     12  N   LIG    1        9.680  -1.283  -0.883  0.00  0.00    -0.540 NA
ATOM     13  C   LIG    1       10.798  -1.144  -0.166  0.00  0.00    +0.400 A 
ATOM     14  C   LIG    1       11.609  -2.268   0.067  0.00  0.00    +0.030 A 
ATOM     15  C   LIG    1       12.752  -2.132   0.799  0.00  0.00    +0.140 A 
ATOM     16  C   LIG    1       13.101  -0.875   1.308  0.00  0.00    +0.000 A 
ATOM     17  C   LIG    1       12.307   0.195   1.074  0.00  0.00    +0.290 A 
ATOM     18  N   LIG    1       11.165   0.069   0.345  0.00  0.00    -0.420 N 
ATOM     19  C   LIG    1       10.392   1.155   0.127  0.00  0.00    +0.520 A 
ATOM     20  O   LIG    1       10.709   2.242   0.578  0.00  0.00    -0.510 OA
ENDBRANCH   8  10
BRANCH   1  21
ATOM     21  C   LIG    1        7.528   5.123  -1.063  0.00  0.00    +0.060 C 
BRANCH  21  25
ATOM     22  C   LIG    1        5.893   8.472  -1.941  0.00  0.00    +0.290 C 
ATOM     23  N   LIG    1        6.760   7.291  -1.973  0.00  0.00    -0.740 N 
ATOM     24  H   LIG    1        7.424   7.196  -2.674  0.00  0.00    +0.400 HD
ATOM     25  C   LIG    1        6.636   6.337  -1.029  0.00  0.00    +0.520 C 
ATOM     26  O   LIG    1        5.806   6.456  -0.153  0.00  0.00    -0.540 OA
ENDBRANCH  21  25
ENDBRANCH   1  21
TORSDOF 3
