REMARK  Name = ZINCrH000004rT50.0
REMARK                            x       y       z     vdW  Elec       q    Type
REMARK                         _______ _______ _______ _____ _____    ______ ____
ROOT
ATOM      1  C   LIG    1        0.141  -6.909   4.982  0.00  0.00    +0.520 C 
ATOM      2  N   LIG    1        0.160  -8.246   5.149  0.00  0.00    -0.710 N 
ATOM      3  H   LIG    1        0.160  -8.831   4.375  0.00  0.00    +0.410 HD
ATOM      4  O   LIG    1        0.140  -6.176   5.949  0.00  0.00    -0.540 OA
ENDROOT
BRANCH   1   5
ATOM      5  C   LIG    1        0.120  -6.323   3.593  0.00  0.00    +0.060 C 
BRANCH   5   6
ATOM      6  C   LIG    1        0.100  -4.796   3.684  0.00  0.00    +0.060 C 
BRANCH   6   7
ATOM      7  C   LIG    1        0.079  -4.202   2.274  0.00  0.00    +0.180 C 
BRANCH   7   8
ATOM      8  O   LIG    1        0.061  -2.775   2.359  0.00  0.00    -0.310 OA
BRANCH   8  14
ATOM      9  C   LIG    1       -0.018   1.503   0.010  0.00  0.00    +0.090 C 
ATOM     10  C   LIG    1        0.002  -0.004   0.002  0.00  0.00    -0.050 A 
ATOM     11  C   LIG    1       -0.006  -0.688  -1.199  0.00  0.00    -0.040 A 
ATOM     12  C   LIG    1        0.018  -2.071  -1.210  0.00  0.00    +0.050 A 
ATOM     13  C   LIG    1        0.039  -2.772  -0.020  0.00  0.00    -0.090 A 
ATOM     14  C   LIG    1        0.041  -2.088   1.187  0.00  0.00    +0.130 A 
ATOM     15  C   LIG    1        0.023  -0.701   1.195  0.00  0.00    -0.020 A 
ENDBRANCH   8  14
ENDBRANCH   7   8
ENDBRANCH   6   7
ENDBRANCH   5   6
ENDBRANCH   1   5
BRANCH   2  16
ATOM     16  C   LIG    1        0.180  -8.815   6.499  0.00  0.00    +0.390 C 
BRANCH  16  17
ATOM     17  C   LIG    1        1.601  -8.877   6.996  0.00  0.00    +0.190 A 
ATOM     18  N   LIG    1        2.628  -9.303   6.314  0.00  0.00    -0.480 NA
ATOM     19  C   LIG    1        3.731  -9.213   7.071  0.00  0.00    +0.140 A 
ATOM     20  C   LIG    1        3.373  -8.720   8.272  0.00  0.00    +0.130 A 
ATOM     21  N   LIG    1        2.021  -8.507   8.225  0.00  0.00    -0.450 N 
ATOM     22  C   LIG    1        1.187  -7.975   9.306  0.00  0.00    +0.330 C 
ENDBRANCH  16  17
BRANCH  16  23
ATOM     23  C   LIG    1       -0.403 -10.204   6.467  0.00  0.00    -0.100 A 
ATOM     24  C   LIG    1       -0.113 -11.051   5.413  0.00  0.00    +0.040 A 
ATOM     25  C   LIG    1       -0.644 -12.327   5.386  0.00  0.00    +0.010 A 
ATOM     26  C   LIG    1       -1.471 -12.754   6.408  0.00  0.00    +0.020 A 
ATOM     27  C   LIG    1       -1.765 -11.905   7.458  0.00  0.00    +0.010 A 
ATOM     28  C   LIG    1       -1.231 -10.630   7.488  0.00  0.00    +0.020 A 
ENDBRANCH  16  23
ENDBRANCH   2  16
TORSDOF 8
