REMARK  Name = ZINCrD0000074cC1.0
REMARK                            x       y       z     vdW  Elec       q    Type
REMARK                         _______ _______ _______ _____ _____    ______ ____
ROOT
ATOM      1  C   LIG    1        2.607  -3.929  -1.888  0.00  0.00    +0.070 C 
ATOM      2  C   LIG    1        2.550  -3.784  -0.366  0.00  0.00    +0.200 C 
ENDROOT
BRANCH   2   3
ATOM      3  C   LIG    1        3.764  -4.434   0.247  0.00  0.00    +0.520 C 
ATOM      4  N   LIG    1        3.994  -5.747   0.054  0.00  0.00    -0.670 N 
ATOM      5  H   LIG    1        3.342  -6.290  -0.416  0.00  0.00    +0.420 HD
ATOM      6  O   LIG    1        4.533  -3.774   0.913  0.00  0.00    -0.490 OA
BRANCH   4   7
ATOM      7  C   LIG    1        5.174  -6.328   0.531  0.00  0.00    +0.150 A 
ATOM      8  C   LIG    1        6.354  -5.596   0.546  0.00  0.00    +0.050 A 
ATOM      9  C   LIG    1        7.516  -6.171   1.023  0.00  0.00    +0.040 A 
ATOM     10  C   LIG    1        7.507  -7.477   1.476  0.00  0.00    +0.060 A 
ATOM     11  C   LIG    1        6.335  -8.211   1.458  0.00  0.00    -0.160 A 
ATOM     12  C   LIG    1        5.169  -7.640   0.987  0.00  0.00    +0.040 A 
BRANCH  11  13
ATOM     13  C   LIG    1        6.331  -9.634   1.952  0.00  0.00    +0.510 C 
ATOM     14  F   LIG    1        5.072  -9.941   2.479  0.00  0.00    -0.180 F 
ATOM     15  F   LIG    1        7.303  -9.786   2.947  0.00  0.00    -0.170 F 
ATOM     16  F   LIG    1        6.614 -10.498   0.888  0.00  0.00    -0.170 F 
ENDBRANCH  11  13
ENDBRANCH   4   7
ENDBRANCH   2   3
BRANCH   2  17
ATOM     17  O   LIG    1        2.527  -2.375  -0.015  0.00  0.00    -0.330 OA
BRANCH  17  18
ATOM     18  C   LIG    1        1.317  -1.790   0.088  0.00  0.00    +0.530 C 
ATOM     19  O   LIG    1        0.309  -2.440  -0.109  0.00  0.00    -0.510 OA
BRANCH  18  20
ATOM     20  C   LIG    1        1.216  -0.363   0.441  0.00  0.00    -0.250 A 
ATOM     21  C   LIG    1       -0.039   0.256   0.552  0.00  0.00    +0.180 A 
ATOM     22  C   LIG    1       -0.085   1.584   0.881  0.00  0.00    -0.110 A 
ATOM     23  C   LIG    1        1.105   2.277   1.095  0.00  0.00    +0.430 A 
ATOM     24  N   LIG    1        2.278   1.669   0.985  0.00  0.00    -0.550 NA
ATOM     25  C   LIG    1        2.367   0.394   0.670  0.00  0.00    +0.390 A 
BRANCH  23  26
ATOM     26  N   LIG    1        1.061   3.620   1.429  0.00  0.00    -0.600 N 
ATOM     27  C   LIG    1        2.295   4.410   1.452  0.00  0.00    +0.300 C 
ATOM     28  C   LIG    1       -0.219   4.252   1.758  0.00  0.00    +0.300 C 
ENDBRANCH  23  26
ENDBRANCH  18  20
ENDBRANCH  17  18
ENDBRANCH   2  17
TORSDOF 7
