REMARK  Name = ZINCrD000000CdTW.0
REMARK                            x       y       z     vdW  Elec       q    Type
REMARK                         _______ _______ _______ _____ _____    ______ ____
ROOT
ATOM      1  O   LIG    1        6.767  -1.241   2.364  0.00  0.00    -0.490 OA
ATOM      2  C   LIG    1        6.669  -2.017   1.436  0.00  0.00    +0.530 C 
ATOM      3  N   LIG    1        7.724  -2.776   1.078  0.00  0.00    -0.620 N 
ATOM      4  H   LIG    1        7.646  -3.396   0.337  0.00  0.00    +0.430 HD
ENDROOT
BRANCH   2   5
ATOM      5  C   LIG    1        5.368  -2.132   0.685  0.00  0.00    +0.030 C 
ATOM      6  C   LIG    1        5.552  -1.745  -0.801  0.00  0.00    +0.090 C 
ATOM      7  C   LIG    1        4.273  -1.019  -1.156  0.00  0.00    +0.530 C 
ATOM      8  N   LIG    1        3.622  -0.656  -0.038  0.00  0.00    -0.580 N 
ATOM      9  O   LIG    1        3.891  -0.796  -2.286  0.00  0.00    -0.510 OA
ATOM     10  C   LIG    1        4.360  -1.062   1.164  0.00  0.00    +0.320 C 
BRANCH   8  11
ATOM     11  C   LIG    1        2.400   0.028  -0.021  0.00  0.00    +0.100 A 
ATOM     12  C   LIG    1        1.207  -0.681  -0.014  0.00  0.00    +0.060 A 
ATOM     13  C   LIG    1        0.002  -0.004   0.002  0.00  0.00    +0.020 A 
ATOM     14  C   LIG    1       -0.017   1.378   0.010  0.00  0.00    +0.060 A 
ATOM     15  C   LIG    1        1.170   2.089   0.002  0.00  0.00    -0.010 A 
ATOM     16  C   LIG    1        2.379   1.419  -0.013  0.00  0.00    +0.110 A 
ATOM     17  F   LIG    1        3.538   2.113  -0.020  0.00  0.00    -0.130 F 
ENDBRANCH   8  11
ENDBRANCH   2   5
BRANCH   3  18
ATOM     18  C   LIG    1        8.924  -2.670   1.771  0.00  0.00    +0.270 A 
ATOM     19  N   LIG    1        9.998  -3.347   1.515  0.00  0.00    -0.490 NA
ATOM     20  C   LIG    1       11.054  -3.114   2.283  0.00  0.00    +0.120 A 
ATOM     21  C   LIG    1       10.874  -2.190   3.246  0.00  0.00    -0.050 A 
ATOM     22  S   LIG    1        9.222  -1.588   3.129  0.00  0.00    +0.210 S 
BRANCH  20  23
ATOM     23  C   LIG    1       12.342  -3.821   2.095  0.00  0.00    +0.190 A 
ATOM     24  C   LIG    1       12.468  -4.773   1.084  0.00  0.00    +0.000 A 
ATOM     25  C   LIG    1       13.678  -5.422   0.918  0.00  0.00    +0.060 A 
ATOM     26  C   LIG    1       14.723  -5.106   1.776  0.00  0.00    -0.030 A 
ATOM     27  C   LIG    1       14.528  -4.155   2.761  0.00  0.00    +0.260 A 
ATOM     28  N   LIG    1       13.367  -3.548   2.895  0.00  0.00    -0.480 NA
ENDBRANCH  20  23
ENDBRANCH   3  18
TORSDOF 4
