REMARK  Name = ZINCpe000000WsB5.0
REMARK                            x       y       z     vdW  Elec       q    Type
REMARK                         _______ _______ _______ _____ _____    ______ ____
ROOT
ATOM      1  C   LIG    1        8.128   3.571  -2.894  0.00  0.00    +0.090 A 
ATOM      2  C   LIG    1        9.455   3.958  -2.819  0.00  0.00    -0.030 A 
ATOM      3  C   LIG    1        9.805   5.079  -2.092  0.00  0.00    -0.050 A 
ATOM      4  C   LIG    1        8.826   5.814  -1.444  0.00  0.00    +0.120 A 
ATOM      5  C   LIG    1        7.492   5.427  -1.520  0.00  0.00    -0.070 A 
ATOM      6  C   LIG    1        6.460   6.262  -0.807  0.00  0.00    +0.240 C 
ATOM      7  C   LIG    1        5.159   5.472  -0.661  0.00  0.00    +0.160 C 
ATOM      8  N   LIG    1        4.794   4.925  -1.977  0.00  0.00    -0.520 NA
ATOM      9  C   LIG    1        5.713   3.845  -2.351  0.00  0.00    +0.250 C 
ATOM     10  C   LIG    1        7.142   4.308  -2.242  0.00  0.00    -0.060 A 
ENDROOT
BRANCH   1  12
ATOM     11  C   LIG    1        8.844   1.757  -4.254  0.00  0.00    +0.240 C 
ATOM     12  O   LIG    1        7.785   2.467  -3.609  0.00  0.00    -0.320 OA
ENDBRANCH   1  12
BRANCH   6  13
ATOM     13  O   LIG    1        6.947   6.613   0.490  0.00  0.00    -0.550 OA
ATOM     14  H   LIG    1        6.334   7.152   1.008  0.00  0.00    +0.380 HD
ENDBRANCH   6  13
BRANCH   4  15
ATOM     15  O   LIG    1        9.171   6.918  -0.729  0.00  0.00    -0.290 OA
ATOM     16  C   LIG    1       10.558   7.259  -0.690  0.00  0.00    +0.220 C 
ENDBRANCH   4  15
BRANCH   8  17
ATOM     17  C   LIG    1        3.401   4.458  -1.986  0.00  0.00    +0.250 C 
BRANCH  17  18
ATOM     18  C   LIG    1        3.206   3.417  -0.883  0.00  0.00    +0.020 C 
BRANCH  18  19
ATOM     19  C   LIG    1        1.777   2.938  -0.891  0.00  0.00    +0.520 C 
ATOM     20  N   LIG    1        1.371   2.012  -0.000  0.00  0.00    -0.620 N 
ATOM     21  C   LIG    1       -0.019   1.529   0.010  0.00  0.00    +0.260 C 
ATOM     22  C   LIG    1        0.002  -0.004   0.002  0.00  0.00    +0.220 C 
ATOM     23  O   LIG    1        0.844  -0.469   1.060  0.00  0.00    -0.380 OA
ATOM     24  C   LIG    1        2.213  -0.075   0.934  0.00  0.00    +0.220 C 
ATOM     25  C   LIG    1        2.305   1.454   0.991  0.00  0.00    +0.240 C 
ATOM     26  O   LIG    1        0.992   3.385  -1.701  0.00  0.00    -0.530 OA
ENDBRANCH  18  19
ENDBRANCH  17  18
ENDBRANCH   8  17
TORSDOF 6
