REMARK  Name = ZINCkj000005g0HC.1
REMARK                            x       y       z     vdW  Elec       q    Type
REMARK                         _______ _______ _______ _____ _____    ______ ____
ROOT
ATOM      1  N   LIG    1        2.591  -2.373  -1.874  0.00  0.00    -0.370 N 
ATOM      2  C   LIG    1        2.946  -0.960  -1.989  0.00  0.00    +0.260 C 
ATOM      3  C   LIG    1        3.536  -0.485  -0.680  0.00  0.00    +0.060 C 
ATOM      4  C   LIG    1        2.424   0.127   0.185  0.00  0.00    +0.300 C 
ATOM      5  N   LIG    1        1.177  -0.659   0.089  0.00  0.00    -0.620 N 
ATOM      6  C   LIG    1        1.172  -2.107   0.079  0.00  0.00    +0.330 C 
ATOM      7  C   LIG    1        0.002  -0.004   0.002  0.00  0.00    +0.570 C 
ATOM      8  O   LIG    1       -0.012   1.201  -0.161  0.00  0.00    -0.510 OA
ATOM      9  C   LIG    1        1.293  -2.622  -1.375  0.00  0.00    +0.210 C 
ATOM     10  H   LIG    1        3.258  -2.820  -1.263  0.00  0.00    +0.420 HD
ENDROOT
BRANCH   7  11
ATOM     11  C   LIG    1       -1.267  -0.749   0.105  0.00  0.00    -0.270 A 
ATOM     12  C   LIG    1       -2.251  -0.356   1.025  0.00  0.00    +0.160 A 
ATOM     13  C   LIG    1       -3.415  -1.073   1.083  0.00  0.00    -0.090 A 
ATOM     14  C   LIG    1       -3.584  -2.171   0.241  0.00  0.00    +0.430 A 
ATOM     15  N   LIG    1       -2.636  -2.525  -0.616  0.00  0.00    -0.540 NA
ATOM     16  C   LIG    1       -1.504  -1.860  -0.707  0.00  0.00    +0.320 A 
BRANCH  14  17
ATOM     17  N   LIG    1       -4.759  -2.902   0.301  0.00  0.00    -0.600 N 
ATOM     18  C   LIG    1       -4.904  -4.121  -0.500  0.00  0.00    +0.300 C 
ATOM     19  C   LIG    1       -5.856  -2.457   1.163  0.00  0.00    +0.300 C 
ENDBRANCH  14  17
ENDBRANCH   7  11
BRANCH   1  21
ATOM     20  C   LIG    1        2.590  -4.509  -3.072  0.00  0.00    +0.080 C 
ATOM     21  C   LIG    1        2.702  -2.989  -3.203  0.00  0.00    +0.240 C 
ENDBRANCH   1  21
TORSDOF 3
