REMARK  Name = ZINCkj000005g0HC.0
REMARK                            x       y       z     vdW  Elec       q    Type
REMARK                         _______ _______ _______ _____ _____    ______ ____
ROOT
ATOM      1  N   LIG    1       -1.147   2.728   1.281  0.00  0.00    -0.370 N 
ATOM      2  C   LIG    1       -1.727   3.015   2.591  0.00  0.00    +0.260 C 
ATOM      3  C   LIG    1       -1.101   4.274   3.150  0.00  0.00    +0.060 C 
ATOM      4  C   LIG    1       -1.972   5.487   2.779  0.00  0.00    +0.290 C 
ATOM      5  N   LIG    1       -2.489   5.369   1.400  0.00  0.00    -0.630 N 
ATOM      6  C   LIG    1       -1.672   4.889   0.305  0.00  0.00    +0.330 C 
ATOM      7  C   LIG    1       -3.767   5.720   1.153  0.00  0.00    +0.580 C 
ATOM      8  O   LIG    1       -4.245   5.537   0.050  0.00  0.00    -0.520 OA
ATOM      9  C   LIG    1       -1.797   3.351   0.193  0.00  0.00    +0.230 C 
ATOM     10  H   LIG    1       -0.183   3.026   1.287  0.00  0.00    +0.420 HD
ENDROOT
BRANCH   7  11
ATOM     11  C   LIG    1       -4.585   6.326   2.220  0.00  0.00    -0.280 A 
ATOM     12  C   LIG    1       -3.993   7.146   3.193  0.00  0.00    +0.130 A 
ATOM     13  C   LIG    1       -4.790   7.688   4.165  0.00  0.00    -0.110 A 
ATOM     14  C   LIG    1       -6.156   7.412   4.160  0.00  0.00    +0.430 A 
ATOM     15  N   LIG    1       -6.691   6.633   3.229  0.00  0.00    -0.540 NA
ATOM     16  C   LIG    1       -5.961   6.097   2.274  0.00  0.00    +0.390 A 
BRANCH  14  17
ATOM     17  N   LIG    1       -6.966   7.958   5.142  0.00  0.00    -0.600 N 
ATOM     18  C   LIG    1       -8.348   7.495   5.292  0.00  0.00    +0.310 C 
ATOM     19  C   LIG    1       -6.441   8.998   6.030  0.00  0.00    +0.300 C 
ENDBRANCH  14  17
ENDBRANCH   7  11
BRANCH   1  21
ATOM     20  C   LIG    1       -0.233   0.594   2.061  0.00  0.00    +0.080 C 
ATOM     21  C   LIG    1       -1.178   1.274   1.069  0.00  0.00    +0.240 C 
ENDBRANCH   1  21
TORSDOF 3
