REMARK  Name = ZINCqH0000004R0l.0
REMARK                            x       y       z     vdW  Elec       q    Type
REMARK                         _______ _______ _______ _____ _____    ______ ____
ROOT
ATOM      1  N   LIG    1        0.406   0.758   2.654  0.00  0.00    -0.510 N 
ATOM      2  C   LIG    1        0.342  -0.517   3.096  0.00  0.00    +0.500 A 
ATOM      3  C   LIG    1        1.308  -0.976   4.101  0.00  0.00    +0.120 A 
ATOM      4  N   LIG    1        2.208  -0.159   4.565  0.00  0.00    -0.400 NA
ATOM      5  C   LIG    1        2.277   1.117   4.134  0.00  0.00    +0.020 A 
ATOM      6  C   LIG    1        3.255   1.977   4.649  0.00  0.00    +0.180 A 
ATOM      7  C   LIG    1        3.318   3.291   4.199  0.00  0.00    -0.160 A 
ATOM      8  C   LIG    1        2.409   3.751   3.237  0.00  0.00    +0.120 A 
ATOM      9  C   LIG    1        1.455   2.918   2.732  0.00  0.00    -0.030 A 
ATOM     10  C   LIG    1        1.254  -2.397   4.600  0.00  0.00    +0.180 C 
ATOM     11  O   LIG    1       -0.505  -1.277   2.663  0.00  0.00    -0.500 OA
ATOM     12  C   LIG    1        1.372   1.597   3.167  0.00  0.00    +0.170 A 
ENDROOT
BRANCH   7  13
ATOM     13  C   LIG    1        4.347   4.204   4.737  0.00  0.00    +0.580 C 
ATOM     14  N   LIG    1        4.621   5.360   4.100  0.00  0.00    -0.610 N 
ATOM     15  C   LIG    1        5.703   6.298   4.450  0.00  0.00    +0.260 C 
ATOM     16  C   LIG    1        5.241   7.665   3.894  0.00  0.00    +0.040 C 
ATOM     17  C   LIG    1        4.537   7.247   2.576  0.00  0.00    +0.050 C 
ATOM     18  C   LIG    1        3.887   5.897   2.945  0.00  0.00    +0.280 C 
ATOM     19  O   LIG    1        4.946   3.914   5.755  0.00  0.00    -0.530 OA
BRANCH  18  20
ATOM     20  C   LIG    1        3.991   4.943   1.783  0.00  0.00    -0.120 A 
ATOM     21  C   LIG    1        5.043   4.142   1.604  0.00  0.00    -0.030 A 
ATOM     22  S   LIG    1        4.810   3.178   0.152  0.00  0.00    +0.110 S 
ATOM     23  C   LIG    1        3.251   3.939  -0.140  0.00  0.00    -0.040 A 
ATOM     24  C   LIG    1        3.000   4.827   0.824  0.00  0.00    +0.010 A 
ENDBRANCH  18  20
ENDBRANCH   7  13
BRANCH   1  26
ATOM     25  C   LIG    1        0.035   1.010   0.250  0.00  0.00    +0.030 C 
ATOM     26  C   LIG    1       -0.542   1.244   1.647  0.00  0.00    +0.280 C 
ENDBRANCH   1  26
TORSDOF 3
