REMARK  Name = ZINCqH0000051kTd.0
REMARK                            x       y       z     vdW  Elec       q    Type
REMARK                         _______ _______ _______ _____ _____    ______ ____
ROOT
ATOM      1  C   LIG    1       -3.259  -3.753   0.193  0.00  0.00    +0.290 C 
ENDROOT
BRANCH   1   2
ATOM      2  C   LIG    1       -2.762  -2.473  -0.483  0.00  0.00    +0.000 C 
ATOM      3  C   LIG    1       -3.487  -1.230   0.084  0.00  0.00    +0.080 C 
ATOM      4  C   LIG    1       -2.417  -0.162   0.121  0.00  0.00    +0.520 C 
ATOM      5  N   LIG    1       -1.200  -0.722   0.010  0.00  0.00    -0.560 N 
ATOM      6  O   LIG    1       -2.626   1.028   0.236  0.00  0.00    -0.500 OA
ATOM      7  C   LIG    1       -1.294  -2.181  -0.108  0.00  0.00    +0.290 C 
BRANCH   5   8
ATOM      8  C   LIG    1        0.002  -0.004   0.002  0.00  0.00    +0.170 A 
ATOM      9  C   LIG    1       -0.017   1.384  -0.007  0.00  0.00    +0.020 A 
ATOM     10  C   LIG    1        1.170   2.090  -0.015  0.00  0.00    +0.060 A 
ATOM     11  C   LIG    1        2.378   1.414  -0.013  0.00  0.00    -0.060 A 
ATOM     12  C   LIG    1        2.400   0.031  -0.004  0.00  0.00    +0.060 A 
ATOM     13 CL   LIG    1        3.869   2.304  -0.022  0.00  0.00    -0.070 Cl
ATOM     14  C   LIG    1        1.215  -0.679   0.004  0.00  0.00    -0.010 A 
ENDBRANCH   5   8
ENDBRANCH   1   2
BRANCH   1  17
ATOM     15  O   LIG    1       -4.739  -5.839   1.048  0.00  0.00    -0.520 OA
ATOM     16  C   LIG    1       -5.313  -5.058   0.314  0.00  0.00    +0.570 C 
ATOM     17  N   LIG    1       -4.660  -3.982  -0.168  0.00  0.00    -0.710 N 
ATOM     18  H   LIG    1       -5.119  -3.359  -0.754  0.00  0.00    +0.410 HD
BRANCH  16  19
ATOM     19  C   LIG    1       -6.727  -5.290  -0.050  0.00  0.00    +0.120 A 
ATOM     20  C   LIG    1       -7.403  -6.414   0.456  0.00  0.00    -0.160 A 
ATOM     21  S   LIG    1       -6.871  -7.709   1.519  0.00  0.00    +0.190 S 
ATOM     22  C   LIG    1       -8.441  -8.489   1.466  0.00  0.00    -0.020 A 
ATOM     23  C   LIG    1       -9.287  -7.819   0.706  0.00  0.00    +0.020 A 
ATOM     24  C   LIG    1       -8.744  -6.619   0.101  0.00  0.00    -0.040 A 
ATOM     25  C   LIG    1       -9.346  -5.671  -0.754  0.00  0.00    +0.050 A 
ATOM     26  C   LIG    1       -8.607  -4.599  -1.202  0.00  0.00    +0.250 A 
ATOM     27  N   LIG    1       -7.350  -4.433  -0.846  0.00  0.00    -0.440 NA
ENDBRANCH  16  19
ENDBRANCH   1  17
TORSDOF 4
