REMARK  Name = ZINCpe000000TjRU.0
REMARK                            x       y       z     vdW  Elec       q    Type
REMARK                         _______ _______ _______ _____ _____    ______ ____
ROOT
ATOM      1  C   LIG    1        0.976   3.612   0.012  0.00  0.00    +0.170 C 
ENDROOT
BRANCH   1   2
ATOM      2  C   LIG    1        1.067   2.108   0.003  0.00  0.00    +0.110 A 
ATOM      3  N   LIG    1       -0.017   1.391   0.010  0.00  0.00    -0.160 NA
ATOM      4  N   LIG    1        0.002  -0.004   0.002  0.00  0.00    -0.440 N 
ATOM      5  C   LIG    1        1.159  -0.699  -0.013  0.00  0.00    +0.520 A 
ATOM      6  C   LIG    1        2.427   0.042  -0.021  0.00  0.00    -0.130 A 
ATOM      7  C   LIG    1        3.660  -0.608  -0.037  0.00  0.00    +0.090 A 
ATOM      8  C   LIG    1        4.819   0.136  -0.045  0.00  0.00    +0.020 A 
ATOM      9  C   LIG    1        4.771   1.524  -0.037  0.00  0.00    +0.050 A 
ATOM     10  C   LIG    1        3.565   2.187  -0.021  0.00  0.00    +0.040 A 
ATOM     11  O   LIG    1        1.151  -1.917  -0.020  0.00  0.00    -0.520 OA
ATOM     12  C   LIG    1       -1.268  -0.734   0.010  0.00  0.00    +0.340 C 
ATOM     13  C   LIG    1        2.376   1.454  -0.013  0.00  0.00    -0.050 A 
ENDBRANCH   1   2
BRANCH   1  15
ATOM     14  N   LIG    1       -0.799   5.335   0.037  0.00  0.00    -0.600 N 
ATOM     15  C   LIG    1       -0.473   4.027   0.027  0.00  0.00    +0.520 C 
ATOM     16  O   LIG    1       -1.345   3.184   0.031  0.00  0.00    -0.490 OA
BRANCH  14  17
ATOM     17  C   LIG    1        0.255   6.353   0.032  0.00  0.00    +0.270 C 
BRANCH  17  19
ATOM     18  C   LIG    1        1.709   7.777  -1.417  0.00  0.00    +0.030 C 
ATOM     19  C   LIG    1        0.608   6.714  -1.412  0.00  0.00    +0.000 C 
ENDBRANCH  17  19
ENDBRANCH  14  17
BRANCH  14  20
ATOM     20  C   LIG    1       -2.207   5.738   0.052  0.00  0.00    +0.330 C 
BRANCH  20  21
ATOM     21  C   LIG    1       -2.676   5.870   1.478  0.00  0.00    +0.500 C 
ATOM     22  N   LIG    1       -3.948   6.234   1.738  0.00  0.00    -0.620 N 
ATOM     23  C   LIG    1       -4.873   6.502   0.634  0.00  0.00    +0.280 C 
ATOM     24  C   LIG    1       -4.404   6.361   3.124  0.00  0.00    +0.290 C 
ATOM     25  O   LIG    1       -1.910   5.648   2.392  0.00  0.00    -0.530 OA
ENDBRANCH  20  21
ENDBRANCH  14  20
ENDBRANCH   1  15
TORSDOF 6
