REMARK  Name = ZINCnE000001TBxh.0
REMARK                            x       y       z     vdW  Elec       q    Type
REMARK                         _______ _______ _______ _____ _____    ______ ____
ROOT
ATOM      1  C   LIG    1       -2.508   0.982   0.019  0.00  0.00    +0.270 C 
ENDROOT
BRANCH   1   9
ATOM      2  C   LIG    1       -4.101  -0.124   1.468  0.00  0.00    +0.060 C 
ATOM      3  C   LIG    1       -4.474  -0.372   2.932  0.00  0.00    +0.060 C 
ATOM      4  C   LIG    1       -4.868   0.956   3.585  0.00  0.00    +0.280 C 
ATOM      5  C   LIG    1       -3.704   1.943   3.458  0.00  0.00    +0.030 C 
ATOM      6  C   LIG    1       -3.353   2.124   1.979  0.00  0.00    +0.180 C 
ATOM      7  F   LIG    1       -5.995   1.478   2.941  0.00  0.00    -0.200 F 
ATOM      8  F   LIG    1       -5.156   0.744   4.937  0.00  0.00    -0.210 F 
ATOM      9  N   LIG    1       -2.983   0.826   1.400  0.00  0.00    -0.500 NA
BRANCH   2  11
ATOM     10  O   LIG    1       -2.527  -1.778   0.851  0.00  0.00    -0.670 OA
ATOM     11  C   LIG    1       -3.694  -1.425   0.826  0.00  0.00    +0.500 C 
ATOM     12  O   LIG    1       -4.531  -2.126   0.283  0.00  0.00    -0.690 OA
ENDBRANCH   2  11
ENDBRANCH   1   9
BRANCH   1  13
ATOM     13  C   LIG    1       -1.215   1.757   0.017  0.00  0.00    +0.160 A 
ATOM     14  C   LIG    1       -0.013   1.076   0.008  0.00  0.00    +0.010 A 
ATOM     15  C   LIG    1        1.177   1.792   0.000  0.00  0.00    +0.070 A 
ATOM     16  C   LIG    1        1.116   3.174   0.008  0.00  0.00    -0.040 A 
ATOM     17  C   LIG    1       -0.133   3.797   0.023  0.00  0.00    +0.180 A 
ATOM     18  N   LIG    1       -1.248   3.074   0.029  0.00  0.00    -0.470 NA
BRANCH  17  19
ATOM     19  C   LIG    1       -0.216   5.272   0.031  0.00  0.00    -0.140 A 
ATOM     20  C   LIG    1       -1.360   5.987   0.040  0.00  0.00    +0.050 A 
ATOM     21  C   LIG    1       -1.184   7.354   0.050  0.00  0.00    +0.010 A 
ATOM     22  C   LIG    1        0.089   7.762   0.040  0.00  0.00    -0.050 A 
ATOM     23  S   LIG    1        1.160   6.367   0.023  0.00  0.00    +0.120 S 
ENDBRANCH  17  19
ENDBRANCH   1  13
TORSDOF 4
