REMARK  Name = ZINCrH00000tj0D3.1
REMARK                            x       y       z     vdW  Elec       q    Type
REMARK                         _______ _______ _______ _____ _____    ______ ____
ROOT
ATOM      1  N   LIG    1        6.788   1.882  -0.111  0.00  0.00    -0.600 N 
ATOM      2  C   LIG    1        6.493   2.512  -1.266  0.00  0.00    +0.530 C 
ATOM      3  O   LIG    1        5.747   1.991  -2.067  0.00  0.00    -0.510 OA
ATOM      4  C   LIG    1        7.770   2.462   0.808  0.00  0.00    +0.280 C 
ENDROOT
BRANCH   2   5
ATOM      5  C   LIG    1        7.090   3.864  -1.561  0.00  0.00    +0.170 C 
ATOM      6  C   LIG    1        6.477   4.907  -0.625  0.00  0.00    +0.040 C 
BRANCH   5   7
ATOM      7  N   LIG    1        6.807   4.230  -2.955  0.00  0.00    -0.660 NA
ATOM      8  H   LIG    1        5.873   4.602  -3.049  0.00  0.00    +0.350 HD
BRANCH   7   9
ATOM      9  C   LIG    1        7.806   5.180  -3.463  0.00  0.00    +0.190 C 
ATOM     10  C   LIG    1        9.023   4.412  -3.981  0.00  0.00    +0.050 C 
BRANCH   9  11
ATOM     11  C   LIG    1        7.206   5.988  -4.585  0.00  0.00    -0.080 A 
ATOM     12  C   LIG    1        6.387   5.376  -5.516  0.00  0.00    +0.050 A 
ATOM     13  C   LIG    1        5.832   6.117  -6.543  0.00  0.00    +0.020 A 
ATOM     14  C   LIG    1        6.105   7.468  -6.646  0.00  0.00    +0.020 A 
ATOM     15  C   LIG    1        6.929   8.080  -5.718  0.00  0.00    -0.040 A 
ATOM     16 CL   LIG    1        7.272   9.777  -5.846  0.00  0.00    -0.070 Cl
ATOM     17  C   LIG    1        7.480   7.339  -4.687  0.00  0.00    +0.030 A 
ENDBRANCH   9  11
ENDBRANCH   7   9
ENDBRANCH   5   7
ENDBRANCH   2   5
BRANCH   1  18
ATOM     18  C   LIG    1        6.126   0.619   0.224  0.00  0.00    +0.330 C 
BRANCH  18  21
ATOM     19  N   LIG    1        4.085  -0.117   1.411  0.00  0.00    -0.670 N 
ATOM     20  H   LIG    1        4.367  -1.033   1.267  0.00  0.00    +0.410 HD
ATOM     21  C   LIG    1        4.863   0.902   0.994  0.00  0.00    +0.500 C 
ATOM     22  O   LIG    1        4.546   2.047   1.240  0.00  0.00    -0.510 OA
BRANCH  19  27
ATOM     23  C   LIG    1       -0.842   0.958   4.010  0.00  0.00    +0.100 C 
ATOM     24  C   LIG    1        0.467   0.672   3.320  0.00  0.00    -0.100 A 
ATOM     25  C   LIG    1        0.580  -0.420   2.479  0.00  0.00    +0.030 A 
ATOM     26  C   LIG    1        1.780  -0.688   1.850  0.00  0.00    -0.010 A 
ATOM     27  C   LIG    1        2.870   0.148   2.053  0.00  0.00    +0.140 A 
ATOM     28  C   LIG    1        2.751   1.248   2.893  0.00  0.00    +0.020 A 
ATOM     29  C   LIG    1        1.550   1.506   3.524  0.00  0.00    +0.020 A 
ENDBRANCH  19  27
ENDBRANCH  18  21
ENDBRANCH   1  18
TORSDOF 7
