REMARK  Name = ZINCvU00000006EQ.0
REMARK                            x       y       z     vdW  Elec       q    Type
REMARK                         _______ _______ _______ _____ _____    ______ ____
ROOT
ATOM      1  C   LIG    1       -0.027   1.246   0.015  0.00  0.00    +0.600 C 
ATOM      2  N   LIG    1       -1.207   1.897   0.031  0.00  0.00    -0.680 N 
ATOM      3  H   LIG    1       -1.227   2.863   0.116  0.00  0.00    +0.400 HD
ATOM      4  O   LIG    1       -0.003   0.029  -0.006  0.00  0.00    -0.500 OA
ENDROOT
BRANCH   2   5
ATOM      5  C   LIG    1       -2.404   1.179  -0.076  0.00  0.00    +0.140 A 
ATOM      6  C   LIG    1       -3.484   1.726  -0.757  0.00  0.00    +0.000 A 
ATOM      7  C   LIG    1       -4.662   1.016  -0.868  0.00  0.00    +0.040 A 
ATOM      8  C   LIG    1       -4.771  -0.242  -0.288  0.00  0.00    +0.130 A 
ATOM      9  C   LIG    1       -3.694  -0.787   0.397  0.00  0.00    +0.010 A 
ATOM     10  C   LIG    1       -2.513  -0.079   0.503  0.00  0.00    +0.050 A 
BRANCH   8  11
ATOM     11  N   LIG    1       -5.969  -0.961  -0.396  0.00  0.00    -0.670 N 
ATOM     12  H   LIG    1       -6.265  -1.522   0.337  0.00  0.00    +0.410 HD
ATOM     13  C   LIG    1       -6.710  -0.871  -1.518  0.00  0.00    +0.510 C 
ATOM     14  O   LIG    1       -6.384  -0.105  -2.401  0.00  0.00    -0.500 OA
BRANCH  13  15
ATOM     15  C   LIG    1       -7.943  -1.723  -1.676  0.00  0.00    +0.160 C 
ATOM     16  C   LIG    1       -8.997  -1.320  -0.626  0.00  0.00    +0.020 C 
ATOM     17  C   LIG    1      -10.231  -0.909  -1.466  0.00  0.00    +0.020 C 
ATOM     18  C   LIG    1       -9.956  -1.619  -2.816  0.00  0.00    +0.210 C 
ATOM     19  O   LIG    1       -8.525  -1.504  -2.972  0.00  0.00    -0.350 OA
ENDBRANCH  13  15
ENDBRANCH   8  11
ENDBRANCH   2   5
BRANCH   1  21
ATOM     20  C   LIG    1        2.442   1.427  -0.000  0.00  0.00    +0.210 A 
ATOM     21  C   LIG    1        1.186   1.978   0.019  0.00  0.00    -0.330 A 
ATOM     22  S   LIG    1        1.311   3.732   0.042  0.00  0.00    +0.190 S 
ATOM     23  C   LIG    1        3.067   3.645   0.034  0.00  0.00    -0.070 A 
ATOM     24  C   LIG    1        3.466   2.343   0.008  0.00  0.00    -0.050 A 
BRANCH  23  25
ATOM     25  C   LIG    1        3.974   4.812   0.047  0.00  0.00    -0.040 A 
ATOM     26  C   LIG    1        5.357   4.624   0.039  0.00  0.00    +0.040 A 
ATOM     27  C   LIG    1        6.199   5.717   0.045  0.00  0.00    +0.010 A 
ATOM     28  C   LIG    1        5.674   6.997   0.071  0.00  0.00    +0.030 A 
ATOM     29  C   LIG    1        4.304   7.190   0.086  0.00  0.00    +0.020 A 
ATOM     30  C   LIG    1        3.452   6.106   0.074  0.00  0.00    +0.020 A 
ENDBRANCH  23  25
BRANCH  20  31
ATOM     31  O   LIG    1        2.656   0.086  -0.026  0.00  0.00    -0.270 OA
BRANCH  31  33
ATOM     32  C   LIG    1        4.057  -1.883  -0.072  0.00  0.00    +0.070 C 
ATOM     33  C   LIG    1        4.016  -0.354  -0.044  0.00  0.00    +0.170 C 
ENDBRANCH  31  33
ENDBRANCH  20  31
ENDBRANCH   1  21
TORSDOF 7
