REMARK  Name = ZINCrD00000hQ7rP.0
REMARK                            x       y       z     vdW  Elec       q    Type
REMARK                         _______ _______ _______ _____ _____    ______ ____
ROOT
ATOM      1  C   LIG    1       -0.328   2.311  -1.390  0.00  0.00    +0.580 C 
ATOM      2  N   LIG    1        0.565   3.147  -1.956  0.00  0.00    -0.610 N 
ATOM      3  C   LIG    1        0.238   4.371  -2.702  0.00  0.00    +0.250 C 
ATOM      4  C   LIG    1        1.572   5.013  -3.136  0.00  0.00    +0.050 C 
ATOM      5  C   LIG    1        2.589   4.418  -2.126  0.00  0.00    +0.040 C 
ATOM      6  C   LIG    1        2.030   2.990  -1.924  0.00  0.00    +0.270 C 
ATOM      7  O   LIG    1        0.049   1.277  -0.880  0.00  0.00    -0.520 OA
ENDROOT
BRANCH   5   8
ATOM      8  C   LIG    1        3.976   4.381  -2.714  0.00  0.00    -0.060 A 
ATOM      9  C   LIG    1        4.212   3.679  -3.881  0.00  0.00    +0.020 A 
ATOM     10  C   LIG    1        5.484   3.643  -4.424  0.00  0.00    +0.030 A 
ATOM     11  C   LIG    1        6.521   4.309  -3.801  0.00  0.00    +0.010 A 
ATOM     12  C   LIG    1        6.287   5.014  -2.628  0.00  0.00    +0.090 A 
ATOM     13  C   LIG    1        5.009   5.053  -2.089  0.00  0.00    +0.010 A 
BRANCH  12  14
ATOM     14  O   LIG    1        7.305   5.670  -2.013  0.00  0.00    -0.260 OA
BRANCH  14  15
ATOM     15  C   LIG    1        7.864   5.095  -0.916  0.00  0.00    +0.120 A 
ATOM     16  C   LIG    1        8.961   5.685  -0.305  0.00  0.00    -0.020 A 
ATOM     17  C   LIG    1        9.524   5.101   0.814  0.00  0.00    +0.050 A 
ATOM     18  C   LIG    1        9.001   3.925   1.318  0.00  0.00    -0.020 A 
ATOM     19  C   LIG    1        7.911   3.332   0.708  0.00  0.00    +0.050 A 
ATOM     20  C   LIG    1        7.341   3.914  -0.408  0.00  0.00    -0.070 A 
ENDBRANCH  14  15
ENDBRANCH  12  14
ENDBRANCH   5   8
BRANCH   1  21
ATOM     21  C   LIG    1       -1.794   2.657  -1.396  0.00  0.00    -0.680 C 
ATOM     22  C   LIG    1       -2.784   1.534  -1.711  0.00  0.00    +0.160 C 
ATOM     23  C   LIG    1       -2.521   2.633  -2.742  0.00  0.00    +0.130 C 
BRANCH  21  25
ATOM     24  C   LIG    1       -1.705   3.203   1.367  0.00  0.00    -0.240 C 
ATOM     25  S   LIG    1       -2.307   3.912  -0.190  0.00  0.00    +2.460 S 
ATOM     26  O   LIG    1       -3.727   3.950  -0.152  0.00  0.00    -0.920 OA
ATOM     27  O   LIG    1       -1.588   5.110  -0.450  0.00  0.00    -0.920 OA
ENDBRANCH  21  25
ENDBRANCH   1  21
TORSDOF 5
