REMARK  Name = ZINCqH0000008FjL.0
REMARK                            x       y       z     vdW  Elec       q    Type
REMARK                         _______ _______ _______ _____ _____    ______ ____
ROOT
ATOM      1  C   LIG    1        0.906  -2.314  -0.405  0.00  0.00    +0.030 C 
ATOM      2  C   LIG    1        1.049  -0.805  -0.197  0.00  0.00    -0.010 C 
ATOM      3  C   LIG    1        0.079  -0.065  -1.122  0.00  0.00    +0.040 C 
ATOM      4  C   LIG    1        0.040   1.412  -0.728  0.00  0.00    +0.090 C 
ATOM      5  C   LIG    1        1.467   1.941  -0.648  0.00  0.00    -0.070 A 
ATOM      6  C   LIG    1        2.539   1.145  -0.561  0.00  0.00    -0.180 A 
ATOM      7  S   LIG    1        4.029   2.075  -0.486  0.00  0.00    +0.180 S 
ATOM      8  C   LIG    1        3.172   3.592  -0.576  0.00  0.00    +0.100 A 
ATOM      9  N   LIG    1        3.654   4.843  -0.573  0.00  0.00    -0.490 NA
ATOM     10  C   LIG    1        2.781   5.832  -0.652  0.00  0.00    +0.380 A 
ATOM     11  N   LIG    1        1.478   5.660  -0.733  0.00  0.00    -0.580 NA
ATOM     12  C   LIG    1        0.904   4.457  -0.743  0.00  0.00    +0.500 A 
ATOM     13  C   LIG    1        1.793   3.351  -0.660  0.00  0.00    -0.220 A 
ATOM     14  C   LIG    1        2.479  -0.372  -0.530  0.00  0.00    +0.130 C 
ENDROOT
BRANCH  12  15
ATOM     15  N   LIG    1       -0.467   4.295  -0.828  0.00  0.00    -0.820 N 
ATOM     16  H   LIG    1       -1.035   5.057  -1.025  0.00  0.00    +0.410 HD
ATOM     17  H   LIG    1       -0.862   3.419  -0.691  0.00  0.00    +0.420 HD
ENDBRANCH  12  15
BRANCH  10  18
ATOM     18  C   LIG    1        3.310   7.243  -0.651  0.00  0.00    +0.210 C 
BRANCH  18  19
ATOM     19  S   LIG    1        3.631   7.769  -2.352  0.00  0.00    +0.060 S 
BRANCH  19  20
ATOM     20  C   LIG    1        4.222   9.403  -2.061  0.00  0.00    +0.190 A 
ATOM     21  N   LIG    1        4.302   9.871  -0.831  0.00  0.00    -0.480 NA
ATOM     22  C   LIG    1        4.750  11.107  -0.586  0.00  0.00    +0.240 A 
ATOM     23  C   LIG    1        5.131  11.925  -1.586  0.00  0.00    +0.160 A 
ATOM     24  N   LIG    1        5.065  11.494  -2.886  0.00  0.00    -0.340 N 
ATOM     25  C   LIG    1        5.367  12.067  -4.082  0.00  0.00    +0.120 A 
ATOM     26  C   LIG    1        5.095  11.152  -5.043  0.00  0.00    +0.220 A 
ATOM     27  N   LIG    1        4.638  10.044  -4.457  0.00  0.00    -0.450 NA
ATOM     28  C   LIG    1        4.610  10.227  -3.148  0.00  0.00    +0.170 A 
ENDBRANCH  19  20
ENDBRANCH  18  19
ENDBRANCH  10  18
TORSDOF 4
