REMARK  Name = ZINCrD000000Aomo.0
REMARK                            x       y       z     vdW  Elec       q    Type
REMARK                         _______ _______ _______ _____ _____    ______ ____
ROOT
ATOM      1  O   LIG    1       -2.269   4.057  -4.890  0.00  0.00    -0.460 OA
ATOM      2  C   LIG    1       -3.052   3.149  -5.068  0.00  0.00    +0.510 C 
ATOM      3  N   LIG    1       -3.054   2.087  -4.238  0.00  0.00    -0.630 N 
ATOM      4  H   LIG    1       -3.680   1.361  -4.380  0.00  0.00    +0.430 HD
ENDROOT
BRANCH   3   5
ATOM      5  C   LIG    1       -2.158   2.034  -3.176  0.00  0.00    +0.270 A 
ATOM      6  N   LIG    1       -1.282   2.948  -2.897  0.00  0.00    -0.470 NA
ATOM      7  C   LIG    1       -0.513   2.737  -1.846  0.00  0.00    +0.260 A 
ATOM      8  C   LIG    1       -0.742   1.585  -1.213  0.00  0.00    -0.240 A 
ATOM      9  S   LIG    1       -2.050   0.753  -2.049  0.00  0.00    +0.140 S 
BRANCH   8  10
ATOM     10  C   LIG    1       -0.013   1.086   0.008  0.00  0.00    +0.200 C 
BRANCH  10  11
ATOM     11  C   LIG    1       -0.718   1.572   1.248  0.00  0.00    -0.070 A 
ATOM     12  C   LIG    1       -0.359   2.779   1.818  0.00  0.00    +0.050 A 
ATOM     13  C   LIG    1       -1.008   3.229   2.953  0.00  0.00    +0.030 A 
ATOM     14  C   LIG    1       -2.011   2.466   3.525  0.00  0.00    +0.070 A 
ATOM     15  C   LIG    1       -2.367   1.253   2.956  0.00  0.00    +0.070 A 
ATOM     16  F   LIG    1       -3.346   0.506   3.513  0.00  0.00    -0.130 F 
ATOM     17  F   LIG    1       -2.642   2.903   4.636  0.00  0.00    -0.130 F 
ATOM     18  C   LIG    1       -1.720   0.807   1.817  0.00  0.00    +0.030 A 
ENDBRANCH  10  11
ENDBRANCH   8  10
ENDBRANCH   3   5
BRANCH   2  19
ATOM     19  C   LIG    1       -4.024   3.207  -6.219  0.00  0.00    +0.330 C 
BRANCH  19  20
ATOM     20  N   LIG    1       -3.823   4.451  -6.965  0.00  0.00    -0.720 N 
ATOM     21  H   LIG    1       -3.141   5.081  -6.684  0.00  0.00    +0.410 HD
ATOM     22  C   LIG    1       -4.585   4.720  -8.044  0.00  0.00    +0.570 C 
ATOM     23  O   LIG    1       -5.440   3.931  -8.397  0.00  0.00    -0.530 OA
BRANCH  22  24
ATOM     24  C   LIG    1       -4.382   5.976  -8.797  0.00  0.00    -0.140 A 
ATOM     25  C   LIG    1       -3.406   6.887  -8.391  0.00  0.00    +0.050 A 
ATOM     26  C   LIG    1       -3.218   8.055  -9.102  0.00  0.00    +0.000 A 
ATOM     27  C   LIG    1       -4.003   8.328 -10.209  0.00  0.00    +0.040 A 
ATOM     28  C   LIG    1       -4.976   7.432 -10.613  0.00  0.00    +0.000 A 
ATOM     29  C   LIG    1       -5.170   6.258  -9.915  0.00  0.00    +0.080 A 
ENDBRANCH  22  24
ENDBRANCH  19  20
ENDBRANCH   2  19
TORSDOF 6
