REMARK  Name = ZINCpk000000n1Kx.0
REMARK                            x       y       z     vdW  Elec       q    Type
REMARK                         _______ _______ _______ _____ _____    ______ ____
ROOT
ATOM      1  C   LIG    1        0.023  -0.522   1.442  0.00  0.00    +0.210 C 
ENDROOT
BRANCH   1   2
ATOM      2  O   LIG    1        1.189  -0.033   2.107  0.00  0.00    -0.540 OA
ATOM      3  H   LIG    1        2.020  -0.305   1.694  0.00  0.00    +0.380 HD
ENDBRANCH   1   2
BRANCH   1   4
ATOM      4  C   LIG    1        0.043  -2.052   1.433  0.00  0.00    +0.180 C 
BRANCH   4   5
ATOM      5  O   LIG    1       -0.055  -2.537   2.774  0.00  0.00    -0.300 OA
BRANCH   5   9
ATOM      6  C   LIG    1       -0.042  -6.628   3.290  0.00  0.00    -0.210 A 
ATOM      7  C   LIG    1       -0.139  -5.780   4.400  0.00  0.00    +0.120 A 
ATOM      8  C   LIG    1       -0.143  -4.420   4.223  0.00  0.00    -0.020 A 
ATOM      9  C   LIG    1       -0.050  -3.883   2.944  0.00  0.00    +0.160 A 
ATOM     10  C   LIG    1        0.041  -4.720   1.837  0.00  0.00    -0.100 A 
ATOM     11  C   LIG    1        0.051  -6.081   2.004  0.00  0.00    +0.110 A 
BRANCH   6  13
ATOM     12  C   LIG    1        0.068  -8.995   2.277  0.00  0.00    +0.080 C 
ATOM     13  C   LIG    1       -0.037  -8.085   3.474  0.00  0.00    +0.400 C 
ATOM     14  O   LIG    1       -0.118  -8.556   4.589  0.00  0.00    -0.460 OA
ENDBRANCH   6  13
ENDBRANCH   5   9
ENDBRANCH   4   5
ENDBRANCH   1   4
BRANCH   1  15
ATOM     15  C   LIG    1        0.002  -0.004   0.002  0.00  0.00    +0.320 C 
BRANCH  15  16
ATOM     16  N   LIG    1       -0.018   1.461   0.010  0.00  0.00    -0.450 N 
ATOM     17  N   LIG    1       -1.238   2.142   0.020  0.00  0.00    +0.080 NA
ATOM     18  N   LIG    1       -1.322   3.423   0.033  0.00  0.00    -0.190 NA
ATOM     19  C   LIG    1       -0.222   4.215   0.027  0.00  0.00    +0.060 A 
ATOM     20  C   LIG    1       -0.329   5.608   0.035  0.00  0.00    +0.080 A 
ATOM     21  C   LIG    1        0.810   6.381   0.028  0.00  0.00    +0.070 A 
ATOM     22  C   LIG    1        2.068   5.793   0.013  0.00  0.00    +0.040 A 
ATOM     23  C   LIG    1        2.200   4.422   0.004  0.00  0.00    +0.100 A 
ATOM     24  C   LIG    1        1.060   3.621   0.011  0.00  0.00    -0.150 A 
ATOM     25  C   LIG    1        1.146   2.153   0.003  0.00  0.00    +0.540 A 
ATOM     26  O   LIG    1        2.221   1.582  -0.011  0.00  0.00    -0.500 OA
ENDBRANCH  15  16
ENDBRANCH   1  15
TORSDOF 7
