REMARK  Name = ZINCrD000003GdaN.0
REMARK                            x       y       z     vdW  Elec       q    Type
REMARK                         _______ _______ _______ _____ _____    ______ ____
ROOT
ATOM      1  C   LIG    1       -6.466  -3.954  -2.040  0.00  0.00    +0.230 C 
ENDROOT
BRANCH   1   2
ATOM      2  C   LIG    1       -5.191  -3.173  -1.851  0.00  0.00    -0.130 A 
ATOM      3  C   LIG    1       -4.485  -2.727  -2.953  0.00  0.00    +0.070 A 
ATOM      4  C   LIG    1       -3.316  -2.011  -2.783  0.00  0.00    -0.020 A 
ATOM      5  C   LIG    1       -2.851  -1.740  -1.504  0.00  0.00    +0.140 A 
ATOM      6  C   LIG    1       -3.558  -2.193  -0.400  0.00  0.00    -0.080 A 
ATOM      7  C   LIG    1       -4.729  -2.904  -0.576  0.00  0.00    +0.070 A 
BRANCH   5   8
ATOM      8  O   LIG    1       -1.701  -1.035  -1.334  0.00  0.00    -0.310 OA
BRANCH   8   9
ATOM      9  C   LIG    1       -1.282  -0.793   0.011  0.00  0.00    +0.260 C 
BRANCH   9  10
ATOM     10  C   LIG    1        0.002  -0.004   0.002  0.00  0.00    -0.050 A 
ATOM     11  C   LIG    1       -0.017   1.382   0.010  0.00  0.00    -0.010 A 
ATOM     12  C   LIG    1        1.181   2.072   0.002  0.00  0.00    +0.260 A 
ATOM     13  N   LIG    1        2.331   1.427  -0.013  0.00  0.00    -0.480 NA
ATOM     14  C   LIG    1        2.387   0.109  -0.020  0.00  0.00    +0.260 A 
ATOM     15  C   LIG    1        1.230  -0.647  -0.013  0.00  0.00    -0.010 A 
ENDBRANCH   9  10
ENDBRANCH   8   9
ENDBRANCH   5   8
ENDBRANCH   1   2
BRANCH   1  18
ATOM     16  C   LIG    1       -5.783  -7.446  -1.604  0.00  0.00    +0.170 A 
ATOM     17  N   LIG    1       -6.089  -6.282  -1.082  0.00  0.00    -0.430 NA
ATOM     18  C   LIG    1       -6.147  -5.425  -2.117  0.00  0.00    +0.180 A 
ATOM     19  N   LIG    1       -5.883  -6.100  -3.196  0.00  0.00    -0.360 NA
ATOM     20  O   LIG    1       -5.666  -7.261  -2.923  0.00  0.00    +0.090 OA
BRANCH  16  22
ATOM     21  C   LIG    1       -6.928  -9.165  -0.232  0.00  0.00    +0.120 C 
ATOM     22  C   LIG    1       -5.598  -8.743  -0.860  0.00  0.00    +0.190 C 
BRANCH  22  23
ATOM     23  C   LIG    1       -5.126  -9.826  -1.831  0.00  0.00    +0.420 C 
ATOM     24  F   LIG    1       -6.083  -9.998  -2.837  0.00  0.00    -0.170 F 
ATOM     25  F   LIG    1       -4.954 -11.030  -1.140  0.00  0.00    -0.170 F 
ATOM     26  F   LIG    1       -3.910  -9.440  -2.405  0.00  0.00    -0.170 F 
ENDBRANCH  22  23
BRANCH  22  27
ATOM     27  N   LIG    1       -4.593  -8.562   0.197  0.00  0.00    -0.800 NA
ATOM     28  H   LIG    1       -3.705  -8.283  -0.193  0.00  0.00    +0.360 HD
ATOM     29  H   LIG    1       -4.497  -9.399   0.752  0.00  0.00    +0.370 HD
ENDBRANCH  22  27
ENDBRANCH  16  22
ENDBRANCH   1  18
TORSDOF 8
