REMARK  Name = ZINCrD0000071VJG.0
REMARK                            x       y       z     vdW  Elec       q    Type
REMARK                         _______ _______ _______ _____ _____    ______ ____
ROOT
ATOM      1  C   LIG    1        5.507  -4.045  -0.070  0.00  0.00    -0.200 A 
ATOM      2  C   LIG    1        5.193  -2.702  -0.065  0.00  0.00    +0.070 A 
ATOM      3  S   LIG    1        6.614  -1.759  -0.072  0.00  0.00    +0.360 S 
ATOM      4  C   LIG    1        7.634  -3.189  -0.090  0.00  0.00    -0.340 A 
ATOM      5  C   LIG    1        6.872  -4.301  -0.089  0.00  0.00    +0.040 A 
ATOM      6  C   LIG    1        7.449  -5.694  -0.102  0.00  0.00    +0.120 C 
ENDROOT
BRANCH   4   7
ATOM      7  C   LIG    1        9.098  -3.175  -0.103  0.00  0.00    +0.600 C 
ATOM      8  O   LIG    1        9.717  -4.223  -0.114  0.00  0.00    -0.530 OA
ATOM      9  N   LIG    1        9.761  -2.001  -0.103  0.00  0.00    -0.850 N 
ATOM     10  H   LIG    1       10.731  -1.992  -0.112  0.00  0.00    +0.410 HD
ATOM     11  H   LIG    1        9.268  -1.166  -0.095  0.00  0.00    +0.400 HD
ENDBRANCH   4   7
BRANCH   2  12
ATOM     12  N   LIG    1        3.909  -2.193  -0.049  0.00  0.00    -0.620 N 
ATOM     13  H   LIG    1        3.148  -2.795  -0.045  0.00  0.00    +0.420 HD
ATOM     14  C   LIG    1        3.713  -0.860  -0.040  0.00  0.00    +0.510 C 
ATOM     15  O   LIG    1        4.663  -0.107  -0.044  0.00  0.00    -0.470 OA
BRANCH  14  16
ATOM     16  C   LIG    1        2.312  -0.304  -0.023  0.00  0.00    +0.270 C 
BRANCH  16  17
ATOM     17  O   LIG    1        2.366   1.124  -0.015  0.00  0.00    -0.280 OA
BRANCH  17  18
ATOM     18  C   LIG    1        1.179   1.786   0.000  0.00  0.00    +0.130 A 
ATOM     19  C   LIG    1       -0.013   1.076   0.008  0.00  0.00    -0.050 A 
ATOM     20  C   LIG    1       -1.218   1.751   0.017  0.00  0.00    +0.070 A 
ATOM     21  C   LIG    1       -1.237   3.134   0.031  0.00  0.00    -0.060 A 
ATOM     22  C   LIG    1       -0.050   3.844   0.023  0.00  0.00    +0.070 A 
ATOM     23 CL   LIG    1       -2.753   3.980   0.050  0.00  0.00    -0.060 Cl
ATOM     24  C   LIG    1        1.157   3.173   0.008  0.00  0.00    -0.090 A 
ATOM     25  C   LIG    1        2.450   3.947  -0.001  0.00  0.00    +0.110 C 
ENDBRANCH  17  18
ENDBRANCH  16  17
ENDBRANCH  14  16
ENDBRANCH   2  12
BRANCH   1  26
ATOM     26  C   LIG    1        4.493  -5.105  -0.059  0.00  0.00    +0.540 C 
ATOM     27  O   LIG    1        4.061  -5.544  -1.108  0.00  0.00    -0.490 OA
BRANCH  26  28
ATOM     28  O   LIG    1        4.040  -5.594   1.113  0.00  0.00    -0.350 OA
BRANCH  28  30
ATOM     29  C   LIG    1        2.649  -7.065   2.465  0.00  0.00    +0.070 C 
ATOM     30  C   LIG    1        3.037  -6.641   1.047  0.00  0.00    +0.200 C 
ENDBRANCH  28  30
ENDBRANCH  26  28
ENDBRANCH   1  26
TORSDOF 8
