REMARK  Name = ZINCzw0000000aJU.0
REMARK                            x       y       z     vdW  Elec       q    Type
REMARK                         _______ _______ _______ _____ _____    ______ ____
ROOT
ATOM      1  C   LIG    1        4.248   5.666  -0.514  0.00  0.00    +0.420 A 
ATOM      2  N   LIG    1        4.104   6.866   0.011  0.00  0.00    -0.510 NA
ATOM      3  C   LIG    1        4.805   7.757  -0.692  0.00  0.00    +0.340 A 
ATOM      4  C   LIG    1        5.425   7.076  -1.734  0.00  0.00    -0.130 A 
ATOM      5  C   LIG    1        6.230   7.790  -2.639  0.00  0.00    +0.590 A 
ATOM      6  N   LIG    1        6.384   9.120  -2.477  0.00  0.00    -0.650 N 
ATOM      7  H   LIG    1        6.939   9.616  -3.100  0.00  0.00    +0.440 HD
ATOM      8  C   LIG    1        5.780   9.770  -1.467  0.00  0.00    +0.710 A 
ATOM      9  O   LIG    1        5.942  10.970  -1.353  0.00  0.00    -0.520 OA
ATOM     10  O   LIG    1        6.783   7.213  -3.559  0.00  0.00    -0.500 OA
ATOM     11  N   LIG    1        5.002   9.124  -0.578  0.00  0.00    -0.510 N 
ATOM     12  C   LIG    1        4.361   9.868   0.509  0.00  0.00    +0.360 C 
ATOM     13  N   LIG    1        5.057   5.743  -1.603  0.00  0.00    -0.380 N 
ENDROOT
BRANCH   1  17
ATOM     14  N   LIG    1        2.093   3.004   1.810  0.00  0.00    -0.390 N 
ATOM     15  C   LIG    1        1.588   3.319   0.467  0.00  0.00    +0.280 C 
ATOM     16  C   LIG    1        2.200   4.638  -0.012  0.00  0.00    +0.260 C 
ATOM     17  N   LIG    1        3.664   4.515  -0.037  0.00  0.00    -0.460 N 
ATOM     18  C   LIG    1        4.182   4.175   1.296  0.00  0.00    +0.250 C 
ATOM     19  C   LIG    1        3.554   2.860   1.764  0.00  0.00    +0.280 C 
ATOM     20  H   LIG    1        1.849   3.750   2.444  0.00  0.00    +0.420 HD
BRANCH  14  21
ATOM     21  C   LIG    1        1.492   1.748   2.277  0.00  0.00    +0.320 C 
BRANCH  21  27
ATOM     22  C   LIG    1       -3.195   0.998   0.692  0.00  0.00    +0.100 C 
ATOM     23  C   LIG    1       -2.235   1.578   1.698  0.00  0.00    -0.080 A 
ATOM     24  C   LIG    1       -2.715   2.284   2.785  0.00  0.00    +0.060 A 
ATOM     25  C   LIG    1       -1.834   2.812   3.710  0.00  0.00    +0.030 A 
ATOM     26  C   LIG    1       -0.473   2.643   3.543  0.00  0.00    -0.070 A 
ATOM     27  C   LIG    1        0.008   1.937   2.456  0.00  0.00    -0.160 A 
ATOM     28  C   LIG    1        0.488   3.223   4.549  0.00  0.00    +0.090 C 
ATOM     29  C   LIG    1       -0.873   1.405   1.533  0.00  0.00    +0.040 A 
ENDBRANCH  21  27
ENDBRANCH  14  21
ENDBRANCH   1  17
BRANCH  13  30
ATOM     30  C   LIG    1        5.462   4.635  -2.471  0.00  0.00    +0.330 C 
BRANCH  30  31
ATOM     31  C   LIG    1        4.523   4.561  -3.676  0.00  0.00    +0.080 C 
BRANCH  31  32
ATOM     32  C   LIG    1        4.863   3.350  -4.506  0.00  0.00    -0.090 A 
ATOM     33  C   LIG    1        5.785   3.450  -5.530  0.00  0.00    +0.020 A 
ATOM     34  C   LIG    1        6.101   2.338  -6.288  0.00  0.00    +0.020 A 
ATOM     35  C   LIG    1        5.487   1.127  -6.027  0.00  0.00    +0.020 A 
ATOM     36  C   LIG    1        4.561   1.028  -5.006  0.00  0.00    +0.000 A 
ATOM     37  C   LIG    1        4.249   2.139  -4.245  0.00  0.00    +0.010 A 
ENDBRANCH  31  32
ENDBRANCH  30  31
ENDBRANCH  13  30
TORSDOF 6
