REMARK  Name = ZINCqH0000008xu5.0
REMARK                            x       y       z     vdW  Elec       q    Type
REMARK                         _______ _______ _______ _____ _____    ______ ____
ROOT
ATOM      1  C   LIG    1        0.308   1.494   0.222  0.00  0.00    +0.110 C 
ENDROOT
BRANCH   1   3
ATOM      2  N   LIG    1        0.597  -0.673  -0.934  0.00  0.00    -0.600 N 
ATOM      3  C   LIG    1        0.242  -0.011   0.184  0.00  0.00    +0.540 C 
ATOM      4  O   LIG    1       -0.129  -0.626   1.162  0.00  0.00    -0.520 OA
ATOM      5  C   LIG    1        1.045   0.070  -2.115  0.00  0.00    +0.290 C 
BRANCH   2   7
ATOM      6  C   LIG    1       -0.308  -2.581  -2.168  0.00  0.00    +0.040 C 
ATOM      7  C   LIG    1        0.533  -2.136  -0.971  0.00  0.00    +0.290 C 
BRANCH   7   8
ATOM      8  C   LIG    1        1.926  -2.696  -1.100  0.00  0.00    -0.100 A 
ATOM      9  C   LIG    1        2.714  -2.348  -2.181  0.00  0.00    +0.010 A 
ATOM     10  C   LIG    1        3.993  -2.859  -2.298  0.00  0.00    +0.000 A 
ATOM     11  C   LIG    1        4.482  -3.724  -1.337  0.00  0.00    +0.000 A 
ATOM     12  C   LIG    1        3.693  -4.077  -0.259  0.00  0.00    +0.000 A 
ATOM     13  C   LIG    1        2.415  -3.563  -0.140  0.00  0.00    +0.020 A 
ENDBRANCH   7   8
ENDBRANCH   2   7
ENDBRANCH   1   3
BRANCH   1  14
ATOM     14  S   LIG    1       -0.227   2.081   1.848  0.00  0.00    +0.090 S 
BRANCH  14  15
ATOM     15  C   LIG    1       -0.056   3.820   1.617  0.00  0.00    +0.150 A 
ATOM     16  N   LIG    1        0.359   4.426   0.529  0.00  0.00    -0.290 NA
ATOM     17  N   LIG    1        0.356   5.699   0.709  0.00  0.00    -0.280 NA
ATOM     18  C   LIG    1       -0.048   5.981   1.915  0.00  0.00    +0.400 A 
ATOM     19  N   LIG    1       -0.326   4.793   2.539  0.00  0.00    -0.420 N 
BRANCH  19  20
ATOM     20  C   LIG    1       -0.790   4.614   3.851  0.00  0.00    +0.060 A 
ATOM     21  C   LIG    1       -2.045   5.080   4.215  0.00  0.00    +0.070 A 
ATOM     22  C   LIG    1       -2.500   4.901   5.507  0.00  0.00    +0.030 A 
ATOM     23  C   LIG    1       -1.707   4.258   6.439  0.00  0.00    +0.080 A 
ATOM     24  C   LIG    1       -0.455   3.792   6.082  0.00  0.00    +0.010 A 
ATOM     25  C   LIG    1        0.004   3.962   4.788  0.00  0.00    +0.120 A 
ATOM     26  F   LIG    1        1.225   3.502   4.437  0.00  0.00    -0.120 F 
ENDBRANCH  19  20
ENDBRANCH  14  15
ENDBRANCH   1  14
TORSDOF 6
