REMARK  Name = ZINCrD000000AYPQ.0
REMARK                            x       y       z     vdW  Elec       q    Type
REMARK                         _______ _______ _______ _____ _____    ______ ____
ROOT
ATOM      1  N   LIG    1       -0.153   0.717   0.034  0.00  0.00    -0.730 N 
ATOM      2  H   LIG    1       -0.207  -0.236  -0.138  0.00  0.00    +0.400 HD
ATOM      3  C   LIG    1       -1.280   1.441   0.180  0.00  0.00    +0.560 C 
ATOM      4  O   LIG    1       -1.212   2.635   0.396  0.00  0.00    -0.510 OA
ENDROOT
BRANCH   3   5
ATOM      5  C   LIG    1       -2.596   0.783   0.079  0.00  0.00    -0.140 A 
ATOM      6  C   LIG    1       -2.680  -0.605  -0.053  0.00  0.00    +0.050 A 
ATOM      7  C   LIG    1       -3.913  -1.213  -0.147  0.00  0.00    +0.010 A 
ATOM      8  C   LIG    1       -5.073  -0.455  -0.110  0.00  0.00    +0.050 A 
ATOM      9  C   LIG    1       -5.007   0.918   0.020  0.00  0.00    +0.010 A 
ATOM     10  C   LIG    1       -3.773   1.548   0.121  0.00  0.00    +0.200 A 
BRANCH  10  11
ATOM     11  N   LIG    1       -3.704   2.929   0.258  0.00  0.00    -0.690 N 
ATOM     12  H   LIG    1       -3.825   3.337   1.129  0.00  0.00    +0.410 HD
BRANCH  11  13
ATOM     13  C   LIG    1       -3.459   3.731  -0.862  0.00  0.00    +0.230 A 
ATOM     14  C   LIG    1       -3.288   3.149  -2.111  0.00  0.00    -0.040 A 
ATOM     15  C   LIG    1       -3.052   3.943  -3.216  0.00  0.00    +0.020 A 
ATOM     16  C   LIG    1       -2.974   5.319  -3.077  0.00  0.00    +0.040 A 
ATOM     17  C   LIG    1       -3.139   5.901  -1.831  0.00  0.00    +0.020 A 
ATOM     18  F   LIG    1       -2.737   6.093  -4.158  0.00  0.00    -0.150 F 
ATOM     19  C   LIG    1       -3.381   5.111  -0.725  0.00  0.00    -0.030 A 
ENDBRANCH  11  13
ENDBRANCH  10  11
ENDBRANCH   3   5
BRANCH   1  20
ATOM     20  C   LIG    1        1.155   1.371   0.128  0.00  0.00    +0.270 C 
BRANCH  20  21
ATOM     21  C   LIG    1        2.260   0.334  -0.081  0.00  0.00    +0.270 C 
BRANCH  21  24
ATOM     22  O   LIG    1        4.627  -0.930  -0.354  0.00  0.00    -0.520 OA
ATOM     23  C   LIG    1        4.695   0.265  -0.138  0.00  0.00    +0.610 C 
ATOM     24  N   LIG    1        3.568   0.988   0.014  0.00  0.00    -0.720 N 
ATOM     25  H   LIG    1        3.622   1.941   0.186  0.00  0.00    +0.410 HD
BRANCH  23  26
ATOM     26  C   LIG    1        6.004   0.920  -0.043  0.00  0.00    -0.090 A 
ATOM     27  C   LIG    1        7.218   0.309  -0.171  0.00  0.00    +0.050 A 
ATOM     28  C   LIG    1        8.192   1.307  -0.013  0.00  0.00    -0.070 A 
ATOM     29  C   LIG    1        7.537   2.468   0.210  0.00  0.00    +0.210 A 
ATOM     30  O   LIG    1        6.220   2.231   0.191  0.00  0.00    -0.170 OA
ENDBRANCH  23  26
ENDBRANCH  21  24
ENDBRANCH  20  21
ENDBRANCH   1  20
TORSDOF 7
