REMARK  Name = ZINCrH000004rpmO.2
REMARK                            x       y       z     vdW  Elec       q    Type
REMARK                         _______ _______ _______ _____ _____    ______ ____
ROOT
ATOM      1  C   LIG    1       -2.133  -4.211   0.090  0.00  0.00    +0.210 C 
ATOM      2  C   LIG    1       -1.348  -4.591  -1.168  0.00  0.00    +0.040 C 
ATOM      3  C   LIG    1       -2.125  -4.128  -2.404  0.00  0.00    +0.020 C 
ATOM      4  C   LIG    1       -3.517  -4.764  -2.393  0.00  0.00    +0.170 C 
ATOM      5  N   LIG    1       -4.227  -4.369  -1.170  0.00  0.00    -0.520 NA
ATOM      6  C   LIG    1       -3.525  -4.844   0.029  0.00  0.00    +0.190 C 
ENDROOT
BRANCH   1  10
ATOM      7  N   LIG    1       -3.161  -0.857   1.186  0.00  0.00    -0.690 N 
ATOM      8  H   LIG    1       -2.872  -0.314   0.436  0.00  0.00    +0.410 HD
ATOM      9  C   LIG    1       -2.956  -2.189   1.172  0.00  0.00    +0.720 C 
ATOM     10  N   LIG    1       -2.261  -2.754   0.165  0.00  0.00    -0.710 N 
ATOM     11  H   LIG    1       -1.846  -2.195  -0.511  0.00  0.00    +0.400 HD
ATOM     12  O   LIG    1       -3.398  -2.881   2.069  0.00  0.00    -0.580 OA
BRANCH   7  17
ATOM     13  C   LIG    1       -5.715   1.573   5.632  0.00  0.00    +0.090 C 
ATOM     14  C   LIG    1       -5.037   0.927   4.451  0.00  0.00    -0.090 A 
ATOM     15  C   LIG    1       -4.220  -0.172   4.640  0.00  0.00    +0.040 A 
ATOM     16  C   LIG    1       -3.597  -0.766   3.560  0.00  0.00    +0.030 A 
ATOM     17  C   LIG    1       -3.791  -0.257   2.282  0.00  0.00    +0.180 A 
ATOM     18  C   LIG    1       -4.611   0.848   2.095  0.00  0.00    -0.010 A 
ATOM     19  C   LIG    1       -5.232   1.437   3.179  0.00  0.00    -0.020 A 
ATOM     20 CL   LIG    1       -6.258   2.818   2.946  0.00  0.00    -0.060 Cl
ENDBRANCH   7  17
ENDBRANCH   1  10
BRANCH   5  21
ATOM     21  C   LIG    1       -5.616  -4.847  -1.190  0.00  0.00    +0.250 C 
BRANCH  21  22
ATOM     22  C   LIG    1       -5.630  -6.353  -1.143  0.00  0.00    -0.120 A 
ATOM     23  C   LIG    1       -5.611  -7.082  -2.317  0.00  0.00    +0.010 A 
ATOM     24  C   LIG    1       -5.619  -8.464  -2.273  0.00  0.00    +0.000 A 
ATOM     25  C   LIG    1       -5.655  -9.117  -1.056  0.00  0.00    +0.000 A 
ATOM     26  C   LIG    1       -5.679  -8.388   0.119  0.00  0.00    +0.000 A 
ATOM     27  C   LIG    1       -5.666  -7.006   0.075  0.00  0.00    +0.010 A 
ENDBRANCH  21  22
ENDBRANCH   5  21
BRANCH   1  28
ATOM     28  C   LIG    1       -1.392  -4.723   1.328  0.00  0.00    +0.180 C 
BRANCH  28  29
ATOM     29  O   LIG    1       -0.141  -4.044   1.448  0.00  0.00    -0.570 OA
ATOM     30  H   LIG    1        0.384  -4.319   2.213  0.00  0.00    +0.380 HD
ENDBRANCH  28  29
ENDBRANCH   1  28
TORSDOF 6
