REMARK  Name = ZINCkj00000xeuwi.1
REMARK                            x       y       z     vdW  Elec       q    Type
REMARK                         _______ _______ _______ _____ _____    ______ ____
ROOT
ATOM      1  C   LIG    1        0.099   1.379  -2.431  0.00  0.00    +0.150 C 
ATOM      2  C   LIG    1       -0.744   0.509  -3.386  0.00  0.00    +0.120 C 
ATOM      3  C   LIG    1       -2.200   0.819  -2.948  0.00  0.00    +0.060 C 
ATOM      4  C   LIG    1       -2.037   0.984  -1.416  0.00  0.00    +0.250 C 
ATOM      5  N   LIG    1       -0.733   1.659  -1.246  0.00  0.00    -0.380 N 
ATOM      6  H   LIG    1       -0.876   2.654  -1.159  0.00  0.00    +0.430 HD
ENDROOT
BRANCH   1  13
ATOM      7  C   LIG    1        3.013  -0.322  -5.386  0.00  0.00    +0.110 C 
ATOM      8  C   LIG    1        1.970  -0.190  -4.306  0.00  0.00    +0.530 C 
ATOM      9  N   LIG    1        2.259   0.470  -3.168  0.00  0.00    -0.610 N 
ATOM     10  C   LIG    1        3.528   1.164  -2.869  0.00  0.00    +0.260 C 
ATOM     11  C   LIG    1        3.609   1.195  -1.322  0.00  0.00    +0.060 C 
ATOM     12  C   LIG    1        2.123   1.422  -0.937  0.00  0.00    +0.030 C 
ATOM     13  C   LIG    1        1.361   0.621  -2.013  0.00  0.00    +0.230 C 
ATOM     14  O   LIG    1        0.871  -0.678  -4.462  0.00  0.00    -0.530 OA
ENDBRANCH   1  13
BRANCH   5  15
ATOM     15  C   LIG    1       -0.065   1.149  -0.041  0.00  0.00    +0.250 C 
BRANCH  15  16
ATOM     16  C   LIG    1       -1.041   1.186   1.137  0.00  0.00    +0.330 C 
BRANCH  16  17
ATOM     17  N   LIG    1       -0.375   0.676   2.338  0.00  0.00    -0.390 N 
ATOM     18  C   LIG    1       -0.261   1.323   3.517  0.00  0.00    +0.240 A 
ATOM     19  C   LIG    1        0.415   0.515   4.367  0.00  0.00    -0.090 A 
ATOM     20  C   LIG    1        0.734  -0.661   3.680  0.00  0.00    +0.260 A 
ATOM     21  N   LIG    1        0.260  -0.566   2.464  0.00  0.00    -0.300 NA
ENDBRANCH  16  17
ENDBRANCH  15  16
ENDBRANCH   5  15
TORSDOF 4
