REMARK  Name = ZINCkj00000xeuwi.0
REMARK                            x       y       z     vdW  Elec       q    Type
REMARK                         _______ _______ _______ _____ _____    ______ ____
ROOT
ATOM      1  C   LIG    1       -2.893   0.284  -1.390  0.00  0.00    +0.170 C 
ATOM      2  C   LIG    1       -2.092  -1.031  -1.392  0.00  0.00    +0.090 C 
ATOM      3  C   LIG    1       -3.153  -2.150  -1.280  0.00  0.00    +0.080 C 
ATOM      4  C   LIG    1       -4.442  -1.457  -1.787  0.00  0.00    +0.270 C 
ATOM      5  N   LIG    1       -4.320  -0.077  -1.252  0.00  0.00    -0.390 N 
ATOM      6  H   LIG    1       -4.592  -0.056  -0.280  0.00  0.00    +0.420 HD
ENDROOT
BRANCH   1  13
ATOM      7  C   LIG    1       -4.189   4.509  -1.077  0.00  0.00    +0.120 C 
ATOM      8  C   LIG    1       -3.249   3.335  -1.168  0.00  0.00    +0.530 C 
ATOM      9  N   LIG    1       -3.240   2.402  -0.195  0.00  0.00    -0.640 N 
ATOM     10  C   LIG    1       -4.006   2.465   1.063  0.00  0.00    +0.260 C 
ATOM     11  C   LIG    1       -3.227   1.564   2.050  0.00  0.00    +0.050 C 
ATOM     12  C   LIG    1       -2.743   0.422   1.118  0.00  0.00    +0.040 C 
ATOM     13  C   LIG    1       -2.459   1.156  -0.210  0.00  0.00    +0.240 C 
ATOM     14  O   LIG    1       -2.505   3.226  -2.119  0.00  0.00    -0.530 OA
ENDBRANCH   1  13
BRANCH   5  15
ATOM     15  C   LIG    1       -5.154   0.846  -2.033  0.00  0.00    +0.260 C 
BRANCH  15  16
ATOM     16  C   LIG    1       -6.631   0.528  -1.791  0.00  0.00    +0.330 C 
BRANCH  16  17
ATOM     17  N   LIG    1       -7.463   1.448  -2.570  0.00  0.00    -0.390 N 
ATOM     18  C   LIG    1       -8.415   1.098  -3.460  0.00  0.00    +0.240 A 
ATOM     19  C   LIG    1       -8.952   2.235  -3.959  0.00  0.00    -0.090 A 
ATOM     20  C   LIG    1       -8.299   3.318  -3.361  0.00  0.00    +0.260 A 
ATOM     21  N   LIG    1       -7.406   2.847  -2.528  0.00  0.00    -0.300 NA
ENDBRANCH  16  17
ENDBRANCH  15  16
ENDBRANCH   5  15
TORSDOF 4
