REMARK  Name = ZINCrg000000r4QX.0
REMARK                            x       y       z     vdW  Elec       q    Type
REMARK                         _______ _______ _______ _____ _____    ______ ____
ROOT
ATOM      1  C   LIG    1        3.390   0.743   2.999  0.00  0.00    +0.040 C 
ENDROOT
BRANCH   1   8
ATOM      2  N   LIG    1        0.002  -0.004   0.002  0.00  0.00    -0.990 NA
ATOM      3  C   LIG    1        0.944  -0.750  -0.782  0.00  0.00    +0.290 C 
ATOM      4  C   LIG    1        2.156  -1.069   0.110  0.00  0.00    -0.000 C 
ATOM      5  C   LIG    1        3.050   0.090   0.254  0.00  0.00    +0.280 C 
ATOM      6  N   LIG    1        2.314   1.241   0.828  0.00  0.00    -0.600 N 
ATOM      7  C   LIG    1        1.435   2.019  -0.001  0.00  0.00    +0.290 C 
ATOM      8  C   LIG    1        2.468   1.558   2.129  0.00  0.00    +0.520 C 
ATOM      9  O   LIG    1        1.866   2.500   2.599  0.00  0.00    -0.530 OA
ATOM     10  C   LIG    1       -0.018   1.484   0.010  0.00  0.00    +0.270 C 
BRANCH   2  12
ATOM     11  C   LIG    1       -2.526  -1.058  -0.166  0.00  0.00    -0.280 C 
ATOM     12  S   LIG    1       -1.098  -0.826   0.928  0.00  0.00    +2.600 S 
ATOM     13  O   LIG    1       -1.416   0.077   1.978  0.00  0.00    -0.950 OA
ATOM     14  O   LIG    1       -0.469  -2.071   1.198  0.00  0.00    -0.950 OA
ENDBRANCH   2  12
ENDBRANCH   1   8
BRANCH   1  15
ATOM     15  C   LIG    1        3.383   1.309   4.420  0.00  0.00    +0.330 C 
BRANCH  15  16
ATOM     16  N   LIG    1        4.279   0.517   5.266  0.00  0.00    -0.550 N 
ATOM     17  C   LIG    1        5.587   0.866   5.374  0.00  0.00    +0.590 A 
ATOM     18  N   LIG    1        6.443   0.216   6.102  0.00  0.00    -0.520 NA
ATOM     19  C   LIG    1        6.080  -0.878   6.818  0.00  0.00    +0.170 A 
ATOM     20  C   LIG    1        7.000  -1.578   7.602  0.00  0.00    +0.050 A 
ATOM     21  C   LIG    1        6.589  -2.684   8.312  0.00  0.00    +0.100 A 
ATOM     22  C   LIG    1        5.268  -3.113   8.259  0.00  0.00    -0.110 A 
ATOM     23  C   LIG    1        4.342  -2.438   7.493  0.00  0.00    +0.140 A 
ATOM     24 BR   LIG    1        4.737  -4.635   9.247  0.00  0.00    -0.030 Br
ATOM     25  C   LIG    1        4.739  -1.317   6.766  0.00  0.00    -0.190 A 
ATOM     26  C   LIG    1        3.794  -0.554   5.936  0.00  0.00    +0.550 A 
ATOM     27  O   LIG    1        2.623  -0.876   5.853  0.00  0.00    -0.490 OA
ENDBRANCH  15  16
ENDBRANCH   1  15
TORSDOF 4
