REMARK  Name = ZINCpe000027pHub.0
REMARK                            x       y       z     vdW  Elec       q    Type
REMARK                         _______ _______ _______ _____ _____    ______ ____
ROOT
ATOM      1  C   LIG    1        3.576   2.517   2.792  0.00  0.00    +0.530 C 
ATOM      2  N   LIG    1        2.795   2.410   1.699  0.00  0.00    -0.620 N 
ATOM      3  C   LIG    1        2.534   3.483   0.722  0.00  0.00    +0.260 C 
ATOM      4  C   LIG    1        1.178   3.108   0.069  0.00  0.00    +0.260 C 
ATOM      5  C   LIG    1        1.286   1.562  -0.002  0.00  0.00    +0.180 C 
ATOM      6  C   LIG    1        2.061   1.206   1.284  0.00  0.00    +0.230 C 
ATOM      7  O   LIG    1        4.136   3.564   3.038  0.00  0.00    -0.520 OA
ENDROOT
BRANCH   4   8
ATOM      8  N   LIG    1        0.057   3.517   0.919  0.00  0.00    -0.710 N 
ATOM      9  H   LIG    1       -0.266   2.924   1.615  0.00  0.00    +0.410 HD
ATOM     10  C   LIG    1       -0.526   4.718   0.734  0.00  0.00    +0.520 C 
ATOM     11  O   LIG    1       -0.123   5.460  -0.137  0.00  0.00    -0.540 OA
BRANCH  10  12
ATOM     12  C   LIG    1       -1.679   5.139   1.608  0.00  0.00    +0.060 C 
BRANCH  12  13
ATOM     13  C   LIG    1       -2.153   6.533   1.191  0.00  0.00    +0.110 C 
BRANCH  13  14
ATOM     14  C   LIG    1       -3.306   6.954   2.066  0.00  0.00    -0.120 A 
ATOM     15  C   LIG    1       -4.605   6.752   1.640  0.00  0.00    +0.040 A 
ATOM     16  C   LIG    1       -5.663   7.133   2.445  0.00  0.00    +0.000 A 
ATOM     17  C   LIG    1       -5.423   7.726   3.670  0.00  0.00    +0.040 A 
ATOM     18  C   LIG    1       -4.125   7.934   4.095  0.00  0.00    -0.010 A 
ATOM     19  C   LIG    1       -3.064   7.548   3.293  0.00  0.00    +0.100 A 
ATOM     20  F   LIG    1       -1.794   7.750   3.708  0.00  0.00    -0.140 F 
ENDBRANCH  13  14
ENDBRANCH  12  13
ENDBRANCH  10  12
ENDBRANCH   4   8
BRANCH   5  21
ATOM     21  O   LIG    1       -0.011   0.963   0.007  0.00  0.00    -0.550 OA
ATOM     22  H   LIG    1        0.002  -0.004   0.002  0.00  0.00    +0.390 HD
ENDBRANCH   5  21
BRANCH   1  23
ATOM     23  C   LIG    1        3.755   1.334   3.709  0.00  0.00    +0.070 C 
BRANCH  23  24
ATOM     24  C   LIG    1        4.682   1.718   4.863  0.00  0.00    +0.170 C 
ATOM     25  C   LIG    1        4.963   0.485   5.724  0.00  0.00    +0.020 C 
BRANCH  24  27
ATOM     26  C   LIG    1        4.975   3.617   6.296  0.00  0.00    +0.210 C 
ATOM     27  O   LIG    1        4.057   2.725   5.662  0.00  0.00    -0.380 OA
ENDBRANCH  24  27
ENDBRANCH  23  24
ENDBRANCH   1  23
TORSDOF 8
