REMARK  Name = ZINCvU0000000CZf.0
REMARK                            x       y       z     vdW  Elec       q    Type
REMARK                         _______ _______ _______ _____ _____    ______ ____
ROOT
ATOM      1  C   LIG    1        0.993   6.080  -0.101  0.00  0.00    +0.370 C 
ENDROOT
BRANCH   1   2
ATOM      2  C   LIG    1        1.843   5.921   1.134  0.00  0.00    -0.160 A 
ATOM      3  C   LIG    1        2.074   4.729   1.704  0.00  0.00    +0.060 A 
ATOM      4  S   LIG    1        3.105   4.942   3.113  0.00  0.00    +0.220 S 
ATOM      5  C   LIG    1        3.159   6.680   2.850  0.00  0.00    -0.230 A 
ATOM      6  C   LIG    1        3.904   7.666   3.713  0.00  0.00    +0.140 C 
ATOM      7  C   LIG    1        2.441   6.995   1.771  0.00  0.00    -0.080 A 
ATOM      8  C   LIG    1        2.291   8.413   1.283  0.00  0.00    +0.110 C 
BRANCH   3   9
ATOM      9  N   LIG    1        1.575   3.507   1.248  0.00  0.00    -0.620 N 
ATOM     10  H   LIG    1        1.065   3.469   0.424  0.00  0.00    +0.410 HD
ATOM     11  C   LIG    1        1.804   2.381   1.952  0.00  0.00    +0.600 C 
ATOM     12  O   LIG    1        2.362   2.442   3.032  0.00  0.00    -0.490 OA
BRANCH  11  13
ATOM     13  C   LIG    1        1.380   1.083   1.418  0.00  0.00    -0.090 A 
ATOM     14  C   LIG    1        1.466  -0.117   2.063  0.00  0.00    +0.060 A 
ATOM     15  C   LIG    1        0.948  -1.084   1.187  0.00  0.00    -0.060 A 
ATOM     16  C   LIG    1        0.581  -0.441   0.057  0.00  0.00    +0.230 A 
ATOM     17  O   LIG    1        0.843   0.865   0.200  0.00  0.00    -0.170 OA
ENDBRANCH  11  13
ENDBRANCH   3   9
ENDBRANCH   1   2
BRANCH   1  22
ATOM     18  C   LIG    1        3.254   6.256  -3.123  0.00  0.00    +0.140 A 
ATOM     19  C   LIG    1        3.252   4.935  -3.545  0.00  0.00    -0.080 A 
ATOM     20  C   LIG    1        2.520   3.990  -2.851  0.00  0.00    +0.060 A 
ATOM     21  C   LIG    1        1.790   4.362  -1.737  0.00  0.00    -0.050 A 
ATOM     22  C   LIG    1        1.790   5.678  -1.315  0.00  0.00    -0.050 A 
ATOM     23  C   LIG    1        2.516   6.627  -2.008  0.00  0.00    +0.010 A 
BRANCH  18  25
ATOM     24  C   LIG    1        4.703   6.734  -4.946  0.00  0.00    +0.250 C 
ATOM     25  O   LIG    1        3.972   7.187  -3.804  0.00  0.00    -0.310 OA
ENDBRANCH  18  25
ENDBRANCH   1  22
BRANCH   1  26
ATOM     26  N   LIG    1       -0.193   5.226   0.009  0.00  0.00    -0.730 N 
ATOM     27  H   LIG    1       -0.194   4.344  -0.395  0.00  0.00    +0.400 HD
BRANCH  26  28
ATOM     28  C   LIG    1       -1.315   5.678   0.694  0.00  0.00    +0.400 A 
ATOM     29  C   LIG    1       -1.264   6.890   1.375  0.00  0.00    -0.100 A 
ATOM     30  C   LIG    1       -2.388   7.329   2.052  0.00  0.00    +0.090 A 
ATOM     31  C   LIG    1       -3.529   6.538   2.025  0.00  0.00    -0.100 A 
ATOM     32  C   LIG    1       -3.507   5.343   1.333  0.00  0.00    +0.310 A 
ATOM     33  N   LIG    1       -2.422   4.952   0.691  0.00  0.00    -0.540 NA
ENDBRANCH  26  28
ENDBRANCH   1  26
TORSDOF 7
