REMARK  Name = ZINCpk00000xI9IF.0
REMARK                            x       y       z     vdW  Elec       q    Type
REMARK                         _______ _______ _______ _____ _____    ______ ____
ROOT
ATOM      1  C   LIG    1       -4.298   0.937   2.397  0.00  0.00    +0.050 C 
ATOM      2  C   LIG    1       -4.909   1.353   3.739  0.00  0.00    +0.320 C 
ATOM      3  N   LIG    1       -6.245   0.766   3.860  0.00  0.00    -0.720 N 
ATOM      4  H   LIG    1       -6.918   1.224   4.388  0.00  0.00    +0.430 HD
ATOM      5  C   LIG    1       -6.559  -0.389   3.254  0.00  0.00    +0.730 C 
ATOM      6  N   LIG    1       -5.684  -1.070   2.499  0.00  0.00    -0.730 N 
ATOM      7  H   LIG    1       -5.965  -1.897   2.076  0.00  0.00    +0.430 HD
ATOM      8  O   LIG    1       -7.681  -0.835   3.394  0.00  0.00    -0.570 OA
ATOM      9  C   LIG    1       -4.315  -0.592   2.301  0.00  0.00    +0.320 C 
ENDROOT
BRANCH   2  10
ATOM     10  C   LIG    1       -5.008   2.856   3.803  0.00  0.00    -0.160 A 
ATOM     11  C   LIG    1       -6.045   3.508   3.162  0.00  0.00    +0.070 A 
ATOM     12  C   LIG    1       -6.141   4.884   3.225  0.00  0.00    -0.080 A 
ATOM     13  C   LIG    1       -5.189   5.614   3.922  0.00  0.00    +0.140 A 
ATOM     14  C   LIG    1       -4.146   4.958   4.559  0.00  0.00    -0.010 A 
ATOM     15  C   LIG    1       -4.057   3.580   4.499  0.00  0.00    +0.090 A 
BRANCH  13  16
ATOM     16  O   LIG    1       -5.278   6.968   3.980  0.00  0.00    -0.310 OA
ATOM     17  C   LIG    1       -6.378   7.576   3.301  0.00  0.00    +0.240 C 
ENDBRANCH  13  16
ENDBRANCH   2  10
BRANCH   9  18
ATOM     18  C   LIG    1       -3.817  -1.024   0.920  0.00  0.00    +0.430 C 
ATOM     19  F   LIG    1       -4.573  -0.386  -0.069  0.00  0.00    -0.160 F 
ATOM     20  F   LIG    1       -3.952  -2.410   0.789  0.00  0.00    -0.170 F 
ATOM     21  F   LIG    1       -2.471  -0.671   0.779  0.00  0.00    -0.160 F 
ENDBRANCH   9  18
BRANCH   1  22
ATOM     22  C   LIG    1       -2.877   1.434   2.312  0.00  0.00    +0.470 C 
ATOM     23  O   LIG    1       -2.084   1.144   3.175  0.00  0.00    -0.460 OA
BRANCH  22  24
ATOM     24  O   LIG    1       -2.494   2.198   1.277  0.00  0.00    -0.350 OA
BRANCH  24  26
ATOM     25  C   LIG    1       -0.863   3.493   0.015  0.00  0.00    +0.070 C 
ATOM     26  C   LIG    1       -1.111   2.640   1.260  0.00  0.00    +0.200 C 
ENDBRANCH  24  26
ENDBRANCH  22  24
ENDBRANCH   1  22
BRANCH   9  27
ATOM     27  O   LIG    1       -3.466  -1.143   3.310  0.00  0.00    -0.510 OA
ATOM     28  H   LIG    1       -3.429  -2.109   3.308  0.00  0.00    +0.400 HD
ENDBRANCH   9  27
TORSDOF 7
