REMARK  Name = ZINCrg00000IY9lF.0
REMARK                            x       y       z     vdW  Elec       q    Type
REMARK                         _______ _______ _______ _____ _____    ______ ____
ROOT
ATOM      1  O   LIG    1        6.377   0.700  -2.057  0.00  0.00    -0.520 OA
ATOM      2  C   LIG    1        6.303   1.307  -3.104  0.00  0.00    +0.540 C 
ATOM      3  N   LIG    1        7.111   0.980  -4.132  0.00  0.00    -0.610 N 
ATOM      4  C   LIG    1        7.034   1.699  -5.412  0.00  0.00    +0.300 C 
ATOM      5  C   LIG    1        8.450   2.155  -5.795  0.00  0.00    +0.210 C 
ATOM      6  N   LIG    1        9.352   0.995  -5.789  0.00  0.00    -0.460 N 
ATOM      7  C   LIG    1        9.462   0.414  -4.444  0.00  0.00    +0.230 C 
ATOM      8  C   LIG    1        8.091  -0.110  -4.004  0.00  0.00    +0.300 C 
ENDROOT
BRANCH   6   9
ATOM      9  C   LIG    1       10.598   1.333  -6.287  0.00  0.00    +0.490 A 
ATOM     10  N   LIG    1       11.673   1.113  -5.544  0.00  0.00    -0.550 NA
ATOM     11  C   LIG    1       12.879   1.419  -5.993  0.00  0.00    +0.340 A 
ATOM     12  C   LIG    1       13.009   1.985  -7.251  0.00  0.00    -0.110 A 
ATOM     13  C   LIG    1       11.863   2.207  -8.000  0.00  0.00    +0.350 A 
ATOM     14  N   LIG    1       10.688   1.873  -7.494  0.00  0.00    -0.530 NA
ENDBRANCH   6   9
BRANCH   2  15
ATOM     15  C   LIG    1        5.306   2.427  -3.257  0.00  0.00    +0.100 C 
BRANCH  15  16
ATOM     16  S   LIG    1        4.376   2.621  -1.716  0.00  0.00    +0.120 S 
BRANCH  16  17
ATOM     17  C   LIG    1        3.317   3.956  -2.165  0.00  0.00    +0.200 A 
ATOM     18  N   LIG    1        3.285   4.572  -3.327  0.00  0.00    -0.340 NA
ATOM     19  N   LIG    1        2.401   5.503  -3.317  0.00  0.00    -0.030 NA
ATOM     20  N   LIG    1        1.809   5.548  -2.173  0.00  0.00    -0.070 NA
ATOM     21  N   LIG    1        2.381   4.539  -1.379  0.00  0.00    -0.360 N 
BRANCH  21  22
ATOM     22  C   LIG    1        2.041   4.195   0.004  0.00  0.00    +0.450 C 
BRANCH  22  23
ATOM     23  C   LIG    1        0.949   3.156   0.009  0.00  0.00    -0.240 A 
ATOM     24  C   LIG    1        1.144   1.836   0.001  0.00  0.00    +0.060 A 
ATOM     25  C   LIG    1       -0.013   1.076   0.008  0.00  0.00    +0.010 A 
ATOM     26  C   LIG    1       -1.147   1.778   0.017  0.00  0.00    -0.030 A 
ATOM     27  S   LIG    1       -0.776   3.497   0.027  0.00  0.00    +0.140 S 
ENDBRANCH  22  23
ENDBRANCH  21  22
ENDBRANCH  16  17
ENDBRANCH  15  16
ENDBRANCH   2  15
TORSDOF 6
