REMARK  Name = ZINCqH00000074OS.0
REMARK                            x       y       z     vdW  Elec       q    Type
REMARK                         _______ _______ _______ _____ _____    ______ ____
ROOT
ATOM      1  N   LIG    1       -4.104   3.001  -2.769  0.00  0.00    -0.660 N 
ATOM      2  H   LIG    1       -4.667   3.615  -2.272  0.00  0.00    +0.410 HD
ATOM      3  C   LIG    1       -3.675   1.862  -2.191  0.00  0.00    +0.510 C 
ATOM      4  O   LIG    1       -3.055   1.048  -2.842  0.00  0.00    -0.500 OA
ENDROOT
BRANCH   1  10
ATOM      5  C   LIG    1       -4.527   4.147  -4.859  0.00  0.00    +0.090 A 
ATOM      6  C   LIG    1       -4.157   4.439  -6.162  0.00  0.00    -0.060 A 
ATOM      7  C   LIG    1       -3.005   3.891  -6.693  0.00  0.00    +0.030 A 
ATOM      8  C   LIG    1       -2.218   3.050  -5.928  0.00  0.00    -0.080 A 
ATOM      9  C   LIG    1       -2.577   2.759  -4.625  0.00  0.00    +0.060 A 
ATOM     10  C   LIG    1       -3.735   3.300  -4.087  0.00  0.00    +0.120 A 
BRANCH   8  11
ATOM     11  C   LIG    1       -0.963   2.456  -6.513  0.00  0.00    -0.020 C 
ATOM     12  C   LIG    1       -1.065   0.930  -6.495  0.00  0.00    +0.030 C 
ATOM     13  C   LIG    1        0.245   2.896  -5.682  0.00  0.00    +0.040 C 
ATOM     14  C   LIG    1       -0.794   2.939  -7.954  0.00  0.00    +0.030 C 
ENDBRANCH   8  11
BRANCH   5  16
ATOM     15  C   LIG    1       -6.423   5.545  -5.185  0.00  0.00    +0.250 C 
ATOM     16  O   LIG    1       -5.660   4.686  -4.335  0.00  0.00    -0.320 OA
ENDBRANCH   5  16
ENDBRANCH   1  10
BRANCH   3  17
ATOM     17  C   LIG    1       -3.967   1.598  -0.736  0.00  0.00    +0.080 C 
BRANCH  17  18
ATOM     18  C   LIG    1       -3.375   0.246  -0.334  0.00  0.00    +0.380 C 
BRANCH  18  19
ATOM     19  N   LIG    1       -1.914   0.304  -0.432  0.00  0.00    -0.730 N 
ATOM     20  H   LIG    1       -1.456   1.155  -0.358  0.00  0.00    +0.390 HD
ATOM     21  C   LIG    1       -1.207  -0.827  -0.626  0.00  0.00    +0.720 C 
ATOM     22  O   LIG    1       -1.781  -1.895  -0.720  0.00  0.00    -0.590 OA
ATOM     23  N   LIG    1        0.137  -0.773  -0.723  0.00  0.00    -0.870 N 
ATOM     24  H   LIG    1        0.594   0.078  -0.648  0.00  0.00    +0.400 HD
ATOM     25  H   LIG    1        0.645  -1.587  -0.866  0.00  0.00    +0.420 HD
ENDBRANCH  18  19
BRANCH  18  26
ATOM     26  C   LIG    1       -3.770  -0.073   1.085  0.00  0.00    -0.190 A 
ATOM     27  C   LIG    1       -4.764  -0.889   1.441  0.00  0.00    +0.020 A 
ATOM     28  C   LIG    1       -4.940  -1.032   2.806  0.00  0.00    +0.010 A 
ATOM     29  C   LIG    1       -4.095  -0.326   3.559  0.00  0.00    -0.050 A 
ATOM     30  S   LIG    1       -2.997   0.578   2.524  0.00  0.00    +0.100 S 
ENDBRANCH  18  26
ENDBRANCH  17  18
ENDBRANCH   3  17
TORSDOF 7
