REMARK  Name = ZINCrD000000AzJD.0
REMARK                            x       y       z     vdW  Elec       q    Type
REMARK                         _______ _______ _______ _____ _____    ______ ____
ROOT
ATOM      1  O   LIG    1       -0.314  -2.355  -1.204  0.00  0.00    -0.510 OA
ATOM      2  C   LIG    1       -1.294  -1.884  -0.666  0.00  0.00    +0.510 C 
ATOM      3  N   LIG    1       -1.199  -0.722   0.009  0.00  0.00    -0.680 N 
ATOM      4  H   LIG    1       -1.966  -0.379   0.495  0.00  0.00    +0.410 HD
ENDROOT
BRANCH   3   5
ATOM      5  C   LIG    1        0.004  -0.008   0.009  0.00  0.00    +0.140 A 
ATOM      6  C   LIG    1        1.216  -0.687   0.002  0.00  0.00    +0.020 A 
ATOM      7  C   LIG    1        2.402   0.021   0.001  0.00  0.00    +0.020 A 
ATOM      8  C   LIG    1        2.385   1.403   0.006  0.00  0.00    +0.000 A 
ATOM      9  C   LIG    1        1.180   2.082   0.013  0.00  0.00    -0.090 A 
ATOM     10  C   LIG    1       -0.010   1.381   0.014  0.00  0.00    +0.010 A 
BRANCH   9  11
ATOM     11  C   LIG    1        1.165   3.589   0.018  0.00  0.00    +0.340 C 
BRANCH  11  12
ATOM     12  N   LIG    1        1.164   4.073   1.400  0.00  0.00    -0.600 N 
ATOM     13  C   LIG    1        2.452   4.311   2.041  0.00  0.00    +0.260 C 
ATOM     14  C   LIG    1        2.284   5.229   3.253  0.00  0.00    +0.020 C 
ATOM     15  C   LIG    1        1.165   4.671   4.141  0.00  0.00    +0.030 C 
ATOM     16  C   LIG    1       -0.161   4.805   3.388  0.00  0.00    +0.070 C 
ATOM     17  C   LIG    1       -0.014   4.273   1.992  0.00  0.00    +0.520 C 
ATOM     18  O   LIG    1       -1.021   4.006   1.371  0.00  0.00    -0.550 OA
ENDBRANCH  11  12
ENDBRANCH   9  11
ENDBRANCH   3   5
BRANCH   2  19
ATOM     19  C   LIG    1       -2.617  -2.600  -0.752  0.00  0.00    +0.130 C 
BRANCH  19  20
ATOM     20  C   LIG    1       -2.453  -3.865  -1.555  0.00  0.00    -0.100 A 
ATOM     21  C   LIG    1       -2.643  -3.846  -2.925  0.00  0.00    +0.060 A 
ATOM     22  C   LIG    1       -2.493  -5.001  -3.665  0.00  0.00    -0.010 A 
ATOM     23  C   LIG    1       -2.159  -6.198  -3.037  0.00  0.00    +0.110 A 
ATOM     24  O   LIG    1       -1.980  -7.440  -3.564  0.00  0.00    -0.310 OA
ATOM     25  C   LIG    1       -1.237  -8.247  -2.635  0.00  0.00    +0.240 C 
ATOM     26  C   LIG    1       -1.605  -7.622  -1.269  0.00  0.00    +0.070 C 
ATOM     27  C   LIG    1       -1.970  -6.204  -1.661  0.00  0.00    -0.170 A 
ATOM     28  C   LIG    1       -2.116  -5.050  -0.924  0.00  0.00    +0.070 A 
ENDBRANCH  19  20
ENDBRANCH   2  19
TORSDOF 5
