REMARK  Name = ZINCue00000007qg.1
REMARK                            x       y       z     vdW  Elec       q    Type
REMARK                         _______ _______ _______ _____ _____    ______ ____
ROOT
ATOM      1  C   LIG    1       -6.340  -0.935  -0.806  0.00  0.00    +0.010 A 
ATOM      2  N   LIG    1       -7.435  -0.230  -1.018  0.00  0.00    -0.250 NA
ATOM      3  N   LIG    1       -7.141   0.991  -1.279  0.00  0.00    -0.380 N 
ATOM      4  H   LIG    1       -7.796   1.682  -1.466  0.00  0.00    +0.450 HD
ATOM      5  C   LIG    1       -5.809   1.196  -1.254  0.00  0.00    +0.190 A 
ATOM      6  C   LIG    1       -5.219  -0.001  -0.962  0.00  0.00    -0.060 A 
ENDROOT
BRANCH   6   7
ATOM      7  C   LIG    1       -3.769  -0.290  -0.826  0.00  0.00    +0.010 A 
ATOM      8  C   LIG    1       -2.762   0.612  -0.980  0.00  0.00    +0.210 A 
ATOM      9  N   LIG    1       -1.598  -0.063  -0.772  0.00  0.00    -0.300 N 
ATOM     10  N   LIG    1       -1.952  -1.392  -0.496  0.00  0.00    -0.060 NA
ATOM     11  N   LIG    1       -3.235  -1.484  -0.532  0.00  0.00    -0.180 NA
BRANCH   9  12
ATOM     12  C   LIG    1       -0.300   0.465  -0.828  0.00  0.00    +0.110 A 
ATOM     13  C   LIG    1       -0.110   1.811  -1.116  0.00  0.00    -0.010 A 
ATOM     14  C   LIG    1        1.168   2.337  -1.179  0.00  0.00    +0.010 A 
ATOM     15  C   LIG    1        2.263   1.529  -0.950  0.00  0.00    +0.060 A 
ATOM     16  C   LIG    1        2.083   0.175  -0.654  0.00  0.00    -0.110 A 
ATOM     17  C   LIG    1        0.792  -0.354  -0.591  0.00  0.00    +0.080 A 
BRANCH  16  18
ATOM     18  C   LIG    1        3.251  -0.691  -0.409  0.00  0.00    +0.520 C 
ATOM     19  O   LIG    1        4.381  -0.225  -0.465  0.00  0.00    -0.680 OA
ATOM     20  O   LIG    1        3.091  -1.876  -0.150  0.00  0.00    -0.680 OA
ENDBRANCH  16  18
ENDBRANCH   9  12
ENDBRANCH   6   7
BRANCH   1  23
ATOM     21  N   LIG    1       -7.387  -3.102  -0.370  0.00  0.00    -0.720 N 
ATOM     22  H   LIG    1       -8.252  -2.683  -0.506  0.00  0.00    +0.410 HD
ATOM     23  C   LIG    1       -6.260  -2.371  -0.479  0.00  0.00    +0.590 C 
ATOM     24  O   LIG    1       -5.176  -2.896  -0.307  0.00  0.00    -0.470 OA
BRANCH  21  25
ATOM     25  C   LIG    1       -7.307  -4.528  -0.044  0.00  0.00    +0.280 C 
BRANCH  25  26
ATOM     26  C   LIG    1       -8.718  -5.088   0.144  0.00  0.00    +0.070 C 
ATOM     27  C   LIG    1       -8.668  -6.553   0.656  0.00  0.00    +0.010 C 
ATOM     28  C   LIG    1      -10.008  -6.642   1.428  0.00  0.00    +0.210 C 
ATOM     29  O   LIG    1      -10.177  -5.351   2.034  0.00  0.00    -0.380 OA
ATOM     30  C   LIG    1       -9.448  -4.364   1.296  0.00  0.00    +0.240 C 
BRANCH  26  32
ATOM     31  C   LIG    1       -8.834  -5.615  -2.191  0.00  0.00    +0.210 C 
ATOM     32  O   LIG    1       -9.466  -4.995  -1.070  0.00  0.00    -0.370 OA
ENDBRANCH  26  32
ENDBRANCH  25  26
ENDBRANCH  21  25
ENDBRANCH   1  23
TORSDOF 7
