REMARK  Name = ZINCue00000007qg.0
REMARK                            x       y       z     vdW  Elec       q    Type
REMARK                         _______ _______ _______ _____ _____    ______ ____
ROOT
ATOM      1  C   LIG    1        3.239  -1.634  -0.789  0.00  0.00    -0.020 A 
ATOM      2  C   LIG    1        1.968  -1.068  -0.908  0.00  0.00    -0.030 A 
ATOM      3  C   LIG    1        1.111  -2.149  -1.190  0.00  0.00    +0.210 A 
ATOM      4  N   LIG    1        1.839  -3.233  -1.235  0.00  0.00    -0.260 NA
ATOM      5  N   LIG    1        3.076  -2.975  -1.005  0.00  0.00    -0.380 N 
ATOM      6  H   LIG    1        3.788  -3.633  -0.987  0.00  0.00    +0.440 HD
ENDROOT
BRANCH   2   7
ATOM      7  C   LIG    1        1.599   0.361  -0.762  0.00  0.00    +0.000 A 
ATOM      8  C   LIG    1        0.343   0.875  -0.886  0.00  0.00    +0.220 A 
ATOM      9  N   LIG    1        0.448   2.215  -0.680  0.00  0.00    -0.300 N 
ATOM     10  N   LIG    1        1.803   2.477  -0.431  0.00  0.00    -0.060 NA
ATOM     11  N   LIG    1        2.447   1.364  -0.488  0.00  0.00    -0.170 NA
BRANCH   9  12
ATOM     12  C   LIG    1       -0.595   3.153  -0.715  0.00  0.00    +0.110 A 
ATOM     13  C   LIG    1       -1.907   2.727  -0.880  0.00  0.00    -0.010 A 
ATOM     14  C   LIG    1       -2.939   3.647  -0.915  0.00  0.00    +0.010 A 
ATOM     15  C   LIG    1       -2.673   4.994  -0.787  0.00  0.00    +0.060 A 
ATOM     16  C   LIG    1       -1.356   5.434  -0.622  0.00  0.00    -0.110 A 
ATOM     17  C   LIG    1       -0.316   4.504  -0.581  0.00  0.00    +0.080 A 
BRANCH  16  18
ATOM     18  C   LIG    1       -1.068   6.874  -0.484  0.00  0.00    +0.520 C 
ATOM     19  O   LIG    1        0.085   7.256  -0.340  0.00  0.00    -0.680 OA
ATOM     20  O   LIG    1       -1.982   7.686  -0.515  0.00  0.00    -0.680 OA
ENDBRANCH  16  18
ENDBRANCH   9  12
ENDBRANCH   2   7
BRANCH   1  23
ATOM     21  N   LIG    1        5.647  -1.624  -0.410  0.00  0.00    -0.730 N 
ATOM     22  H   LIG    1        5.649  -2.584  -0.547  0.00  0.00    +0.390 HD
ATOM     23  C   LIG    1        4.493  -0.933  -0.493  0.00  0.00    +0.570 C 
ATOM     24  O   LIG    1        4.491   0.272  -0.322  0.00  0.00    -0.460 OA
BRANCH  21  25
ATOM     25  C   LIG    1        6.900  -0.924  -0.115  0.00  0.00    +0.270 C 
BRANCH  25  26
ATOM     26  C   LIG    1        8.029  -1.945   0.045  0.00  0.00    +0.070 C 
ATOM     27  C   LIG    1        9.348  -1.238   0.428  0.00  0.00    +0.000 C 
ATOM     28  C   LIG    1        9.706  -1.832   1.808  0.00  0.00    +0.220 C 
ATOM     29  O   LIG    1        9.037  -3.112   1.843  0.00  0.00    -0.370 OA
ATOM     30  C   LIG    1        7.744  -2.885   1.237  0.00  0.00    +0.240 C 
BRANCH  26  32
ATOM     31  C   LIG    1        8.473  -1.899  -2.310  0.00  0.00    +0.210 C 
ATOM     32  O   LIG    1        8.195  -2.698  -1.158  0.00  0.00    -0.370 OA
ENDBRANCH  26  32
ENDBRANCH  25  26
ENDBRANCH  21  25
ENDBRANCH   1  23
TORSDOF 7
