REMARK  Name = ZINCrg000000sNyo.0
REMARK                            x       y       z     vdW  Elec       q    Type
REMARK                         _______ _______ _______ _____ _____    ______ ____
ROOT
ATOM      1  C   LIG    1       -2.223   8.054   3.119  0.00  0.00    +0.420 C 
ATOM      2  C   LIG    1       -2.183   9.566   3.190  0.00  0.00    -0.010 A 
ATOM      3  C   LIG    1       -2.122  10.367   2.104  0.00  0.00    -0.010 A 
ATOM      4  N   LIG    1       -2.116  11.651   2.558  0.00  0.00    -0.560 N 
ATOM      5  H   LIG    1       -2.081  12.454   2.015  0.00  0.00    +0.420 HD
ATOM      6  C   LIG    1       -2.170  11.595   3.908  0.00  0.00    +0.400 A 
ATOM      7  C   LIG    1       -2.071   9.882   0.679  0.00  0.00    +0.120 C 
ATOM      8  C   LIG    1       -2.542   8.422   0.637  0.00  0.00    +0.290 C 
ATOM      9  N   LIG    1       -2.209  10.341   4.276  0.00  0.00    -0.480 NA
ATOM     10  N   LIG    1       -1.900   7.678   1.730  0.00  0.00    -0.600 N 
ATOM     11  C   LIG    1       -1.041   6.672   1.470  0.00  0.00    +0.510 C 
ATOM     12  O   LIG    1       -0.520   6.068   2.383  0.00  0.00    -0.500 OA
ENDROOT
BRANCH   1  18
ATOM     13  C   LIG    1       -3.761   8.595   5.755  0.00  0.00    +0.360 C 
ATOM     14  N   LIG    1       -4.258   7.799   4.630  0.00  0.00    -0.350 N 
ATOM     15  N   LIG    1       -5.501   7.157   4.561  0.00  0.00    -0.290 NA
ATOM     16  C   LIG    1       -5.583   6.549   3.405  0.00  0.00    +0.220 A 
ATOM     17  C   LIG    1       -4.399   6.789   2.700  0.00  0.00    -0.130 A 
ATOM     18  C   LIG    1       -3.599   7.556   3.478  0.00  0.00    +0.080 A 
ENDBRANCH   1  18
BRANCH  11  19
ATOM     19  C   LIG    1       -0.729   6.299   0.044  0.00  0.00    +0.390 C 
BRANCH  19  20
ATOM     20  N   LIG    1        0.223   5.185   0.028  0.00  0.00    -0.390 N 
ATOM     21  N   LIG    1        1.623   5.278   0.016  0.00  0.00    +0.000 NA
ATOM     22  N   LIG    1        2.130   4.096   0.004  0.00  0.00    -0.210 NA
ATOM     23  C   LIG    1        1.153   3.167   0.008  0.00  0.00    -0.020 A 
ATOM     24  C   LIG    1        1.164   1.766   0.000  0.00  0.00    +0.110 A 
ATOM     25  C   LIG    1       -0.013   1.076   0.008  0.00  0.00    +0.010 A 
ATOM     26  C   LIG    1       -1.229   1.746   0.017  0.00  0.00    +0.080 A 
ATOM     27  C   LIG    1       -1.267   3.122   0.030  0.00  0.00    +0.010 A 
ATOM     28  C   LIG    1       -0.079   3.844   0.024  0.00  0.00    +0.100 A 
ENDBRANCH  19  20
ENDBRANCH  11  19
TORSDOF 3
