REMARK  Name = ZINCrg000000sNyo.1
REMARK                            x       y       z     vdW  Elec       q    Type
REMARK                         _______ _______ _______ _____ _____    ______ ____
ROOT
ATOM      1  C   LIG    1        2.615   5.365   3.056  0.00  0.00    +0.420 C 
ATOM      2  C   LIG    1        3.945   6.083   3.106  0.00  0.00    -0.050 A 
ATOM      3  C   LIG    1        4.666   6.422   2.016  0.00  0.00    +0.030 A 
ATOM      4  N   LIG    1        5.769   7.050   2.434  0.00  0.00    -0.480 NA
ATOM      5  C   LIG    1        5.761   7.110   3.740  0.00  0.00    +0.420 A 
ATOM      6  C   LIG    1        4.255   6.122   0.596  0.00  0.00    +0.140 C 
ATOM      7  C   LIG    1        2.754   5.808   0.571  0.00  0.00    +0.290 C 
ATOM      8  N   LIG    1        4.635   6.514   4.196  0.00  0.00    -0.560 N 
ATOM      9  H   LIG    1        4.370   6.413   5.124  0.00  0.00    +0.420 HD
ATOM     10  N   LIG    1        2.434   4.888   1.672  0.00  0.00    -0.590 N 
ATOM     11  C   LIG    1        1.981   3.643   1.424  0.00  0.00    +0.510 C 
ATOM     12  O   LIG    1        1.722   2.897   2.344  0.00  0.00    -0.510 OA
ENDROOT
BRANCH   1  18
ATOM     13  C   LIG    1        2.349   6.984   5.686  0.00  0.00    +0.350 C 
ATOM     14  N   LIG    1        1.399   7.011   4.572  0.00  0.00    -0.370 N 
ATOM     15  N   LIG    1        0.221   7.768   4.512  0.00  0.00    -0.280 NA
ATOM     16  C   LIG    1       -0.360   7.529   3.364  0.00  0.00    +0.240 A 
ATOM     17  C   LIG    1        0.430   6.618   2.655  0.00  0.00    -0.100 A 
ATOM     18  C   LIG    1        1.502   6.312   3.422  0.00  0.00    +0.070 A 
ENDBRANCH   1  18
BRANCH  11  19
ATOM     19  C   LIG    1        1.797   3.179   0.002  0.00  0.00    +0.390 C 
BRANCH  19  20
ATOM     20  N   LIG    1        1.298   1.801  -0.001  0.00  0.00    -0.390 N 
ATOM     21  N   LIG    1        2.070   0.629  -0.014  0.00  0.00    +0.000 NA
ATOM     22  N   LIG    1        1.292  -0.395  -0.012  0.00  0.00    -0.210 NA
ATOM     23  C   LIG    1        0.002  -0.004   0.002  0.00  0.00    -0.020 A 
ATOM     24  C   LIG    1       -1.210  -0.705   0.010  0.00  0.00    +0.110 A 
ATOM     25  C   LIG    1       -2.392  -0.023   0.026  0.00  0.00    +0.010 A 
ATOM     26  C   LIG    1       -2.410   1.366   0.033  0.00  0.00    +0.080 A 
ATOM     27  C   LIG    1       -1.232   2.079   0.030  0.00  0.00    +0.010 A 
ATOM     28  C   LIG    1       -0.017   1.402   0.010  0.00  0.00    +0.100 A 
ENDBRANCH  19  20
ENDBRANCH  11  19
TORSDOF 3
