REMARK  Name = ZINCnE000001TvSK.1
REMARK                            x       y       z     vdW  Elec       q    Type
REMARK                         _______ _______ _______ _____ _____    ______ ____
ROOT
ATOM      1  C   LIG    1        0.385   3.506  -0.042  0.00  0.00    +0.350 A 
ATOM      2  N   LIG    1       -0.858   3.142  -0.086  0.00  0.00    -0.550 NA
ATOM      3  C   LIG    1       -1.101   1.845  -0.086  0.00  0.00    +0.110 A 
ATOM      4  C   LIG    1       -0.012   1.076  -0.030  0.00  0.00    -0.240 A 
ATOM      5  S   LIG    1        1.399   2.130   0.012  0.00  0.00    +0.020 S 
ENDROOT
BRANCH   1   8
ATOM      6  O   LIG    1        2.951   4.178   0.049  0.00  0.00    -0.610 OA
ATOM      7  C   LIG    1        2.150   5.088   0.009  0.00  0.00    +0.480 C 
ATOM      8  N   LIG    1        0.830   4.823  -0.039  0.00  0.00    -0.660 NA
BRANCH   7   9
ATOM      9  C   LIG    1        2.632   6.516   0.012  0.00  0.00    -0.020 C 
ATOM     10  C   LIG    1        4.141   6.753   0.117  0.00  0.00    +0.040 C 
ATOM     11  C   LIG    1        3.417   6.998  -1.206  0.00  0.00    -0.110 C 
ATOM     12  C   LIG    1        3.219   8.450  -1.656  0.00  0.00    +0.030 C 
ATOM     13  C   LIG    1        2.148   8.477  -2.752  0.00  0.00    +0.210 C 
ATOM     14  O   LIG    1        2.513   7.569  -3.793  0.00  0.00    -0.390 OA
ATOM     15  C   LIG    1        2.550   6.197  -3.396  0.00  0.00    +0.210 C 
ATOM     16  C   LIG    1        3.651   6.002  -2.347  0.00  0.00    +0.040 C 
ENDBRANCH   7   9
ENDBRANCH   1   8
BRANCH   3  17
ATOM     17  C   LIG    1       -2.497   1.277  -0.141  0.00  0.00    +0.160 C 
BRANCH  17  18
ATOM     18  C   LIG    1       -3.318   1.856   0.983  0.00  0.00    -0.060 A 
ATOM     19  C   LIG    1       -3.361   1.217   2.208  0.00  0.00    +0.000 A 
ATOM     20  C   LIG    1       -4.111   1.749   3.239  0.00  0.00    -0.020 A 
ATOM     21  C   LIG    1       -4.826   2.916   3.043  0.00  0.00    -0.020 A 
ATOM     22  C   LIG    1       -4.787   3.553   1.817  0.00  0.00    +0.000 A 
ATOM     23  C   LIG    1       -4.034   3.022   0.786  0.00  0.00    +0.030 A 
ENDBRANCH  17  18
ENDBRANCH   3  17
TORSDOF 4
