REMARK  Name = ZINCkj00000DI8cH.0
REMARK                            x       y       z     vdW  Elec       q    Type
REMARK                         _______ _______ _______ _____ _____    ______ ____
ROOT
ATOM      1  N   LIG    1       -4.314   5.404   0.455  0.00  0.00    -0.660 N 
ATOM      2  H   LIG    1       -3.541   5.675  -0.065  0.00  0.00    +0.430 HD
ATOM      3  C   LIG    1       -4.394   4.150   0.941  0.00  0.00    +0.600 C 
ATOM      4  O   LIG    1       -5.398   3.785   1.522  0.00  0.00    -0.510 OA
ENDROOT
BRANCH   3   5
ATOM      5  C   LIG    1       -3.261   3.216   0.768  0.00  0.00    -0.080 A 
ATOM      6  N   LIG    1       -2.118   3.648   0.236  0.00  0.00    -0.370 NA
ATOM      7  C   LIG    1       -1.108   2.819   0.086  0.00  0.00    +0.170 A 
ATOM      8  C   LIG    1       -1.237   1.482   0.475  0.00  0.00    +0.400 A 
ATOM      9  N   LIG    1       -2.376   1.051   1.005  0.00  0.00    -0.510 NA
ATOM     10  C   LIG    1       -3.388   1.884   1.160  0.00  0.00    +0.220 A 
ATOM     11  C   LIG    1       -4.681   1.396   1.762  0.00  0.00    +0.170 C 
BRANCH   8  12
ATOM     12  N   LIG    1       -0.176   0.608   0.312  0.00  0.00    -0.820 N 
ATOM     13  H   LIG    1        0.655   0.922  -0.079  0.00  0.00    +0.420 HD
ATOM     14  H   LIG    1       -0.264  -0.318   0.585  0.00  0.00    +0.410 HD
ENDBRANCH   8  12
ENDBRANCH   3   5
BRANCH   1  18
ATOM     15  C   LIG    1       -7.385   8.121   1.187  0.00  0.00    -0.190 A 
ATOM     16  C   LIG    1       -6.074   8.558   1.140  0.00  0.00    +0.070 A 
ATOM     17  C   LIG    1       -5.053   7.660   0.898  0.00  0.00    +0.000 A 
ATOM     18  C   LIG    1       -5.345   6.316   0.701  0.00  0.00    +0.190 A 
ATOM     19  C   LIG    1       -6.663   5.881   0.744  0.00  0.00    +0.030 A 
ATOM     20  C   LIG    1       -7.679   6.784   0.991  0.00  0.00    +0.060 A 
BRANCH  15  21
ATOM     21  C   LIG    1       -8.497   9.104   1.452  0.00  0.00    +0.330 C 
BRANCH  21  23
ATOM     22  C   LIG    1      -10.065  10.608   0.435  0.00  0.00    +0.320 C 
ATOM     23  N   LIG    1       -8.982   9.649   0.177  0.00  0.00    -0.510 N 
ATOM     24  H   LIG    1       -9.328   8.898  -0.401  0.00  0.00    +0.430 HD
ATOM     25  H   LIG    1       -8.225  10.118  -0.298  0.00  0.00    +0.430 HD
ENDBRANCH  21  23
ENDBRANCH  15  21
ENDBRANCH   1  18
TORSDOF 5
