REMARK  Name = ZINCrH00000No4S9.0
REMARK                            x       y       z     vdW  Elec       q    Type
REMARK                         _______ _______ _______ _____ _____    ______ ____
ROOT
ATOM      1  N   LIG    1        2.788   0.892  -1.380  0.00  0.00    -0.610 N 
ATOM      2  C   LIG    1        2.367  -0.315  -1.806  0.00  0.00    +0.530 C 
ATOM      3  O   LIG    1        1.740  -1.040  -1.056  0.00  0.00    -0.500 OA
ENDROOT
BRANCH   2   4
ATOM      4  C   LIG    1        2.665  -0.757  -3.177  0.00  0.00    -0.100 C 
ATOM      5  C   LIG    1        2.249  -1.948  -3.596  0.00  0.00    +0.120 C 
ENDBRANCH   2   4
BRANCH   1   6
ATOM      6  C   LIG    1        2.491   1.332  -0.015  0.00  0.00    +0.350 C 
BRANCH   6  13
ATOM      7  C   LIG    1       -0.016   1.355   0.009  0.00  0.00    +0.140 A 
ATOM      8  C   LIG    1       -1.226   2.033   0.019  0.00  0.00    -0.080 A 
ATOM      9  C   LIG    1       -1.242   3.415   0.032  0.00  0.00    +0.050 A 
ATOM     10  C   LIG    1       -0.054   4.121   0.024  0.00  0.00    -0.130 A 
ATOM     11  C   LIG    1        1.154   3.447   0.009  0.00  0.00    +0.060 A 
ATOM     12  C   LIG    1       -0.074   5.628   0.033  0.00  0.00    +0.080 C 
ATOM     13  C   LIG    1        1.175   2.066   0.002  0.00  0.00    -0.140 A 
BRANCH   7  14
ATOM     14  O   LIG    1        0.002  -0.004   0.002  0.00  0.00    -0.270 OA
BRANCH  14  15
ATOM     15  C   LIG    1       -1.262  -0.670   0.011  0.00  0.00    +0.330 C 
BRANCH  15  17
ATOM     16  C   LIG    1       -0.880  -3.288  -0.007  0.00  0.00    +0.060 C 
ATOM     17  C   LIG    1       -1.050  -2.127   0.001  0.00  0.00    -0.190 C 
ENDBRANCH  15  17
ENDBRANCH  14  15
ENDBRANCH   7  14
ENDBRANCH   6  13
ENDBRANCH   1   6
BRANCH   1  18
ATOM     18  C   LIG    1        3.543   1.765  -2.283  0.00  0.00    +0.280 C 
BRANCH  18  19
ATOM     19  C   LIG    1        5.038   1.477  -2.139  0.00  0.00    +0.060 C 
BRANCH  19  20
ATOM     20  C   LIG    1        5.815   2.374  -3.068  0.00  0.00    -0.080 A 
ATOM     21  C   LIG    1        6.099   1.955  -4.355  0.00  0.00    +0.020 A 
ATOM     22  C   LIG    1        6.806   2.776  -5.216  0.00  0.00    +0.020 A 
ATOM     23  C   LIG    1        7.242   4.013  -4.791  0.00  0.00    +0.030 A 
ATOM     24  C   LIG    1        6.964   4.440  -3.492  0.00  0.00    +0.010 A 
ATOM     25  C   LIG    1        6.245   3.610  -2.631  0.00  0.00    +0.040 A 
BRANCH  24  26
ATOM     26  C   LIG    1        7.414   5.724  -3.044  0.00  0.00    -0.160 C 
ATOM     27  C   LIG    1        7.783   6.776  -2.678  0.00  0.00    +0.060 C 
ENDBRANCH  24  26
ENDBRANCH  19  20
ENDBRANCH  18  19
ENDBRANCH   1  18
TORSDOF 10
