REMARK  Name = ZINCrD000000AErm.0
REMARK                            x       y       z     vdW  Elec       q    Type
REMARK                         _______ _______ _______ _____ _____    ______ ____
ROOT
ATOM      1  N   LIG    1       -1.017   1.944   1.042  0.00  0.00    -0.520 N 
ATOM      2  C   LIG    1       -2.341   2.157   0.828  0.00  0.00    +0.600 A 
ATOM      3  N   LIG    1       -3.134   2.556   1.777  0.00  0.00    -0.500 NA
ATOM      4  C   LIG    1       -2.682   2.792   3.028  0.00  0.00    +0.080 A 
ATOM      5  C   LIG    1       -1.336   2.600   3.317  0.00  0.00    -0.220 A 
ATOM      6  C   LIG    1       -1.022   2.900   4.708  0.00  0.00    +0.030 A 
ATOM      7  C   LIG    1       -2.069   3.297   5.434  0.00  0.00    -0.030 A 
ATOM      8  S   LIG    1       -3.532   3.336   4.468  0.00  0.00    +0.230 S 
ATOM      9  C   LIG    1       -0.483   2.156   2.261  0.00  0.00    +0.560 A 
ATOM     10  O   LIG    1        0.705   1.971   2.459  0.00  0.00    -0.500 OA
ENDROOT
BRANCH   6  11
ATOM     11  C   LIG    1        0.340   2.775   5.267  0.00  0.00    -0.140 A 
ATOM     12  C   LIG    1        0.979   3.724   5.980  0.00  0.00    +0.020 A 
ATOM     13  C   LIG    1        2.247   3.374   6.400  0.00  0.00    +0.000 A 
ATOM     14  C   LIG    1        2.649   2.155   6.030  0.00  0.00    -0.070 A 
ATOM     15  S   LIG    1        1.381   1.367   5.100  0.00  0.00    +0.180 S 
ENDBRANCH   6  11
BRANCH   1  16
ATOM     16  C   LIG    1       -0.164   1.488  -0.058  0.00  0.00    +0.350 C 
BRANCH  16  18
ATOM     17  O   LIG    1       -0.773  -0.649   0.736  0.00  0.00    -0.500 OA
ATOM     18  C   LIG    1       -0.140  -0.018  -0.084  0.00  0.00    +0.500 C 
ATOM     19  N   LIG    1        0.585  -0.664  -1.018  0.00  0.00    -0.670 N 
ATOM     20  H   LIG    1        1.029  -0.163  -1.720  0.00  0.00    +0.410 HD
BRANCH  19  21
ATOM     21  C   LIG    1        0.697  -2.059  -0.976  0.00  0.00    +0.140 A 
ATOM     22  C   LIG    1        0.716  -2.718   0.246  0.00  0.00    +0.020 A 
ATOM     23  C   LIG    1        0.821  -4.095   0.284  0.00  0.00    +0.030 A 
ATOM     24  C   LIG    1        0.918  -4.815  -0.892  0.00  0.00    +0.020 A 
ATOM     25  C   LIG    1        0.906  -4.161  -2.110  0.00  0.00    -0.080 A 
ATOM     26  C   LIG    1        0.796  -2.785  -2.155  0.00  0.00    +0.010 A 
BRANCH  25  27
ATOM     27  C   LIG    1        1.012  -4.950  -3.390  0.00  0.00    +0.240 C 
BRANCH  27  28
ATOM     28  O   LIG    1        2.388  -5.090  -3.750  0.00  0.00    -0.570 OA
ATOM     29  H   LIG    1        2.532  -5.588  -4.566  0.00  0.00    +0.380 HD
ENDBRANCH  27  28
ENDBRANCH  25  27
ENDBRANCH  19  21
ENDBRANCH  16  18
ENDBRANCH   1  16
TORSDOF 6
