REMARK  Name = ZINCvU00000007yK.0
REMARK                            x       y       z     vdW  Elec       q    Type
REMARK                         _______ _______ _______ _____ _____    ______ ____
ROOT
ATOM      1  N   LIG    1       -2.478   3.857  -0.168  0.00  0.00    -0.560 N 
ATOM      2  C   LIG    1       -2.473   5.167   0.152  0.00  0.00    +0.540 C 
ATOM      3  O   LIG    1       -3.510   5.723   0.448  0.00  0.00    -0.510 OA
ENDROOT
BRANCH   1   9
ATOM      4  C   LIG    1        0.515   1.559  -3.320  0.00  0.00    +0.090 C 
ATOM      5  C   LIG    1        0.205   2.069  -1.936  0.00  0.00    -0.070 A 
ATOM      6  C   LIG    1        1.114   1.882  -0.911  0.00  0.00    +0.020 A 
ATOM      7  C   LIG    1        0.834   2.349   0.360  0.00  0.00    +0.030 A 
ATOM      8  C   LIG    1       -0.358   2.999   0.611  0.00  0.00    +0.000 A 
ATOM      9  C   LIG    1       -1.272   3.194  -0.418  0.00  0.00    +0.130 A 
ATOM     10  C   LIG    1       -0.987   2.724  -1.693  0.00  0.00    +0.010 A 
ENDBRANCH   1   9
BRANCH   2  11
ATOM     11  C   LIG    1       -1.179   5.940   0.144  0.00  0.00    +0.110 C 
BRANCH  11  12
ATOM     12  S   LIG    1       -1.521   7.690   0.452  0.00  0.00    +0.090 S 
BRANCH  12  13
ATOM     13  C   LIG    1        0.117   8.337   0.389  0.00  0.00    +0.150 A 
ATOM     14  N   LIG    1        1.219   7.654   0.178  0.00  0.00    -0.290 NA
ATOM     15  N   LIG    1        2.233   8.444   0.194  0.00  0.00    -0.280 NA
ATOM     16  C   LIG    1        1.846   9.667   0.424  0.00  0.00    +0.200 A 
ATOM     17  C   LIG    1        2.733  10.881   0.524  0.00  0.00    +0.200 C 
ATOM     18  N   LIG    1        0.483   9.645   0.557  0.00  0.00    -0.420 N 
BRANCH  18  19
ATOM     19  C   LIG    1       -0.362  10.735   0.812  0.00  0.00    +0.100 A 
ATOM     20  C   LIG    1       -0.481  11.755  -0.121  0.00  0.00    +0.030 A 
ATOM     21  C   LIG    1       -1.317  12.825   0.132  0.00  0.00    +0.040 A 
ATOM     22  C   LIG    1       -2.027  12.886   1.317  0.00  0.00    +0.030 A 
ATOM     23  C   LIG    1       -1.906  11.873   2.251  0.00  0.00    +0.040 A 
ATOM     24  C   LIG    1       -1.075  10.798   2.001  0.00  0.00    +0.030 A 
ENDBRANCH  18  19
ENDBRANCH  12  13
ENDBRANCH  11  12
ENDBRANCH   2  11
BRANCH   1  25
ATOM     25  C   LIG    1       -3.746   3.129  -0.255  0.00  0.00    +0.350 C 
BRANCH  25  26
ATOM     26  C   LIG    1       -4.082   2.542   1.091  0.00  0.00    -0.110 A 
ATOM     27  C   LIG    1       -3.647   1.272   1.419  0.00  0.00    +0.020 A 
ATOM     28  C   LIG    1       -3.951   0.735   2.656  0.00  0.00    +0.000 A 
ATOM     29  C   LIG    1       -4.699   1.465   3.562  0.00  0.00    +0.010 A 
ATOM     30  C   LIG    1       -5.138   2.733   3.232  0.00  0.00    +0.000 A 
ATOM     31  C   LIG    1       -4.829   3.272   1.997  0.00  0.00    +0.040 A 
ENDBRANCH  25  26
ENDBRANCH   1  25
TORSDOF 7
