REMARK  Name = ZINCqH0000001LEu.0
REMARK                            x       y       z     vdW  Elec       q    Type
REMARK                         _______ _______ _______ _____ _____    ______ ____
ROOT
ATOM      1  N   LIG    1       -2.928   0.719   1.521  0.00  0.00    -1.110 NA
ATOM      2  H   LIG    1       -3.505   0.302   2.179  0.00  0.00    +0.420 HD
ENDROOT
BRANCH   1   3
ATOM      3  S   LIG    1       -2.859   0.118  -0.021  0.00  0.00    +2.700 S 
ATOM      4  O   LIG    1       -3.697  -1.030  -0.042  0.00  0.00    -0.950 OA
ATOM      5  O   LIG    1       -3.037   1.226  -0.892  0.00  0.00    -0.950 OA
BRANCH   3   6
ATOM      6  C   LIG    1       -1.216  -0.461  -0.282  0.00  0.00    -0.680 A 
ATOM      7  C   LIG    1       -0.422   0.126  -1.221  0.00  0.00    +0.180 A 
ATOM      8  C   LIG    1        0.880  -0.319  -1.441  0.00  0.00    -0.010 A 
ATOM      9  C   LIG    1        1.400  -1.354  -0.725  0.00  0.00    +0.120 A 
ATOM     10  C   LIG    1        0.612  -1.985   0.251  0.00  0.00    -0.140 A 
ATOM     11  C   LIG    1        1.093  -3.056   1.020  0.00  0.00    +0.330 A 
ATOM     12  N   LIG    1        0.319  -3.613   1.922  0.00  0.00    -0.490 NA
ATOM     13  C   LIG    1       -0.923  -3.209   2.151  0.00  0.00    +0.270 A 
ATOM     14  C   LIG    1       -1.483  -2.178   1.458  0.00  0.00    -0.040 A 
ATOM     15  C   LIG    1       -0.714  -1.530   0.474  0.00  0.00    +0.060 A 
ENDBRANCH   3   6
ENDBRANCH   1   3
BRANCH   1  16
ATOM     16  C   LIG    1       -2.116   1.882   1.890  0.00  0.00    +0.300 C 
BRANCH  16  17
ATOM     17  C   LIG    1       -2.643   2.476   3.198  0.00  0.00    +0.210 C 
BRANCH  17  18
ATOM     18  O   LIG    1       -2.459   1.534   4.257  0.00  0.00    -0.310 OA
BRANCH  18  22
ATOM     19  C   LIG    1       -3.727   2.671   8.015  0.00  0.00    -0.110 A 
ATOM     20  C   LIG    1       -3.155   1.427   7.827  0.00  0.00    +0.050 A 
ATOM     21  C   LIG    1       -2.729   1.044   6.570  0.00  0.00    -0.020 A 
ATOM     22  C   LIG    1       -2.877   1.909   5.495  0.00  0.00    +0.120 A 
ATOM     23  C   LIG    1       -3.447   3.159   5.687  0.00  0.00    -0.080 A 
ATOM     24  C   LIG    1       -3.875   3.535   6.946  0.00  0.00    +0.050 A 
BRANCH  19  26
ATOM     25  C   LIG    1       -3.437   4.345   9.821  0.00  0.00    +0.030 C 
ATOM     26  C   LIG    1       -4.191   3.087   9.387  0.00  0.00    +0.030 C 
ATOM     27  C   LIG    1       -5.692   3.378   9.352  0.00  0.00    +0.030 C 
ENDBRANCH  19  26
ENDBRANCH  18  22
ENDBRANCH  17  18
ENDBRANCH  16  17
ENDBRANCH   1  16
TORSDOF 7
