REMARK  Name = ZINCfA000000JmsX.1
REMARK                            x       y       z     vdW  Elec       q    Type
REMARK                         _______ _______ _______ _____ _____    ______ ____
ROOT
ATOM      1  C   LIG    1       -0.016   1.315   0.009  0.00  0.00    +0.290 C 
ATOM      2  N   LIG    1        0.002  -0.004   0.002  0.00  0.00    -0.430 N 
ATOM      3  C   LIG    1        1.258  -0.439  -0.012  0.00  0.00    +0.250 C 
ATOM      4  C   LIG    1        2.090   0.667  -0.014  0.00  0.00    +0.070 A 
ATOM      5  C   LIG    1        3.488   0.830  -0.027  0.00  0.00    +0.100 A 
ATOM      6  C   LIG    1        4.010   2.086  -0.026  0.00  0.00    +0.090 A 
ATOM      7  C   LIG    1        3.149   3.200  -0.012  0.00  0.00    +0.100 A 
ATOM      8  C   LIG    1        1.812   3.032   0.001  0.00  0.00    +0.230 A 
ATOM      9  H   LIG    1       -0.784  -0.572   0.006  0.00  0.00    +0.470 HD
ATOM     10  N   LIG    1        1.268   1.776  -0.001  0.00  0.00    -0.320 N 
ENDROOT
BRANCH   1  14
ATOM     11  C   LIG    1       -3.505   3.735   0.040  0.00  0.00    +0.070 A 
ATOM     12  C   LIG    1       -3.496   2.531   0.722  0.00  0.00    +0.030 A 
ATOM     13  C   LIG    1       -2.366   1.740   0.716  0.00  0.00    +0.050 A 
ATOM     14  C   LIG    1       -1.229   2.157   0.020  0.00  0.00    -0.080 A 
ATOM     15  C   LIG    1       -1.244   3.376  -0.662  0.00  0.00    +0.050 A 
ATOM     16  C   LIG    1       -2.382   4.154  -0.653  0.00  0.00    +0.030 A 
ENDBRANCH   1  14
TORSDOF 1
