REMARK  Name = ZINCrH000004tRB9.0
REMARK                            x       y       z     vdW  Elec       q    Type
REMARK                         _______ _______ _______ _____ _____    ______ ____
ROOT
ATOM      1  O   LIG    1        0.245  -0.315  -2.664  0.00  0.00    -0.510 OA
ATOM      2  C   LIG    1       -0.834  -0.620  -2.202  0.00  0.00    +0.540 C 
ATOM      3  N   LIG    1       -1.058  -0.502  -0.878  0.00  0.00    -0.720 N 
ATOM      4  H   LIG    1       -1.921  -0.746  -0.509  0.00  0.00    +0.400 HD
ENDROOT
BRANCH   3   5
ATOM      5  C   LIG    1        0.002  -0.004   0.002  0.00  0.00    +0.340 C 
BRANCH   5   6
ATOM      6  C   LIG    1       -0.224  -0.517   1.401  0.00  0.00    -0.090 A 
ATOM      7  C   LIG    1       -1.505  -0.567   1.920  0.00  0.00    +0.010 A 
ATOM      8  C   LIG    1       -1.713  -1.042   3.201  0.00  0.00    +0.020 A 
ATOM      9  C   LIG    1       -0.640  -1.458   3.967  0.00  0.00    +0.010 A 
ATOM     10  C   LIG    1        0.641  -1.404   3.450  0.00  0.00    +0.020 A 
ATOM     11  C   LIG    1        0.849  -0.933   2.167  0.00  0.00    +0.030 A 
ENDBRANCH   5   6
BRANCH   5  12
ATOM     12  C   LIG    1       -0.018   1.503   0.010  0.00  0.00    -0.090 A 
ATOM     13  C   LIG    1       -1.225   2.178   0.020  0.00  0.00    +0.020 A 
ATOM     14  C   LIG    1       -1.244   3.560   0.032  0.00  0.00    +0.000 A 
ATOM     15  C   LIG    1       -0.056   4.267   0.025  0.00  0.00    +0.000 A 
ATOM     16  C   LIG    1        1.151   3.592   0.010  0.00  0.00    +0.000 A 
ATOM     17  C   LIG    1        1.169   2.210   0.003  0.00  0.00    +0.020 A 
ENDBRANCH   5  12
ENDBRANCH   3   5
BRANCH   2  18
ATOM     18  C   LIG    1       -1.924  -1.133  -3.108  0.00  0.00    +0.110 C 
BRANCH  18  19
ATOM     19  S   LIG    1       -1.319  -1.176  -4.817  0.00  0.00    +0.080 S 
BRANCH  19  20
ATOM     20  C   LIG    1       -2.707  -1.790  -5.713  0.00  0.00    +0.110 A 
ATOM     21  N   LIG    1       -3.875  -2.120  -5.210  0.00  0.00    -0.250 NA
ATOM     22  N   LIG    1       -4.662  -2.531  -6.141  0.00  0.00    -0.280 NA
ATOM     23  C   LIG    1       -4.038  -2.487  -7.303  0.00  0.00    +0.200 A 
ATOM     24  C   LIG    1       -4.417  -2.813  -8.621  0.00  0.00    +0.080 A 
ATOM     25  C   LIG    1       -3.524  -2.637  -9.631  0.00  0.00    +0.070 A 
ATOM     26  C   LIG    1       -2.235  -2.147  -9.350  0.00  0.00    +0.030 A 
ATOM     27  C   LIG    1       -1.881  -1.841  -8.085  0.00  0.00    +0.240 A 
ATOM     28  N   LIG    1       -2.769  -2.005  -7.059  0.00  0.00    -0.380 N 
ENDBRANCH  19  20
ENDBRANCH  18  19
ENDBRANCH   2  18
TORSDOF 6
