REMARK  Name = ZINCrD00000sfjws.0
REMARK                            x       y       z     vdW  Elec       q    Type
REMARK                         _______ _______ _______ _____ _____    ______ ____
ROOT
ATOM      1  C   LIG    1        2.520  -2.653  -0.142  0.00  0.00    +0.160 C 
ATOM      2  C   LIG    1        2.395  -3.999  -0.894  0.00  0.00    +0.080 C 
ATOM      3  C   LIG    1        2.250  -5.000   0.274  0.00  0.00    +0.270 C 
ATOM      4  N   LIG    1        2.897  -4.357   1.423  0.00  0.00    -0.610 N 
ATOM      5  C   LIG    1        3.056  -3.038   1.219  0.00  0.00    +0.500 C 
ATOM      6  O   LIG    1        3.557  -2.268   2.011  0.00  0.00    -0.500 OA
ENDROOT
BRANCH   4   7
ATOM      7  C   LIG    1        3.316  -5.062   2.637  0.00  0.00    +0.310 C 
ATOM      8  C   LIG    1        4.803  -4.804   2.889  0.00  0.00    +0.040 C 
BRANCH   7   9
ATOM      9  C   LIG    1        2.513  -4.563   3.811  0.00  0.00    -0.110 A 
ATOM     10  C   LIG    1        3.067  -4.565   5.077  0.00  0.00    +0.060 A 
ATOM     11  C   LIG    1        2.334  -4.102   6.153  0.00  0.00    -0.010 A 
ATOM     12  C   LIG    1        1.040  -3.646   5.964  0.00  0.00    +0.100 A 
ATOM     13  C   LIG    1        0.484  -3.650   4.696  0.00  0.00    -0.010 A 
ATOM     14  F   LIG    1        0.321  -3.198   7.016  0.00  0.00    -0.140 F 
ATOM     15  C   LIG    1        1.221  -4.108   3.620  0.00  0.00    +0.060 A 
ENDBRANCH   7   9
ENDBRANCH   4   7
BRANCH   1  16
ATOM     16  O   LIG    1        1.241  -2.029  -0.018  0.00  0.00    -0.290 OA
BRANCH  16  21
ATOM     17  C   LIG    1       -0.010   1.397   0.046  0.00  0.00    -0.100 A 
ATOM     18  C   LIG    1        1.192   2.105   0.089  0.00  0.00    +0.010 A 
ATOM     19  C   LIG    1        2.393   1.425   0.095  0.00  0.00    +0.050 A 
ATOM     20  C   LIG    1        2.409   0.043   0.059  0.00  0.00    -0.030 A 
ATOM     21  C   LIG    1        1.219  -0.670   0.017  0.00  0.00    +0.120 A 
ATOM     22  C   LIG    1        0.008   0.002   0.010  0.00  0.00    +0.060 A 
BRANCH  17  25
ATOM     23  N   LIG    1       -1.313   3.470   0.068  0.00  0.00    -0.730 N 
ATOM     24  H   LIG    1       -0.479   3.963   0.102  0.00  0.00    +0.400 HD
ATOM     25  C   LIG    1       -1.298   2.123   0.033  0.00  0.00    +0.560 C 
ATOM     26  O   LIG    1       -2.344   1.504  -0.009  0.00  0.00    -0.530 OA
BRANCH  23  28
ATOM     27  C   LIG    1       -2.327   5.695   0.101  0.00  0.00    +0.030 C 
ATOM     28  C   LIG    1       -2.590   4.189   0.055  0.00  0.00    +0.250 C 
ENDBRANCH  23  28
ENDBRANCH  17  25
ENDBRANCH  16  21
ENDBRANCH   1  16
TORSDOF 6
