REMARK  Name = ZINCrH000004kWak.0
REMARK                            x       y       z     vdW  Elec       q    Type
REMARK                         _______ _______ _______ _____ _____    ______ ____
ROOT
ATOM      1  N   LIG    1       -4.935   5.384   0.270  0.00  0.00    -0.610 N 
ATOM      2  C   LIG    1       -3.740   6.003   0.190  0.00  0.00    +0.570 C 
ATOM      3  O   LIG    1       -3.686   7.217   0.156  0.00  0.00    -0.520 OA
ATOM      4  C   LIG    1       -4.997   3.926   0.408  0.00  0.00    +0.280 C 
ENDROOT
BRANCH   2   5
ATOM      5  C   LIG    1       -2.497   5.207   0.144  0.00  0.00    -0.180 A 
ATOM      6  C   LIG    1       -2.234   4.260   1.127  0.00  0.00    +0.140 A 
ATOM      7  C   LIG    1       -1.038   3.530   1.036  0.00  0.00    -0.130 A 
ATOM      8  C   LIG    1       -0.707   2.553   1.991  0.00  0.00    +0.100 A 
ATOM      9  C   LIG    1        0.464   1.868   1.876  0.00  0.00    +0.000 A 
ATOM     10  C   LIG    1        1.336   2.117   0.815  0.00  0.00    +0.140 A 
ATOM     11  C   LIG    1        1.042   3.055  -0.132  0.00  0.00    +0.010 A 
ATOM     12  F   LIG    1        2.488   1.418   0.723  0.00  0.00    -0.130 F 
ATOM     13  C   LIG    1       -0.153   3.785  -0.043  0.00  0.00    +0.170 A 
ATOM     14  N   LIG    1       -0.461   4.710  -0.960  0.00  0.00    -0.480 NA
ATOM     15  C   LIG    1       -1.570   5.401  -0.895  0.00  0.00    +0.220 A 
ATOM     16  C   LIG    1       -1.860   6.429  -1.958  0.00  0.00    +0.140 C 
ENDBRANCH   2   5
BRANCH   1  17
ATOM     17  C   LIG    1       -6.171   6.168   0.219  0.00  0.00    +0.350 C 
BRANCH  17  21
ATOM     18  C   LIG    1       -7.449   6.554  -3.844  0.00  0.00    -0.120 A 
ATOM     19  C   LIG    1       -7.886   5.477  -3.070  0.00  0.00    +0.080 A 
ATOM     20  C   LIG    1       -7.470   5.359  -1.760  0.00  0.00    +0.010 A 
ATOM     21  C   LIG    1       -6.621   6.304  -1.212  0.00  0.00    -0.080 A 
ATOM     22  C   LIG    1       -6.188   7.377  -1.971  0.00  0.00    +0.030 A 
ATOM     23  C   LIG    1       -6.592   7.505  -3.284  0.00  0.00    +0.080 A 
BRANCH  18  24
ATOM     24  C   LIG    1       -7.890   6.689  -5.247  0.00  0.00    +0.510 C 
ATOM     25  O   LIG    1       -8.636   5.861  -5.730  0.00  0.00    -0.500 OA
BRANCH  24  27
ATOM     26  C   LIG    1       -7.941   7.797  -7.361  0.00  0.00    +0.280 C 
ATOM     27  O   LIG    1       -7.466   7.729  -5.990  0.00  0.00    -0.350 OA
ENDBRANCH  24  27
ENDBRANCH  18  24
ENDBRANCH  17  21
ENDBRANCH   1  17
TORSDOF 5
