REMARK  Name = ZINCpk00000y6y7W.0
REMARK                            x       y       z     vdW  Elec       q    Type
REMARK                         _______ _______ _______ _____ _____    ______ ____
ROOT
ATOM      1  C   LIG    1       -1.214   2.180   0.020  0.00  0.00    +0.030 A 
ATOM      2  C   LIG    1       -1.242   3.549   0.028  0.00  0.00    +0.230 A 
ATOM      3  N   LIG    1       -2.546   3.895   0.036  0.00  0.00    -0.280 N 
ATOM      4  N   LIG    1       -3.255   2.822   0.034  0.00  0.00    -0.060 NA
ATOM      5  N   LIG    1       -2.501   1.781   0.018  0.00  0.00    -0.210 NA
ENDROOT
BRANCH   1   9
ATOM      6  C   LIG    1        1.307  -0.347  -0.012  0.00  0.00    +0.210 A 
ATOM      7  N   LIG    1        2.002   0.762  -0.013  0.00  0.00    -0.360 NA
ATOM      8  O   LIG    1        1.263   1.723  -0.001  0.00  0.00    +0.100 OA
ATOM      9  C   LIG    1       -0.016   1.316   0.009  0.00  0.00    +0.270 A 
ATOM     10  N   LIG    1        0.002  -0.004   0.002  0.00  0.00    -0.440 NA
BRANCH   6  17
ATOM     11  F   LIG    1        4.077  -0.878  -0.041  0.00  0.00    -0.120 F 
ATOM     12  C   LIG    1        3.233  -1.934  -0.039  0.00  0.00    +0.130 A 
ATOM     13  C   LIG    1        3.735  -3.222  -0.051  0.00  0.00    -0.020 A 
ATOM     14  C   LIG    1        2.872  -4.302  -0.049  0.00  0.00    +0.070 A 
ATOM     15  C   LIG    1        1.504  -4.101  -0.035  0.00  0.00    +0.010 A 
ATOM     16  C   LIG    1        0.991  -2.820  -0.017  0.00  0.00    +0.110 A 
ATOM     17  C   LIG    1        1.853  -1.727  -0.025  0.00  0.00    -0.060 A 
ENDBRANCH   6  17
ENDBRANCH   1   9
BRANCH   3  18
ATOM     18  C   LIG    1       -3.066   5.264   0.046  0.00  0.00    +0.340 C 
BRANCH  18  19
ATOM     19  C   LIG    1       -4.027   5.454  -1.129  0.00  0.00    +0.190 C 
BRANCH  19  20
ATOM     20  N   LIG    1       -4.549   6.827  -1.119  0.00  0.00    -0.530 NA
ATOM     21  C   LIG    1       -5.398   7.058   0.059  0.00  0.00    +0.150 C 
ATOM     22  C   LIG    1       -5.871   8.514   0.061  0.00  0.00    +0.220 C 
ATOM     23  O   LIG    1       -6.556   8.790  -1.163  0.00  0.00    -0.380 OA
ATOM     24  C   LIG    1       -5.758   8.575  -2.331  0.00  0.00    +0.220 C 
ATOM     25  C   LIG    1       -5.284   7.120  -2.358  0.00  0.00    +0.160 C 
ENDBRANCH  19  20
ENDBRANCH  18  19
ENDBRANCH   3  18
TORSDOF 5
