REMARK  Name = ZINCbu0000000GHI.1
REMARK                            x       y       z     vdW  Elec       q    Type
REMARK                         _______ _______ _______ _____ _____    ______ ____
ROOT
ATOM      1  C   LIG    1       -0.013   1.086   0.008  0.00  0.00    +0.220 C 
ATOM      2  C   LIG    1       -0.718   1.572   1.248  0.00  0.00    +0.060 C 
ATOM      3  C   LIG    1       -0.132   1.845   2.467  0.00  0.00    +0.060 A 
ATOM      4  C   LIG    1        1.192   1.778   2.947  0.00  0.00    +0.120 A 
ATOM      5  C   LIG    1        1.447   2.124   4.236  0.00  0.00    +0.100 A 
ATOM      6  C   LIG    1        0.392   2.545   5.070  0.00  0.00    -0.070 A 
ATOM      7  C   LIG    1       -0.869   2.606   4.601  0.00  0.00    +0.270 A 
ATOM      8 BR   LIG    1        0.750   3.027   6.863  0.00  0.00    +0.040 Br
ATOM      9  N   LIG    1       -1.148   2.260   3.304  0.00  0.00    -0.330 N 
ATOM     10  C   LIG    1       -2.290   2.226   2.583  0.00  0.00    +0.500 C 
ATOM     11  N   LIG    1       -2.023   1.822   1.367  0.00  0.00    -0.440 N 
ATOM     12  H   LIG    1       -2.677   1.718   0.658  0.00  0.00    +0.470 HD
ENDROOT
TORSDOF 0
