REMARK  Name = ZINCpe00000FUq9y.0
REMARK                            x       y       z     vdW  Elec       q    Type
REMARK                         _______ _______ _______ _____ _____    ______ ____
ROOT
ATOM      1  C   LIG    1       -2.719   8.207   0.070  0.00  0.00    +0.050 C 
ENDROOT
BRANCH   1   2
ATOM      2  C   LIG    1       -2.740   9.713   0.079  0.00  0.00    +0.530 C 
ATOM      3  N   LIG    1       -3.916  10.371   0.093  0.00  0.00    -0.620 N 
ATOM      4  C   LIG    1       -5.247   9.747   0.095  0.00  0.00    +0.250 C 
ATOM      5  C   LIG    1       -6.287  10.886   0.143  0.00  0.00    +0.050 C 
ATOM      6  C   LIG    1       -5.478  12.074   0.728  0.00  0.00    +0.130 C 
ATOM      7  C   LIG    1       -4.081  11.836   0.102  0.00  0.00    +0.270 C 
ATOM      8  O   LIG    1       -1.698  10.334   0.072  0.00  0.00    -0.530 OA
BRANCH   6   9
ATOM      9  N   LIG    1       -6.039  13.359   0.290  0.00  0.00    -0.530 NA
ATOM     10  C   LIG    1       -5.129  14.468   0.611  0.00  0.00    +0.150 C 
ATOM     11  C   LIG    1       -5.723  15.778   0.086  0.00  0.00    +0.220 C 
ATOM     12  O   LIG    1       -7.024  15.964   0.650  0.00  0.00    -0.380 OA
ATOM     13  C   LIG    1       -7.937  14.903   0.356  0.00  0.00    +0.220 C 
ATOM     14  C   LIG    1       -7.365  13.585   0.883  0.00  0.00    +0.160 C 
ENDBRANCH   6   9
ENDBRANCH   1   2
BRANCH   1  15
ATOM     15  C   LIG    1       -1.270   7.716   0.054  0.00  0.00    +0.290 C 
BRANCH  15  18
ATOM     16  O   LIG    1        0.971   6.216   0.026  0.00  0.00    -0.530 OA
ATOM     17  C   LIG    1       -0.074   5.593   0.032  0.00  0.00    +0.560 C 
ATOM     18  N   LIG    1       -1.250   6.251   0.046  0.00  0.00    -0.730 N 
ATOM     19  H   LIG    1       -2.083   5.755   0.051  0.00  0.00    +0.400 HD
BRANCH  17  20
ATOM     20  C   LIG    1       -0.054   4.116   0.024  0.00  0.00    -0.150 A 
ATOM     21  C   LIG    1        1.163   3.432   0.009  0.00  0.00    +0.120 A 
ATOM     22  C   LIG    1        1.177   2.054   0.002  0.00  0.00    -0.010 A 
ATOM     23  C   LIG    1       -0.016   1.347   0.009  0.00  0.00    +0.130 A 
ATOM     24  C   LIG    1       -1.228   2.021   0.019  0.00  0.00    -0.020 A 
ATOM     25  F   LIG    1        0.002  -0.004   0.002  0.00  0.00    -0.130 F 
ATOM     26  C   LIG    1       -1.252   3.399   0.031  0.00  0.00    +0.080 A 
ENDBRANCH  17  20
ENDBRANCH  15  18
ENDBRANCH   1  15
TORSDOF 5
