REMARK  Name = ZINCrH00000No4AJ.0
REMARK                            x       y       z     vdW  Elec       q    Type
REMARK                         _______ _______ _______ _____ _____    ______ ____
ROOT
ATOM      1  C   LIG    1        0.914   5.938  -0.006  0.00  0.00    +0.580 C 
ATOM      2  N   LIG    1       -0.234   5.258  -0.195  0.00  0.00    -0.490 N 
ATOM      3  O   LIG    1        0.882   7.083   0.402  0.00  0.00    -0.450 OA
ENDROOT
BRANCH   2   4
ATOM      4  C   LIG    1       -1.461   5.897  -0.021  0.00  0.00    +0.370 A 
ATOM      5  C   LIG    1       -2.632   5.149  -0.011  0.00  0.00    -0.060 A 
ATOM      6  C   LIG    1       -3.843   5.797   0.163  0.00  0.00    +0.090 A 
ATOM      7  C   LIG    1       -3.840   7.176   0.323  0.00  0.00    -0.060 A 
ATOM      8  C   LIG    1       -2.638   7.856   0.303  0.00  0.00    +0.290 A 
ATOM      9  N   LIG    1       -1.499   7.211   0.140  0.00  0.00    -0.470 NA
ENDBRANCH   2   4
BRANCH   2  10
ATOM     10  C   LIG    1       -0.195   3.913  -0.565  0.00  0.00    +0.320 A 
ATOM     11  C   LIG    1       -0.280   3.565  -1.908  0.00  0.00    -0.010 A 
ATOM     12  C   LIG    1       -0.240   2.228  -2.260  0.00  0.00    +0.080 A 
ATOM     13  C   LIG    1       -0.116   1.281  -1.254  0.00  0.00    +0.010 A 
ATOM     14  C   LIG    1       -0.043   1.697   0.061  0.00  0.00    +0.280 A 
ATOM     15  N   LIG    1       -0.078   2.980   0.367  0.00  0.00    -0.480 NA
ENDBRANCH   2  10
BRANCH   1  17
ATOM     16  C   LIG    1        3.371   6.027  -0.214  0.00  0.00    +0.260 C 
ATOM     17  C   LIG    1        2.205   5.296  -0.294  0.00  0.00    -0.140 C 
BRANCH  16  21
ATOM     18  C   LIG    1        7.095   4.147  -0.895  0.00  0.00    +0.160 A 
ATOM     19  C   LIG    1        6.904   5.468  -1.288  0.00  0.00    -0.020 A 
ATOM     20  C   LIG    1        5.703   6.081  -1.071  0.00  0.00    +0.110 A 
ATOM     21  C   LIG    1        4.661   5.376  -0.451  0.00  0.00    -0.150 A 
ATOM     22  C   LIG    1        4.862   4.046  -0.052  0.00  0.00    +0.090 A 
ATOM     23  C   LIG    1        6.066   3.442  -0.280  0.00  0.00    -0.080 A 
BRANCH  18  25
ATOM     24  C   LIG    1        8.419   2.186  -0.687  0.00  0.00    +0.250 C 
ATOM     25  O   LIG    1        8.290   3.543  -1.114  0.00  0.00    -0.310 OA
ENDBRANCH  18  25
ENDBRANCH  16  21
BRANCH  17  26
ATOM     26  C   LIG    1        2.251   3.912  -0.657  0.00  0.00    +0.250 C 
ATOM     27  N   LIG    1        2.288   2.814  -0.946  0.00  0.00    -0.410 NA
ENDBRANCH  17  26
ENDBRANCH   1  17
TORSDOF 6
