REMARK  Name = ZINCrH000004pKgj.0
REMARK                            x       y       z     vdW  Elec       q    Type
REMARK                         _______ _______ _______ _____ _____    ______ ____
ROOT
ATOM      1  C   LIG    1        0.810   9.991  -1.716  0.00  0.00    +0.600 C 
ATOM      2  N   LIG    1       -0.023   9.296  -0.916  0.00  0.00    -0.610 N 
ATOM      3  C   LIG    1       -1.080   9.981  -0.160  0.00  0.00    +0.260 C 
ATOM      4  C   LIG    1       -0.951   9.605   1.319  0.00  0.00    +0.030 C 
ATOM      5  C   LIG    1       -0.967   8.081   1.458  0.00  0.00    +0.060 C 
ATOM      6  C   LIG    1        0.224   7.487   0.703  0.00  0.00    -0.010 C 
ATOM      7  C   LIG    1        0.108   7.838  -0.784  0.00  0.00    +0.300 C 
ATOM      8  O   LIG    1        1.629   9.403  -2.398  0.00  0.00    -0.520 OA
ENDROOT
BRANCH   1  16
ATOM      9  C   LIG    1        2.748  17.242  -1.740  0.00  0.00    +0.030 C 
ATOM     10  C   LIG    1        1.795  16.073  -1.489  0.00  0.00    -0.020 C 
ATOM     11  C   LIG    1        0.527  16.255  -2.328  0.00  0.00    +0.030 C 
ATOM     12  C   LIG    1       -0.523  15.238  -1.873  0.00  0.00    +0.110 C 
ATOM     13  C   LIG    1        0.115  13.862  -1.835  0.00  0.00    -0.200 A 
ATOM     14  C   LIG    1        1.449  13.640  -1.840  0.00  0.00    -0.110 A 
ATOM     15  C   LIG    1        1.795  12.302  -1.794  0.00  0.00    +0.100 A 
ATOM     16  C   LIG    1        0.731  11.454  -1.762  0.00  0.00    -0.270 A 
ATOM     17  S   LIG    1       -0.753  12.393  -1.779  0.00  0.00    +0.210 S 
ATOM     18  C   LIG    1        2.478  14.763  -1.886  0.00  0.00    +0.110 C 
ENDBRANCH   1  16
BRANCH   6  19
ATOM     19  C   LIG    1        0.226   5.989   0.867  0.00  0.00    +0.510 C 
ATOM     20  N   LIG    1        1.188   5.248   0.281  0.00  0.00    -0.660 N 
ATOM     21  H   LIG    1        1.919   5.683  -0.184  0.00  0.00    +0.420 HD
ATOM     22  O   LIG    1       -0.638   5.449   1.525  0.00  0.00    -0.460 OA
BRANCH  20  23
ATOM     23  C   LIG    1        1.132   3.857   0.345  0.00  0.00    +0.360 A 
ATOM     24  C   LIG    1        2.064   3.097  -0.353  0.00  0.00    -0.070 A 
ATOM     25  C   LIG    1        2.001   1.717  -0.276  0.00  0.00    +0.090 A 
ATOM     26  C   LIG    1        0.997   1.141   0.490  0.00  0.00    -0.060 A 
ATOM     27  C   LIG    1        0.104   1.957   1.157  0.00  0.00    +0.290 A 
ATOM     28  N   LIG    1        0.192   3.270   1.069  0.00  0.00    -0.480 NA
ENDBRANCH  20  23
ENDBRANCH   6  19
TORSDOF 3
