REMARK  Name = ZINCrg00000c8hi9.0
REMARK                            x       y       z     vdW  Elec       q    Type
REMARK                         _______ _______ _______ _____ _____    ______ ____
ROOT
ATOM      1  O   LIG    1        1.160   3.247   2.351  0.00  0.00    -0.520 OA
ATOM      2  C   LIG    1        1.136   4.039   1.433  0.00  0.00    +0.520 C 
ATOM      3  N   LIG    1        1.113   5.363   1.686  0.00  0.00    -0.620 N 
ATOM      4  C   LIG    1        1.083   6.343   0.590  0.00  0.00    +0.250 C 
ATOM      5  C   LIG    1       -0.058   7.332   0.856  0.00  0.00    +0.210 C 
ATOM      6  O   LIG    1        0.076   7.862   2.177  0.00  0.00    -0.360 OA
ATOM      7  C   LIG    1       -0.025   6.883   3.214  0.00  0.00    +0.110 C 
ATOM      8  C   LIG    1       -1.367   6.157   3.104  0.00  0.00    +0.000 C 
ATOM      9  C   LIG    1       -2.506   7.175   3.222  0.00  0.00    +0.280 C 
ATOM     10  N   LIG    1       -2.332   7.938   4.465  0.00  0.00    -0.610 N 
ATOM     11  C   LIG    1       -1.045   8.603   4.711  0.00  0.00    +0.300 C 
ATOM     12  C   LIG    1       -3.333   8.026   5.363  0.00  0.00    +0.520 C 
ATOM     13  O   LIG    1       -3.177   8.659   6.386  0.00  0.00    -0.520 OA
ATOM     14  C   LIG    1        0.078   7.570   4.577  0.00  0.00    +0.060 C 
ATOM     15  C   LIG    1        1.109   5.870   3.068  0.00  0.00    +0.270 C 
ENDROOT
BRANCH  12  16
ATOM     16  C   LIG    1       -4.647   7.337   5.096  0.00  0.00    +0.150 C 
ATOM     17  C   LIG    1       -5.342   7.964   3.868  0.00  0.00    +0.020 C 
ATOM     18  C   LIG    1       -6.843   7.948   4.237  0.00  0.00    +0.010 C 
ATOM     19  C   LIG    1       -6.876   7.314   5.645  0.00  0.00    +0.200 C 
ATOM     20  O   LIG    1       -5.562   7.559   6.191  0.00  0.00    -0.340 OA
ENDBRANCH  12  16
BRANCH   2  21
ATOM     21  C   LIG    1        1.133   3.544   0.010  0.00  0.00    +0.120 C 
BRANCH  21  22
ATOM     22  C   LIG    1        1.162   2.038   0.002  0.00  0.00    -0.120 A 
ATOM     23  C   LIG    1        2.371   1.359  -0.013  0.00  0.00    +0.070 A 
ATOM     24  C   LIG    1        2.350  -0.027  -0.020  0.00  0.00    -0.030 A 
ATOM     25  C   LIG    1        1.133  -0.682  -0.013  0.00  0.00    +0.260 A 
ATOM     26  N   LIG    1        0.002  -0.004   0.002  0.00  0.00    -0.480 NA
ATOM     27  C   LIG    1       -0.016   1.314   0.009  0.00  0.00    +0.260 A 
ENDBRANCH  21  22
ENDBRANCH   2  21
TORSDOF 3
