REMARK  Name = ZINCnE000001LNEB.1
REMARK                            x       y       z     vdW  Elec       q    Type
REMARK                         _______ _______ _______ _____ _____    ______ ____
ROOT
ATOM      1  C   LIG    1       -2.863  10.757   1.340  0.00  0.00    +0.340 A 
ATOM      2  N   LIG    1       -2.398   9.529   1.323  0.00  0.00    -0.490 NA
ATOM      3  C   LIG    1       -1.089   9.255   1.313  0.00  0.00    +0.160 A 
ATOM      4  C   LIG    1       -0.140  10.261   1.310  0.00  0.00    -0.010 A 
ATOM      5  C   LIG    1       -0.575  11.599   1.322  0.00  0.00    -0.000 A 
ATOM      6  C   LIG    1        0.324  12.674   1.319  0.00  0.00    +0.020 A 
ATOM      7  C   LIG    1       -0.155  13.950   1.332  0.00  0.00    +0.020 A 
ATOM      8  C   LIG    1       -1.524  14.200   1.348  0.00  0.00    -0.020 A 
ATOM      9  C   LIG    1       -2.426  13.177   1.350  0.00  0.00    +0.060 A 
ATOM     10  C   LIG    1       -1.971  11.854   1.337  0.00  0.00    -0.110 A 
ENDROOT
BRANCH   3  11
ATOM     11  C   LIG    1       -0.646   7.844   1.301  0.00  0.00    +0.510 C 
ATOM     12  N   LIG    1       -1.558   6.852   1.304  0.00  0.00    -0.640 NA
ATOM     13  O   LIG    1        0.540   7.580   1.287  0.00  0.00    -0.560 OA
BRANCH  12  14
ATOM     14  C   LIG    1       -1.142   5.526   1.292  0.00  0.00    +0.320 A 
ATOM     15  N   LIG    1        0.091   5.108   1.278  0.00  0.00    -0.360 NA
ATOM     16  N   LIG    1        0.286   3.862   1.269  0.00  0.00    -0.230 NA
ATOM     17  C   LIG    1       -0.749   3.086   1.275  0.00  0.00    -0.060 A 
ATOM     18  S   LIG    1       -2.190   4.106   1.287  0.00  0.00    -0.060 S 
BRANCH  17  19
ATOM     19  C   LIG    1       -0.729   1.579   1.267  0.00  0.00    +0.090 C 
ATOM     20  C   LIG    1        0.011   1.072   2.506  0.00  0.00    +0.020 C 
ATOM     21  C   LIG    1       -0.013   1.086   0.008  0.00  0.00    +0.020 C 
ENDBRANCH  17  19
ENDBRANCH  12  14
ENDBRANCH   3  11
BRANCH   1  23
ATOM     22  C   LIG    1       -5.045   9.820   1.357  0.00  0.00    +0.250 C 
ATOM     23  O   LIG    1       -4.201  10.974   1.355  0.00  0.00    -0.310 OA
ENDBRANCH   1  23
TORSDOF 4
