REMARK  Name = ZINCnE00000rhmoR.0
REMARK                            x       y       z     vdW  Elec       q    Type
REMARK                         _______ _______ _______ _____ _____    ______ ____
ROOT
ATOM      1  C   LIG    1       -0.746   1.577   1.262  0.00  0.00    -0.010 C 
ATOM      2  C   LIG    1       -0.030   1.083   0.004  0.00  0.00    +0.040 C 
ATOM      3  C   LIG    1       -0.770   1.593  -1.236  0.00  0.00    +0.010 C 
ATOM      4  C   LIG    1       -0.554   3.106  -1.355  0.00  0.00    +0.120 C 
ATOM      5  C   LIG    1       -0.853   3.743  -0.018  0.00  0.00    -0.220 A 
ATOM      6  S   LIG    1       -1.140   5.456   0.264  0.00  0.00    +0.010 S 
ATOM      7  C   LIG    1       -1.362   5.134   1.980  0.00  0.00    +0.090 A 
ATOM      8  N   LIG    1       -1.214   3.857   2.194  0.00  0.00    -0.390 NA
ATOM      9  C   LIG    1       -0.943   3.084   1.155  0.00  0.00    +0.120 A 
ENDROOT
BRANCH   1  11
ATOM     10  O   LIG    1        0.037   1.984   3.457  0.00  0.00    -0.670 OA
ATOM     11  C   LIG    1        0.090   1.262   2.475  0.00  0.00    +0.500 C 
ATOM     12  O   LIG    1        0.821   0.286   2.475  0.00  0.00    -0.700 OA
ENDBRANCH   1  11
BRANCH   7  13
ATOM     13  C   LIG    1       -1.664   6.137   3.002  0.00  0.00    +0.120 C 
ATOM     14  C   LIG    1       -1.794   7.438   2.654  0.00  0.00    +0.040 C 
BRANCH  14  15
ATOM     15  C   LIG    1       -2.193   8.394   3.623  0.00  0.00    -0.030 A 
ATOM     16  C   LIG    1       -2.385   8.172   4.976  0.00  0.00    +0.260 A 
ATOM     17  N   LIG    1       -2.752   9.318   5.537  0.00  0.00    -0.490 NA
ATOM     18  C   LIG    1       -2.815  10.271   4.612  0.00  0.00    +0.220 A 
ATOM     19  C   LIG    1       -3.153  11.635   4.689  0.00  0.00    +0.070 A 
ATOM     20  C   LIG    1       -3.134  12.393   3.558  0.00  0.00    +0.040 A 
ATOM     21  C   LIG    1       -2.778  11.807   2.334  0.00  0.00    +0.010 A 
ATOM     22  C   LIG    1       -2.455  10.496   2.276  0.00  0.00    +0.220 A 
ATOM     23  N   LIG    1       -2.471   9.728   3.402  0.00  0.00    -0.360 N 
ENDBRANCH  14  15
ENDBRANCH   7  13
TORSDOF 3
