REMARK  Name = ZINCnE000001TCI0.0
REMARK                            x       y       z     vdW  Elec       q    Type
REMARK                         _______ _______ _______ _____ _____    ______ ____
ROOT
ATOM      1  C   LIG    1        8.258   2.958  -2.528  0.00  0.00    -0.210 A 
ATOM      2  C   LIG    1        7.959   1.972  -1.632  0.00  0.00    +0.020 A 
ATOM      3  C   LIG    1        6.932   2.291  -0.770  0.00  0.00    -0.100 A 
ATOM      4  C   LIG    1        6.405   3.523  -0.970  0.00  0.00    -0.260 A 
ATOM      5  C   LIG    1        5.266   4.095  -0.148  0.00  0.00    +0.260 C 
ATOM      6  N   LIG    1        4.610   2.994   0.573  0.00  0.00    -0.530 NA
ATOM      7  C   LIG    1        5.595   2.189   1.310  0.00  0.00    +0.170 C 
ATOM      8  C   LIG    1        6.417   1.358   0.320  0.00  0.00    +0.110 C 
ATOM      9  S   LIG    1        7.190   4.326  -2.254  0.00  0.00    +0.190 S 
ENDROOT
BRANCH   1  11
ATOM     10  O   LIG    1        9.957   1.882  -3.623  0.00  0.00    -0.680 OA
ATOM     11  C   LIG    1        9.268   2.889  -3.520  0.00  0.00    +0.540 C 
ATOM     12  O   LIG    1        9.451   3.836  -4.275  0.00  0.00    -0.690 OA
ENDBRANCH   1  11
BRANCH   6  13
ATOM     13  C   LIG    1        3.566   3.501   1.472  0.00  0.00    +0.260 C 
BRANCH  13  14
ATOM     14  C   LIG    1        2.453   4.109   0.658  0.00  0.00    -0.220 A 
ATOM     15  C   LIG    1        2.268   5.426   0.420  0.00  0.00    +0.240 A 
ATOM     16  N   LIG    1        1.163   5.561  -0.344  0.00  0.00    -0.470 N 
ATOM     17  H   LIG    1        0.791   6.397  -0.664  0.00  0.00    +0.440 HD
ATOM     18  N   LIG    1        0.647   4.282  -0.593  0.00  0.00    -0.290 NA
ATOM     19  C   LIG    1        1.422   3.404   0.006  0.00  0.00    +0.160 A 
BRANCH  19  20
ATOM     20  C   LIG    1        1.240   1.931   0.001  0.00  0.00    -0.050 A 
ATOM     21  C   LIG    1        2.272   1.069  -0.014  0.00  0.00    +0.030 A 
ATOM     22  S   LIG    1        1.663  -0.580  -0.017  0.00  0.00    +0.100 S 
ATOM     23  C   LIG    1        0.002  -0.004   0.002  0.00  0.00    -0.070 A 
ATOM     24  C   LIG    1       -0.016   1.327   0.009  0.00  0.00    +0.030 A 
ENDBRANCH  19  20
ENDBRANCH  13  14
ENDBRANCH   6  13
TORSDOF 4
