REMARK  Name = ZINC550000002wEJ.0
REMARK                            x       y       z     vdW  Elec       q    Type
REMARK                         _______ _______ _______ _____ _____    ______ ____
ROOT
ATOM      1  C   LIG    1        1.353   1.550  -0.003  0.00  0.00    +0.210 C 
ATOM      2  N   LIG    1       -0.012   1.005   0.008  0.00  0.00    -0.690 NA
ATOM      3  H   LIG    1        0.002  -0.004   0.002  0.00  0.00    +0.350 HD
ENDROOT
BRANCH   2   4
ATOM      4  C   LIG    1       -0.795   1.527  -1.120  0.00  0.00    +0.350 C 
BRANCH   4   5
ATOM      5  C   LIG    1       -2.153   0.960  -1.077  0.00  0.00    +0.200 C 
ATOM      6  N   LIG    1       -3.201   0.523  -1.044  0.00  0.00    -0.420 NA
ENDBRANCH   4   5
ENDBRANCH   2   4
TORSDOF 2
