REMARK  Name = ZINCvU0000000BPd.0
REMARK                            x       y       z     vdW  Elec       q    Type
REMARK                         _______ _______ _______ _____ _____    ______ ____
ROOT
ATOM      1  N   LIG    1        3.395   2.336  -0.017  0.00  0.00    -0.480 N 
ATOM      2  C   LIG    1        2.404   1.375  -0.013  0.00  0.00    +0.060 A 
ATOM      3  C   LIG    1        2.403  -0.013  -0.021  0.00  0.00    +0.010 A 
ATOM      4  C   LIG    1        1.205  -0.695  -0.014  0.00  0.00    +0.040 A 
ATOM      5  C   LIG    1        0.002  -0.004   0.002  0.00  0.00    +0.000 A 
ATOM      6  C   LIG    1       -0.017   1.362   0.009  0.00  0.00    +0.070 A 
ATOM      7  C   LIG    1        1.185   2.075   0.002  0.00  0.00    +0.040 A 
ATOM      8  N   LIG    1        1.489   3.398   0.007  0.00  0.00    -0.460 NA
ATOM      9  C   LIG    1        2.781   3.550  -0.004  0.00  0.00    +0.260 A 
ENDROOT
BRANCH   1  10
ATOM     10  C   LIG    1        4.840   2.093  -0.033  0.00  0.00    +0.330 C 
BRANCH  10  11
ATOM     11  C   LIG    1        5.329   2.018  -1.480  0.00  0.00    +0.190 C 
BRANCH  11  12
ATOM     12  O   LIG    1        6.738   1.781  -1.495  0.00  0.00    -0.310 OA
BRANCH  12  16
ATOM     13  C   LIG    1        8.550   1.493  -5.190  0.00  0.00    -0.110 A 
ATOM     14  C   LIG    1        9.305   1.361  -4.039  0.00  0.00    +0.050 A 
ATOM     15  C   LIG    1        8.700   1.457  -2.801  0.00  0.00    -0.010 A 
ATOM     16  C   LIG    1        7.335   1.686  -2.712  0.00  0.00    +0.120 A 
ATOM     17  C   LIG    1        6.579   1.812  -3.869  0.00  0.00    -0.080 A 
ATOM     18  C   LIG    1        7.189   1.721  -5.105  0.00  0.00    +0.050 A 
BRANCH  13  19
ATOM     19  C   LIG    1        9.212   1.387  -6.540  0.00  0.00    +0.030 C 
ATOM     20  C   LIG    1        9.006   2.692  -7.312  0.00  0.00    +0.020 C 
BRANCH  19  22
ATOM     21  C   LIG    1        9.346   0.042  -8.641  0.00  0.00    +0.000 C 
ATOM     22  C   LIG    1        8.592   0.228  -7.323  0.00  0.00    +0.000 C 
ENDBRANCH  19  22
ENDBRANCH  13  19
ENDBRANCH  12  16
ENDBRANCH  11  12
ENDBRANCH  10  11
ENDBRANCH   1  10
BRANCH   9  23
ATOM     23  C   LIG    1        3.494   4.878  -0.004  0.00  0.00    +0.410 C 
BRANCH  23  24
ATOM     24  N   LIG    1        3.712   5.316  -1.385  0.00  0.00    -0.720 N 
ATOM     25  H   LIG    1        3.406   4.765  -2.122  0.00  0.00    +0.410 HD
ATOM     26  C   LIG    1        4.336   6.484  -1.631  0.00  0.00    +0.610 C 
ATOM     27  O   LIG    1        4.720   7.176  -0.706  0.00  0.00    -0.510 OA
BRANCH  26  28
ATOM     28  C   LIG    1        4.553   6.923  -3.013  0.00  0.00    -0.090 A 
ATOM     29  C   LIG    1        5.164   8.081  -3.401  0.00  0.00    +0.050 A 
ATOM     30  C   LIG    1        5.157   8.091  -4.805  0.00  0.00    -0.060 A 
ATOM     31  C   LIG    1        4.542   6.957  -5.207  0.00  0.00    +0.210 A 
ATOM     32  O   LIG    1        4.180   6.256  -4.125  0.00  0.00    -0.170 OA
ENDBRANCH  26  28
ENDBRANCH  23  24
ENDBRANCH   9  23
TORSDOF 9
