REMARK  Name = ZINCAx0000000iqJ.0
REMARK                            x       y       z     vdW  Elec       q    Type
REMARK                         _______ _______ _______ _____ _____    ______ ____
ROOT
ATOM      1  C   LIG    1       -0.211   0.001   3.217  0.00  0.00    +0.360 C 
ATOM      2  C   LIG    1        0.854   0.128   4.281  0.00  0.00    -0.220 C 
ATOM      3  C   LIG    1        1.598   1.212   3.962  0.00  0.00    +0.100 C 
ATOM      4  C   LIG    1        1.072   1.813   2.719  0.00  0.00    +0.530 C 
ATOM      5  O   LIG    1        1.525   2.800   2.175  0.00  0.00    -0.510 OA
ATOM      6  N   LIG    1        0.016   1.105   2.277  0.00  0.00    -0.590 N 
ENDROOT
BRANCH   1  12
ATOM      7  C   LIG    1       -2.247  -1.018   4.270  0.00  0.00    +0.150 A 
ATOM      8  C   LIG    1       -3.507  -0.906   4.837  0.00  0.00    -0.070 A 
ATOM      9  C   LIG    1       -4.097   0.337   4.968  0.00  0.00    +0.060 A 
ATOM     10  C   LIG    1       -3.432   1.468   4.533  0.00  0.00    -0.020 A 
ATOM     11  C   LIG    1       -2.172   1.359   3.972  0.00  0.00    +0.070 A 
ATOM     12  C   LIG    1       -1.581   0.119   3.834  0.00  0.00    -0.130 A 
BRANCH   7  14
ATOM     13  C   LIG    1       -2.352  -3.350   4.718  0.00  0.00    +0.250 C 
ATOM     14  O   LIG    1       -1.665  -2.239   4.140  0.00  0.00    -0.310 OA
ENDBRANCH   7  14
ENDBRANCH   1  12
BRANCH   3  15
ATOM     15  O   LIG    1        2.655   1.674   4.670  0.00  0.00    -0.430 OA
ATOM     16  H   LIG    1        3.067   2.463   4.291  0.00  0.00    +0.410 HD
ENDBRANCH   3  15
BRANCH   2  17
ATOM     17  C   LIG    1        1.042  -0.751   5.440  0.00  0.00    +0.480 C 
ATOM     18  O   LIG    1        0.878  -0.319   6.565  0.00  0.00    -0.430 OA
BRANCH  17  19
ATOM     19  C   LIG    1        1.431  -2.161   5.241  0.00  0.00    -0.150 A 
ATOM     20  C   LIG    1        1.609  -2.664   3.949  0.00  0.00    +0.090 A 
ATOM     21  C   LIG    1        1.976  -3.979   3.767  0.00  0.00    +0.010 A 
ATOM     22  C   LIG    1        2.160  -4.813   4.863  0.00  0.00    +0.080 A 
ATOM     23  O   LIG    1        2.512  -6.110   4.659  0.00  0.00    -0.300 OA
ATOM     24  C   LIG    1        3.056  -6.814   5.781  0.00  0.00    +0.230 C 
ATOM     25  C   LIG    1        2.168  -6.534   7.001  0.00  0.00    +0.230 C 
ATOM     26  O   LIG    1        2.166  -5.122   7.238  0.00  0.00    -0.300 OA
ATOM     27  C   LIG    1        1.981  -4.319   6.154  0.00  0.00    +0.040 A 
ATOM     28  C   LIG    1        1.617  -3.000   6.344  0.00  0.00    +0.100 A 
ENDBRANCH  17  19
ENDBRANCH   2  17
BRANCH   6  29
ATOM     29  C   LIG    1       -0.771   1.390   1.075  0.00  0.00    +0.320 C 
BRANCH  29  30
ATOM     30  C   LIG    1       -0.162   0.654  -0.120  0.00  0.00    +0.010 C 
BRANCH  30  31
ATOM     31  C   LIG    1       -0.985   0.951  -1.375  0.00  0.00    +0.180 C 
BRANCH  31  32
ATOM     32  N   LIG    1       -0.399   0.245  -2.522  0.00  0.00    -0.540 NA
ATOM     33  C   LIG    1        0.930   0.780  -2.849  0.00  0.00    +0.140 C 
ATOM     34  C   LIG    1        1.527  -0.022  -4.008  0.00  0.00    +0.220 C 
ATOM     35  O   LIG    1        0.635   0.028  -5.125  0.00  0.00    -0.390 OA
ATOM     36  C   LIG    1       -0.669  -0.486  -4.843  0.00  0.00    +0.220 C 
ATOM     37  C   LIG    1       -1.289   0.311  -3.691  0.00  0.00    +0.150 C 
ENDBRANCH  31  32
ENDBRANCH  30  31
ENDBRANCH  29  30
ENDBRANCH   6  29
TORSDOF 9
