REMARK  Name = ZINCAx0000000djV.2
REMARK                            x       y       z     vdW  Elec       q    Type
REMARK                         _______ _______ _______ _____ _____    ______ ____
ROOT
ATOM      1  C   LIG    1       -1.189   5.178  -3.972  0.00  0.00    +0.190 A 
ATOM      2  C   LIG    1       -1.643   6.461  -4.240  0.00  0.00    +0.000 A 
ATOM      3  C   LIG    1       -1.113   7.539  -3.558  0.00  0.00    -0.040 A 
ATOM      4  C   LIG    1       -0.128   7.349  -2.604  0.00  0.00    +0.020 A 
ATOM      5  C   LIG    1        0.331   6.080  -2.321  0.00  0.00    +0.080 A 
ATOM      6  C   LIG    1       -1.611   8.931  -3.854  0.00  0.00    +0.110 C 
ATOM      7  C   LIG    1       -0.191   4.982  -3.006  0.00  0.00    -0.130 A 
ENDROOT
BRANCH   7   8
ATOM      8  C   LIG    1        0.299   3.621  -2.712  0.00  0.00    +0.580 C 
ATOM      9  N   LIG    1        1.605   3.326  -2.873  0.00  0.00    -0.590 N 
ATOM     10  C   LIG    1        2.525   4.283  -3.510  0.00  0.00    +0.240 C 
ATOM     11  C   LIG    1        3.309   3.544  -4.601  0.00  0.00    +0.220 C 
ATOM     12  O   LIG    1        3.905   2.371  -4.042  0.00  0.00    -0.380 OA
ATOM     13  C   LIG    1        2.963   1.415  -3.550  0.00  0.00    +0.230 C 
ATOM     14  C   LIG    1        2.151   2.043  -2.417  0.00  0.00    +0.130 C 
ATOM     15  C   LIG    1        0.987   1.100  -2.044  0.00  0.00    +0.250 C 
ATOM     16  O   LIG    1        1.380   0.036  -1.224  0.00  0.00    -0.380 OA
ATOM     17  C   LIG    1        1.180   0.311   0.181  0.00  0.00    +0.210 C 
ATOM     18  C   LIG    1        2.249   1.154   0.716  0.00  0.00    +0.150 C 
ATOM     19  N   LIG    1        2.341   2.456   0.023  0.00  0.00    -0.530 NA
ATOM     20  C   LIG    1        2.975   3.466   0.881  0.00  0.00    +0.200 C 
ATOM     21  C   LIG    1        3.076   2.289  -1.206  0.00  0.00    +0.190 C 
ATOM     22  O   LIG    1       -0.474   2.766  -2.325  0.00  0.00    -0.480 OA
ENDBRANCH   7   8
BRANCH   1  25
ATOM     23  C   LIG    1       -2.883   2.837  -6.027  0.00  0.00    +0.000 A 
ATOM     24  C   LIG    1       -2.666   4.124  -5.644  0.00  0.00    +0.230 A 
ATOM     25  N   LIG    1       -1.724   4.086  -4.661  0.00  0.00    -0.330 N 
ATOM     26  N   LIG    1       -1.400   2.734  -4.472  0.00  0.00    -0.010 NA
ATOM     27  N   LIG    1       -2.102   2.032  -5.292  0.00  0.00    -0.210 NA
BRANCH  23  32
ATOM     28  C   LIG    1       -6.015   2.475  -8.083  0.00  0.00    +0.120 A 
ATOM     29  C   LIG    1       -5.601   1.566  -9.047  0.00  0.00    -0.070 A 
ATOM     30  C   LIG    1       -4.309   1.073  -9.028  0.00  0.00    +0.050 A 
ATOM     31  C   LIG    1       -3.424   1.483  -8.051  0.00  0.00    -0.090 A 
ATOM     32  C   LIG    1       -3.833   2.395  -7.080  0.00  0.00    +0.020 A 
ATOM     33  C   LIG    1       -2.017   0.943  -8.034  0.00  0.00    +0.090 C 
ATOM     34  C   LIG    1       -5.135   2.887  -7.096  0.00  0.00    +0.000 A 
BRANCH  28  36
ATOM     35  C   LIG    1       -8.140   2.484  -9.148  0.00  0.00    +0.250 C 
ATOM     36  O   LIG    1       -7.285   2.957  -8.105  0.00  0.00    -0.320 OA
ENDBRANCH  28  36
ENDBRANCH  23  32
ENDBRANCH   1  25
TORSDOF 4
