REMARK  Name = ZINCtV000002xVuN.0
REMARK                            x       y       z     vdW  Elec       q    Type
REMARK                         _______ _______ _______ _____ _____    ______ ____
ROOT
ATOM      1  C   LIG    1       -3.485   6.189   0.054  0.00  0.00    +0.130 A 
ATOM      2  C   LIG    1       -4.537   5.350   0.055  0.00  0.00    -0.110 A 
ATOM      3  S   LIG    1       -3.924   3.698   0.042  0.00  0.00    +0.210 S 
ATOM      4  C   LIG    1       -2.273   4.310   0.037  0.00  0.00    +0.270 A 
ATOM      5  N   LIG    1       -2.294   5.607   0.049  0.00  0.00    -0.490 NA
ENDROOT
BRANCH   1   9
ATOM      6  C   LIG    1       -3.949  10.415   0.081  0.00  0.00    -0.070 A 
ATOM      7  C   LIG    1       -2.682   9.861   0.071  0.00  0.00    +0.000 A 
ATOM      8  C   LIG    1       -2.525   8.490   0.062  0.00  0.00    +0.050 A 
ATOM      9  C   LIG    1       -3.647   7.663   0.063  0.00  0.00    -0.030 A 
ATOM     10  C   LIG    1       -4.922   8.227   0.068  0.00  0.00    +0.020 A 
ATOM     11  C   LIG    1       -5.066   9.600   0.082  0.00  0.00    +0.020 A 
BRANCH   6  12
ATOM     12  C   LIG    1       -4.114  11.913   0.090  0.00  0.00    +0.020 C 
ATOM     13  C   LIG    1       -4.893  12.348  -1.153  0.00  0.00    +0.030 C 
BRANCH  12  15
ATOM     14  C   LIG    1       -4.938  13.862   1.419  0.00  0.00    +0.000 C 
ATOM     15  C   LIG    1       -4.879  12.335   1.345  0.00  0.00    +0.000 C 
ENDBRANCH  12  15
ENDBRANCH   6  12
ENDBRANCH   1   9
BRANCH   4  16
ATOM     16  N   LIG    1       -1.127   3.527   0.027  0.00  0.00    -0.610 N 
ATOM     17  H   LIG    1       -0.252   3.947   0.025  0.00  0.00    +0.430 HD
ATOM     18  C   LIG    1       -1.229   2.183   0.020  0.00  0.00    +0.610 C 
ATOM     19  O   LIG    1       -2.326   1.657   0.022  0.00  0.00    -0.470 OA
BRANCH  18  20
ATOM     20  C   LIG    1       -0.016   1.354   0.009  0.00  0.00    -0.040 A 
ATOM     21  C   LIG    1        0.002  -0.004   0.002  0.00  0.00    -0.050 A 
ATOM     22  C   LIG    1        1.413  -0.390  -0.013  0.00  0.00    -0.120 A 
ATOM     23  C   LIG    1        2.086  -1.614  -0.026  0.00  0.00    +0.060 A 
ATOM     24  C   LIG    1        3.464  -1.632  -0.038  0.00  0.00    +0.090 A 
ATOM     25  C   LIG    1        4.180  -0.440  -0.039  0.00  0.00    +0.040 A 
ATOM     26  C   LIG    1        3.527   0.773  -0.027  0.00  0.00    +0.070 A 
ATOM     27  F   LIG    1        4.122  -2.812  -0.050  0.00  0.00    -0.130 F 
ATOM     28  C   LIG    1        2.138   0.816  -0.014  0.00  0.00    +0.070 A 
ATOM     29  C   LIG    1       -1.190  -0.926   0.009  0.00  0.00    +0.170 C 
ATOM     30  O   LIG    1        1.247   1.827   0.000  0.00  0.00    -0.180 OA
ENDBRANCH  18  20
ENDBRANCH   4  16
TORSDOF 5
