REMARK  Name = ZINCpk00000y6x40.1
REMARK                            x       y       z     vdW  Elec       q    Type
REMARK                         _______ _______ _______ _____ _____    ______ ____
ROOT
ATOM      1  N   LIG    1       -0.714   1.567  -1.184  0.00  0.00    -0.600 N 
ATOM      2  C   LIG    1       -1.638   0.789  -1.783  0.00  0.00    +0.620 C 
ATOM      3  O   LIG    1       -2.166   1.158  -2.814  0.00  0.00    -0.520 OA
ENDROOT
BRANCH   2   4
ATOM      4  C   LIG    1       -2.008  -0.510  -1.187  0.00  0.00    +0.000 A 
ATOM      5  N   LIG    1       -1.592  -0.997  -0.029  0.00  0.00    -0.220 NA
ATOM      6  N   LIG    1       -2.117  -2.156   0.181  0.00  0.00    -0.360 N 
ATOM      7  H   LIG    1       -1.959  -2.703   0.966  0.00  0.00    +0.440 HD
ATOM      8  C   LIG    1       -2.907  -2.495  -0.846  0.00  0.00    -0.030 A 
ATOM      9  C   LIG    1       -3.729  -3.738  -1.068  0.00  0.00    +0.250 C 
ATOM     10  C   LIG    1       -4.487  -4.092   0.213  0.00  0.00    +0.070 C 
ATOM     11  O   LIG    1       -4.661  -3.469  -2.125  0.00  0.00    -0.370 OA
ATOM     12  C   LIG    1       -4.075  -2.921  -3.308  0.00  0.00    +0.150 C 
ATOM     13  C   LIG    1       -5.107  -2.930  -4.438  0.00  0.00    +0.070 C 
ATOM     14  C   LIG    1       -3.622  -1.477  -3.040  0.00  0.00    +0.110 C 
ATOM     15  C   LIG    1       -2.864  -1.472  -1.741  0.00  0.00    -0.140 A 
ENDBRANCH   2   4
BRANCH   1  16
ATOM     16  C   LIG    1        0.007   1.074  -0.008  0.00  0.00    +0.300 C 
BRANCH  16  17
ATOM     17  C   LIG    1       -0.686   1.574   1.262  0.00  0.00    +0.160 C 
BRANCH  17  19
ATOM     18  C   LIG    1       -2.727   1.404   2.506  0.00  0.00    +0.190 C 
ATOM     19  O   LIG    1       -1.991   1.000   1.350  0.00  0.00    -0.360 OA
ENDBRANCH  17  19
ENDBRANCH  16  17
ENDBRANCH   1  16
BRANCH   1  20
ATOM     20  C   LIG    1       -0.431   2.905  -1.709  0.00  0.00    +0.380 C 
BRANCH  20  21
ATOM     21  C   LIG    1        0.671   2.820  -2.733  0.00  0.00    +0.060 A 
ATOM     22  C   LIG    1        0.510   2.712  -4.072  0.00  0.00    -0.090 A 
ATOM     23  C   LIG    1        1.780   2.665  -4.656  0.00  0.00    +0.220 A 
ATOM     24  N   LIG    1        2.672   2.733  -3.702  0.00  0.00    -0.290 NA
ATOM     25  N   LIG    1        1.996   2.832  -2.478  0.00  0.00    -0.370 N 
ATOM     26  C   LIG    1        2.619   2.931  -1.156  0.00  0.00    +0.340 C 
ENDBRANCH  20  21
ENDBRANCH   1  20
TORSDOF 6
