REMARK  Name = ZINCpk00000y6x40.0
REMARK                            x       y       z     vdW  Elec       q    Type
REMARK                         _______ _______ _______ _____ _____    ______ ____
ROOT
ATOM      1  N   LIG    1        1.821   5.647  -1.094  0.00  0.00    -0.600 N 
ATOM      2  C   LIG    1        1.117   4.763  -0.360  0.00  0.00    +0.600 C 
ATOM      3  O   LIG    1        1.683   3.825   0.169  0.00  0.00    -0.510 OA
ENDROOT
BRANCH   2   4
ATOM      4  C   LIG    1       -0.335   4.933  -0.196  0.00  0.00    -0.030 A 
ATOM      5  C   LIG    1       -1.208   4.055   0.386  0.00  0.00    -0.110 A 
ATOM      6  C   LIG    1       -0.983   2.708   1.016  0.00  0.00    +0.120 C 
ATOM      7  C   LIG    1       -2.236   2.369   1.840  0.00  0.00    +0.150 C 
ATOM      8  O   LIG    1       -3.409   2.606   1.058  0.00  0.00    -0.370 OA
ATOM      9  C   LIG    1       -3.717   3.990   0.838  0.00  0.00    +0.260 C 
ATOM     10  C   LIG    1       -4.852   4.113  -0.180  0.00  0.00    +0.070 C 
ATOM     11  C   LIG    1       -2.191   0.896   2.252  0.00  0.00    +0.060 C 
ATOM     12  C   LIG    1       -2.474   4.657   0.301  0.00  0.00    -0.000 A 
ATOM     13  N   LIG    1       -2.328   5.803  -0.288  0.00  0.00    -0.240 NA
ATOM     14  N   LIG    1       -1.092   6.004  -0.597  0.00  0.00    -0.400 N 
ATOM     15  H   LIG    1       -0.749   6.793  -1.045  0.00  0.00    +0.450 HD
ENDBRANCH   2   4
BRANCH   1  16
ATOM     16  C   LIG    1        1.142   6.783  -1.722  0.00  0.00    +0.300 C 
BRANCH  16  17
ATOM     17  C   LIG    1        0.980   7.909  -0.699  0.00  0.00    +0.140 C 
BRANCH  17  19
ATOM     18  C   LIG    1        2.229   9.460   0.635  0.00  0.00    +0.210 C 
ATOM     19  O   LIG    1        2.268   8.400  -0.323  0.00  0.00    -0.380 OA
ENDBRANCH  17  19
ENDBRANCH  16  17
ENDBRANCH   1  16
BRANCH   1  20
ATOM     20  C   LIG    1        3.266   5.472  -1.265  0.00  0.00    +0.400 C 
BRANCH  20  21
ATOM     21  C   LIG    1        3.535   4.757  -2.564  0.00  0.00    +0.060 A 
ATOM     22  C   LIG    1        3.820   5.340  -3.751  0.00  0.00    -0.110 A 
ATOM     23  C   LIG    1        4.002   4.324  -4.696  0.00  0.00    +0.220 A 
ATOM     24  N   LIG    1        3.825   3.174  -4.099  0.00  0.00    -0.290 NA
ATOM     25  N   LIG    1        3.529   3.421  -2.752  0.00  0.00    -0.360 N 
ATOM     26  C   LIG    1        3.261   2.407  -1.729  0.00  0.00    +0.350 C 
ENDBRANCH  20  21
ENDBRANCH   1  20
TORSDOF 6
