REMARK  Name = ZINCrg00000zUNBs.0
REMARK                            x       y       z     vdW  Elec       q    Type
REMARK                         _______ _______ _______ _____ _____    ______ ____
ROOT
ATOM      1  N   LIG    1       -1.429   4.811   1.959  0.00  0.00    -0.450 N 
ATOM      2  C   LIG    1       -2.767   5.059   2.028  0.00  0.00    +0.480 A 
ATOM      3  N   LIG    1       -3.110   5.313   3.257  0.00  0.00    -0.450 NA
ATOM      4  C   LIG    1       -2.016   5.244   4.053  0.00  0.00    -0.040 A 
ATOM      5  C   LIG    1       -1.781   5.418   5.428  0.00  0.00    +0.450 A 
ATOM      6  N   LIG    1       -0.544   5.253   5.885  0.00  0.00    -0.570 NA
ATOM      7  C   LIG    1        0.450   4.947   5.072  0.00  0.00    +0.530 A 
ATOM      8  N   LIG    1        0.279   4.780   3.777  0.00  0.00    -0.530 NA
ATOM      9  C   LIG    1       -0.925   4.915   3.231  0.00  0.00    +0.300 A 
ENDROOT
BRANCH   5  10
ATOM     10  N   LIG    1       -2.817   5.736   6.288  0.00  0.00    -0.470 N 
ATOM     11  C   LIG    1       -3.627   4.551   6.599  0.00  0.00    +0.240 C 
BRANCH  10  12
ATOM     12  C   LIG    1       -2.309   6.363   7.515  0.00  0.00    +0.200 C 
BRANCH  12  13
ATOM     13  C   LIG    1       -1.920   7.814   7.223  0.00  0.00    +0.180 C 
ATOM     14  C   LIG    1       -3.157   8.593   6.772  0.00  0.00    +0.080 C 
BRANCH  13  15
ATOM     15  C   LIG    1       -1.357   8.444   8.471  0.00  0.00    -0.110 A 
ATOM     16  C   LIG    1       -1.795   8.027   9.714  0.00  0.00    +0.010 A 
ATOM     17  C   LIG    1       -1.276   8.602  10.859  0.00  0.00    +0.000 A 
ATOM     18  C   LIG    1       -0.326   9.601  10.761  0.00  0.00    +0.000 A 
ATOM     19  C   LIG    1        0.108  10.022   9.518  0.00  0.00    +0.000 A 
ATOM     20  C   LIG    1       -0.408   9.444   8.373  0.00  0.00    +0.030 A 
ENDBRANCH  13  15
BRANCH  13  21
ATOM     21  O   LIG    1       -0.934   7.844   6.189  0.00  0.00    -0.550 OA
ATOM     22  H   LIG    1       -0.088   7.450   6.441  0.00  0.00    +0.370 HD
ENDBRANCH  13  21
ENDBRANCH  12  13
ENDBRANCH  10  12
ENDBRANCH   5  10
BRANCH   1  23
ATOM     23  C   LIG    1       -0.668   4.487   0.749  0.00  0.00    +0.230 C 
BRANCH  23  25
ATOM     24  C   LIG    1       -0.429   2.865  -1.137  0.00  0.00    +0.030 C 
ATOM     25  C   LIG    1       -1.223   3.204   0.127  0.00  0.00    +0.210 C 
BRANCH  25  26
ATOM     26  O   LIG    1       -1.109   2.131   1.064  0.00  0.00    -0.550 OA
ATOM     27  H   LIG    1       -0.200   1.945   1.339  0.00  0.00    +0.380 HD
ENDBRANCH  25  26
ENDBRANCH  23  25
BRANCH  23  28
ATOM     28  C   LIG    1       -0.791   5.635  -0.254  0.00  0.00    +0.190 C 
BRANCH  28  29
ATOM     29  O   LIG    1       -0.169   6.804   0.282  0.00  0.00    -0.560 OA
ATOM     30  H   LIG    1       -0.209   7.574  -0.302  0.00  0.00    +0.390 HD
ENDBRANCH  28  29
ENDBRANCH  23  28
ENDBRANCH   1  23
TORSDOF 10
