REMARK  Name = ZINCtV000002AFyu.0
REMARK                            x       y       z     vdW  Elec       q    Type
REMARK                         _______ _______ _______ _____ _____    ______ ____
ROOT
ATOM      1  C   LIG    1       -5.865  -1.436   1.598  0.00  0.00    +0.230 A 
ATOM      2  N   LIG    1       -5.853  -0.774   0.465  0.00  0.00    -0.270 NA
ATOM      3  N   LIG    1       -4.807  -0.029   0.403  0.00  0.00    -0.290 NA
ATOM      4  C   LIG    1       -4.087  -0.171   1.493  0.00  0.00    +0.160 A 
ATOM      5  N   LIG    1       -4.732  -1.075   2.289  0.00  0.00    -0.450 N 
ENDROOT
BRANCH   1   9
ATOM      6  C   LIG    1       -8.836  -4.190   2.882  0.00  0.00    +0.150 A 
ATOM      7  C   LIG    1       -8.466  -4.144   1.545  0.00  0.00    -0.010 A 
ATOM      8  C   LIG    1       -7.502  -3.252   1.124  0.00  0.00    +0.110 A 
ATOM      9  C   LIG    1       -6.899  -2.394   2.045  0.00  0.00    -0.060 A 
ATOM     10  C   LIG    1       -7.269  -2.447   3.390  0.00  0.00    +0.070 A 
ATOM     11  C   LIG    1       -8.238  -3.338   3.802  0.00  0.00    -0.070 A 
BRANCH   6  13
ATOM     12  C   LIG    1      -10.119  -5.064   4.683  0.00  0.00    +0.240 C 
ATOM     13  O   LIG    1       -9.786  -5.070   3.293  0.00  0.00    -0.310 OA
ENDBRANCH   6  13
ENDBRANCH   1   9
BRANCH   4  14
ATOM     14  S   LIG    1       -2.569   0.647   1.856  0.00  0.00    +0.010 S 
BRANCH  14  15
ATOM     15  C   LIG    1       -2.381   1.641   0.356  0.00  0.00    +0.160 C 
BRANCH  15  16
ATOM     16  C   LIG    1       -1.112   2.449   0.444  0.00  0.00    -0.090 A 
ATOM     17  C   LIG    1        0.076   1.925  -0.032  0.00  0.00    +0.040 A 
ATOM     18  C   LIG    1        1.239   2.668   0.045  0.00  0.00    +0.000 A 
ATOM     19  C   LIG    1        1.215   3.933   0.602  0.00  0.00    -0.060 A 
ATOM     20  C   LIG    1        0.029   4.455   1.082  0.00  0.00    +0.010 A 
ATOM     21  C   LIG    1       -1.134   3.712   1.006  0.00  0.00    +0.040 A 
BRANCH  19  22
ATOM     22  C   LIG    1        2.483   4.744   0.684  0.00  0.00    -0.030 C 
ATOM     23  C   LIG    1        3.517   3.990   1.523  0.00  0.00    +0.040 C 
ATOM     24  C   LIG    1        2.183   6.094   1.338  0.00  0.00    +0.030 C 
ATOM     25  C   LIG    1        3.036   4.970  -0.724  0.00  0.00    +0.040 C 
ENDBRANCH  19  22
ENDBRANCH  15  16
ENDBRANCH  14  15
ENDBRANCH   4  14
BRANCH   5  26
ATOM     26  C   LIG    1       -4.306  -1.556   3.606  0.00  0.00    +0.300 C 
BRANCH  26  27
ATOM     27  C   LIG    1       -3.659  -2.935   3.460  0.00  0.00    -0.030 C 
ATOM     28  C   LIG    1       -3.266  -3.462   4.842  0.00  0.00    +0.040 C 
ATOM     29  C   LIG    1       -2.410  -2.821   2.584  0.00  0.00    +0.020 C 
ENDBRANCH  26  27
ENDBRANCH   5  26
TORSDOF 8
