REMARK  Name = ZINCvU00000005iD.0
REMARK                            x       y       z     vdW  Elec       q    Type
REMARK                         _______ _______ _______ _____ _____    ______ ____
ROOT
ATOM      1  C   LIG    1        4.297   0.035  -5.183  0.00  0.00    +0.170 C 
ATOM      2  N   LIG    1        3.727   0.348  -4.071  0.00  0.00    -0.270 NA
ATOM      3  N   LIG    1        4.438  -0.042  -2.938  0.00  0.00    -0.430 N 
ATOM      4  C   LIG    1        5.668  -0.730  -3.361  0.00  0.00    +0.290 C 
ATOM      5  C   LIG    1        5.593  -0.690  -4.900  0.00  0.00    +0.110 C 
ENDROOT
BRANCH   4   6
ATOM      6  C   LIG    1        6.885   0.007  -2.866  0.00  0.00    -0.070 A 
ATOM      7  C   LIG    1        6.904   1.389  -2.868  0.00  0.00    +0.030 A 
ATOM      8  C   LIG    1        8.018   2.066  -2.409  0.00  0.00    +0.020 A 
ATOM      9  C   LIG    1        9.119   1.360  -1.957  0.00  0.00    -0.030 A 
ATOM     10  C   LIG    1        9.101  -0.023  -1.961  0.00  0.00    +0.040 A 
ATOM     11 CL   LIG    1       10.521   2.210  -1.386  0.00  0.00    -0.070 Cl
ATOM     12  C   LIG    1        7.985  -0.699  -2.415  0.00  0.00    +0.060 A 
ENDBRANCH   4   6
BRANCH   1  17
ATOM     13  C   LIG    1        2.056   1.283  -7.929  0.00  0.00    +0.210 A 
ATOM     14  C   LIG    1        2.767   0.884  -9.055  0.00  0.00    -0.050 A 
ATOM     15  C   LIG    1        3.968   0.214  -8.919  0.00  0.00    +0.060 A 
ATOM     16  C   LIG    1        4.470  -0.065  -7.664  0.00  0.00    -0.010 A 
ATOM     17  C   LIG    1        3.763   0.332  -6.526  0.00  0.00    +0.000 A 
ATOM     18  C   LIG    1        2.549   1.004  -6.664  0.00  0.00    -0.030 A 
BRANCH  13  20
ATOM     19  C   LIG    1        0.320   2.251  -9.410  0.00  0.00    +0.280 C 
ATOM     20  N   LIG    1        0.843   1.961  -8.073  0.00  0.00    -0.640 N 
ATOM     21  C   LIG    1        0.094   2.382  -6.886  0.00  0.00    +0.280 C 
ENDBRANCH  13  20
ENDBRANCH   1  17
BRANCH   3  22
ATOM     22  C   LIG    1        4.058   0.171  -1.662  0.00  0.00    +0.590 C 
ATOM     23  S   LIG    1        5.040  -0.379  -0.373  0.00  0.00    -0.600 S 
BRANCH  22  24
ATOM     24  N   LIG    1        2.903   0.816  -1.402  0.00  0.00    -0.670 N 
ATOM     25  H   LIG    1        2.346   1.128  -2.132  0.00  0.00    +0.410 HD
BRANCH  24  26
ATOM     26  C   LIG    1        2.490   1.048  -0.016  0.00  0.00    +0.370 C 
BRANCH  26  27
ATOM     27  C   LIG    1        1.175   1.783   0.000  0.00  0.00    -0.120 A 
ATOM     28  C   LIG    1       -0.013   1.076   0.008  0.00  0.00    +0.020 A 
ATOM     29  C   LIG    1       -1.219   1.751   0.017  0.00  0.00    +0.010 A 
ATOM     30  C   LIG    1       -1.238   3.133   0.029  0.00  0.00    +0.020 A 
ATOM     31  C   LIG    1       -0.050   3.840   0.022  0.00  0.00    +0.010 A 
ATOM     32  C   LIG    1        1.156   3.165   0.008  0.00  0.00    +0.020 A 
ENDBRANCH  26  27
ENDBRANCH  24  26
ENDBRANCH  22  24
ENDBRANCH   3  22
TORSDOF 7
