REMARK  Name = ZINCrH000004oTNc.0
REMARK                            x       y       z     vdW  Elec       q    Type
REMARK                         _______ _______ _______ _____ _____    ______ ____
ROOT
ATOM      1  C   LIG    1       -0.754   1.593  -1.231  0.00  0.00    -0.010 C 
ATOM      2  C   LIG    1       -0.013   1.086   0.008  0.00  0.00    +0.050 C 
ATOM      3  C   LIG    1       -0.731   1.581   1.267  0.00  0.00    +0.270 C 
ATOM      4  N   LIG    1       -2.141   1.172   1.198  0.00  0.00    -0.620 N 
ATOM      5  C   LIG    1       -2.923   1.530   0.007  0.00  0.00    +0.280 C 
ATOM      6  C   LIG    1       -2.706   0.481   2.208  0.00  0.00    +0.520 C 
ATOM      7  O   LIG    1       -3.871   0.149   2.139  0.00  0.00    -0.540 OA
ATOM      8  C   LIG    1       -2.180   1.036  -1.238  0.00  0.00    +0.030 C 
ENDROOT
BRANCH   1  11
ATOM      9  N   LIG    1       -0.504   1.468  -3.689  0.00  0.00    -0.730 N 
ATOM     10  H   LIG    1       -1.312   2.001  -3.766  0.00  0.00    +0.400 HD
ATOM     11  C   LIG    1       -0.030   1.137  -2.471  0.00  0.00    +0.520 C 
ATOM     12  O   LIG    1        0.979   0.472  -2.374  0.00  0.00    -0.540 OA
BRANCH   9  15
ATOM     13  C   LIG    1        0.344   3.392  -5.681  0.00  0.00    +0.020 C 
ATOM     14  C   LIG    1       -0.114   1.980  -6.048  0.00  0.00    -0.010 C 
ATOM     15  C   LIG    1        0.199   1.025  -4.894  0.00  0.00    +0.240 C 
ATOM     16  C   LIG    1       -0.260  -0.388  -5.262  0.00  0.00    +0.000 C 
ATOM     17  C   LIG    1        0.475  -0.851  -6.522  0.00  0.00    +0.010 C 
ATOM     18  C   LIG    1        0.162   0.104  -7.675  0.00  0.00    +0.010 C 
ATOM     19  C   LIG    1        0.621   1.516  -7.308  0.00  0.00    -0.010 C 
ATOM     20  C   LIG    1        0.307   2.471  -8.461  0.00  0.00    +0.020 C 
ENDBRANCH   9  15
ENDBRANCH   1  11
BRANCH   6  21
ATOM     21  C   LIG    1       -1.891   0.121   3.423  0.00  0.00    +0.070 C 
BRANCH  21  22
ATOM     22  C   LIG    1       -2.764  -0.656   4.411  0.00  0.00    +0.090 C 
BRANCH  22  23
ATOM     23  C   LIG    1       -1.949  -1.016   5.626  0.00  0.00    -0.080 A 
ATOM     24  C   LIG    1       -1.256  -2.211   5.664  0.00  0.00    +0.000 A 
ATOM     25  C   LIG    1       -0.504  -2.539   6.777  0.00  0.00    +0.000 A 
ATOM     26  C   LIG    1       -0.454  -1.677   7.856  0.00  0.00    +0.000 A 
ATOM     27  C   LIG    1       -1.152  -0.484   7.820  0.00  0.00    +0.000 A 
ATOM     28  C   LIG    1       -1.899  -0.153   6.705  0.00  0.00    +0.000 A 
ENDBRANCH  22  23
ENDBRANCH  21  22
ENDBRANCH   6  21
TORSDOF 5
