REMARK  Name = ZINCqH0000003JXA.0
REMARK                            x       y       z     vdW  Elec       q    Type
REMARK                         _______ _______ _______ _____ _____    ______ ____
ROOT
ATOM      1  C   LIG    1        5.082   1.211  -0.155  0.00  0.00    +0.180 C 
ATOM      2  C   LIG    1        5.236   0.166   0.951  0.00  0.00    +0.020 C 
ENDROOT
BRANCH   1   3
ATOM      3  C   LIG    1        5.027   0.521  -1.494  0.00  0.00    +0.520 C 
ATOM      4  N   LIG    1        3.986  -0.280  -1.797  0.00  0.00    -0.680 N 
ATOM      5  H   LIG    1        3.306  -0.464  -1.130  0.00  0.00    +0.410 HD
ATOM      6  O   LIG    1        5.919   0.687  -2.298  0.00  0.00    -0.490 OA
BRANCH   4   7
ATOM      7  C   LIG    1        3.888  -0.843  -3.067  0.00  0.00    +0.180 A 
ATOM      8  C   LIG    1        5.038  -1.256  -3.734  0.00  0.00    +0.010 A 
ATOM      9  C   LIG    1        4.946  -1.806  -4.987  0.00  0.00    +0.090 A 
ATOM     10  C   LIG    1        3.692  -1.962  -5.590  0.00  0.00    -0.190 A 
ATOM     11  C   LIG    1        2.537  -1.545  -4.915  0.00  0.00    +0.100 A 
ATOM     12  C   LIG    1        2.639  -0.991  -3.666  0.00  0.00    -0.030 A 
BRANCH  10  13
ATOM     13  C   LIG    1        3.587  -2.556  -6.929  0.00  0.00    +0.400 C 
ATOM     14  O   LIG    1        2.511  -2.612  -7.486  0.00  0.00    -0.460 OA
ATOM     15  C   LIG    1        4.817  -3.097  -7.611  0.00  0.00    +0.070 C 
ENDBRANCH  10  13
ENDBRANCH   4   7
ENDBRANCH   1   3
BRANCH   1  16
ATOM     16  N   LIG    1        6.229   2.129  -0.124  0.00  0.00    -0.510 NA
ATOM     17  C   LIG    1        6.137   3.047   1.019  0.00  0.00    +0.200 C 
BRANCH  16  18
ATOM     18  C   LIG    1        7.497   1.388  -0.104  0.00  0.00    +0.230 C 
BRANCH  18  22
ATOM     19  C   LIG    1       10.743   4.099  -0.715  0.00  0.00    +0.130 A 
ATOM     20  C   LIG    1       10.296   3.829   0.570  0.00  0.00    -0.030 A 
ATOM     21  C   LIG    1        9.246   2.953   0.765  0.00  0.00    +0.040 A 
ATOM     22  C   LIG    1        8.641   2.344  -0.319  0.00  0.00    -0.120 A 
ATOM     23  C   LIG    1        9.088   2.607  -1.601  0.00  0.00    +0.080 A 
ATOM     24  C   LIG    1       10.134   3.488  -1.802  0.00  0.00    -0.080 A 
BRANCH  19  25
ATOM     25  O   LIG    1       11.775   4.961  -0.910  0.00  0.00    -0.320 OA
BRANCH  25  27
ATOM     26  C   LIG    1       13.349   6.182  -2.279  0.00  0.00    +0.070 C 
ATOM     27  C   LIG    1       12.182   5.192  -2.260  0.00  0.00    +0.170 C 
ENDBRANCH  25  27
ENDBRANCH  19  25
ENDBRANCH  18  22
ENDBRANCH  16  18
ENDBRANCH   1  16
TORSDOF 8
