REMARK  Name = ZINCtV000002H4qm.0
REMARK                            x       y       z     vdW  Elec       q    Type
REMARK                         _______ _______ _______ _____ _____    ______ ____
ROOT
ATOM      1  C   LIG    1       -0.816   1.435   1.261  0.00  0.00    +0.510 C 
ATOM      2  N   LIG    1       -0.242   1.246   2.466  0.00  0.00    -0.670 N 
ATOM      3  H   LIG    1        0.582   0.738   2.536  0.00  0.00    +0.410 HD
ATOM      4  O   LIG    1       -1.893   1.987   1.183  0.00  0.00    -0.500 OA
ENDROOT
BRANCH   2   5
ATOM      5  C   LIG    1       -0.833   1.782   3.615  0.00  0.00    +0.150 A 
ATOM      6  C   LIG    1       -1.514   2.991   3.545  0.00  0.00    +0.020 A 
ATOM      7  C   LIG    1       -2.102   3.519   4.675  0.00  0.00    +0.050 A 
ATOM      8  C   LIG    1       -2.005   2.843   5.890  0.00  0.00    -0.040 A 
ATOM      9  C   LIG    1       -1.317   1.633   5.959  0.00  0.00    +0.080 A 
ATOM     10  C   LIG    1       -0.735   1.107   4.825  0.00  0.00    -0.020 A 
BRANCH   8  11
ATOM     11  C   LIG    1       -2.632   3.412   7.109  0.00  0.00    +0.110 A 
ATOM     12  C   LIG    1       -3.310   4.577   7.109  0.00  0.00    -0.080 A 
ATOM     13  S   LIG    1       -3.881   4.870   8.750  0.00  0.00    +0.130 S 
ATOM     14  C   LIG    1       -3.160   3.412   9.275  0.00  0.00    +0.050 A 
ATOM     15  C   LIG    1       -3.203   2.893  10.689  0.00  0.00    +0.180 C 
ATOM     16  N   LIG    1       -2.579   2.816   8.291  0.00  0.00    -0.470 NA
ENDBRANCH   8  11
ENDBRANCH   2   5
BRANCH   1  17
ATOM     17  C   LIG    1       -0.119   0.962   0.012  0.00  0.00    +0.160 C 
BRANCH  17  19
ATOM     18  C   LIG    1       -0.911   2.430  -1.911  0.00  0.00    +0.130 A 
ATOM     19  C   LIG    1       -0.965   1.292  -1.191  0.00  0.00    -0.210 A 
ATOM     20  S   LIG    1       -2.196   0.256  -1.910  0.00  0.00    +0.150 S 
ATOM     21  C   LIG    1       -2.523   1.444  -3.094  0.00  0.00    +0.060 A 
ATOM     22  C   LIG    1       -3.552   1.307  -4.186  0.00  0.00    +0.180 C 
ATOM     23  N   LIG    1       -1.765   2.471  -2.924  0.00  0.00    -0.460 NA
BRANCH  18  28
ATOM     24  C   LIG    1        2.712   6.739  -0.694  0.00  0.00    +0.090 C 
ATOM     25  C   LIG    1        1.764   5.611  -1.012  0.00  0.00    -0.080 A 
ATOM     26  C   LIG    1        1.451   5.325  -2.329  0.00  0.00    +0.010 A 
ATOM     27  C   LIG    1        0.584   4.294  -2.627  0.00  0.00    +0.050 A 
ATOM     28  C   LIG    1        0.022   3.540  -1.597  0.00  0.00    -0.030 A 
ATOM     29  C   LIG    1        0.337   3.836  -0.273  0.00  0.00    +0.020 A 
ATOM     30  C   LIG    1        1.210   4.866   0.013  0.00  0.00    +0.000 A 
ENDBRANCH  18  28
ENDBRANCH  17  19
ENDBRANCH   1  17
TORSDOF 5
