REMARK  Name = ZINCrH000004qBbQ.2
REMARK                            x       y       z     vdW  Elec       q    Type
REMARK                         _______ _______ _______ _____ _____    ______ ____
ROOT
ATOM      1  C   LIG    1       -5.959  -1.921   0.028  0.00  0.00    +0.150 A 
ATOM      2  C   LIG    1       -6.685  -0.748   0.221  0.00  0.00    +0.060 A 
ATOM      3  C   LIG    1       -6.046   0.473   0.231  0.00  0.00    +0.040 A 
ATOM      4  C   LIG    1       -4.673   0.538   0.048  0.00  0.00    +0.050 A 
ATOM      5  N   LIG    1       -3.760   1.577   0.011  0.00  0.00    -0.590 N 
ATOM      6  H   LIG    1       -3.957   2.521   0.119  0.00  0.00    +0.430 HD
ATOM      7  C   LIG    1       -2.527   1.025  -0.207  0.00  0.00    +0.320 A 
ATOM      8  N   LIG    1       -2.634  -0.279  -0.297  0.00  0.00    -0.470 NA
ATOM      9  C   LIG    1       -3.932  -0.641  -0.148  0.00  0.00    +0.070 A 
ATOM     10  C   LIG    1       -4.590  -1.874  -0.157  0.00  0.00    +0.050 A 
ENDROOT
BRANCH   7  11
ATOM     11  C   LIG    1       -1.263   1.784  -0.319  0.00  0.00    -0.030 A 
ATOM     12  C   LIG    1       -0.060   1.112  -0.537  0.00  0.00    +0.080 A 
ATOM     13  C   LIG    1        1.117   1.828  -0.647  0.00  0.00    +0.100 A 
ATOM     14  C   LIG    1        1.105   3.209  -0.534  0.00  0.00    +0.040 A 
ATOM     15  C   LIG    1       -0.084   3.880  -0.312  0.00  0.00    +0.040 A 
ATOM     16  F   LIG    1        2.283   1.180  -0.863  0.00  0.00    -0.130 F 
ATOM     17  C   LIG    1       -1.268   3.176  -0.201  0.00  0.00    +0.100 A 
ATOM     18  F   LIG    1       -2.428   3.834   0.015  0.00  0.00    -0.130 F 
ENDBRANCH   7  11
BRANCH   1  20
ATOM     19  C   LIG    1       -7.874  -3.246  -0.468  0.00  0.00    +0.520 C 
ATOM     20  N   LIG    1       -6.620  -3.156   0.019  0.00  0.00    -0.670 N 
ATOM     21  H   LIG    1       -6.176  -3.947   0.365  0.00  0.00    +0.410 HD
ATOM     22  O   LIG    1       -8.393  -2.281  -0.987  0.00  0.00    -0.500 OA
BRANCH  19  23
ATOM     23  C   LIG    1       -8.629  -4.546  -0.369  0.00  0.00    +0.180 C 
BRANCH  23  27
ATOM     24  C   LIG    1      -12.728  -5.259  -3.306  0.00  0.00    +0.150 C 
ATOM     25  C   LIG    1      -11.778  -4.706  -2.275  0.00  0.00    +0.090 A 
ATOM     26  C   LIG    1      -10.537  -5.171  -2.002  0.00  0.00    -0.120 A 
ATOM     27  C   LIG    1       -9.996  -4.381  -0.983  0.00  0.00    +0.080 A 
ATOM     28  N   LIG    1      -10.882  -3.478  -0.651  0.00  0.00    -0.260 NA
ATOM     29  N   LIG    1      -12.014  -3.659  -1.457  0.00  0.00    -0.470 N 
ATOM     30  H   LIG    1      -12.825  -3.128  -1.429  0.00  0.00    +0.440 HD
ENDBRANCH  23  27
ENDBRANCH  19  23
ENDBRANCH   1  20
TORSDOF 4
