REMARK  Name = ZINCrH000004qBbQ.1
REMARK                            x       y       z     vdW  Elec       q    Type
REMARK                         _______ _______ _______ _____ _____    ______ ____
ROOT
ATOM      1  C   LIG    1       -6.687  -0.757   0.038  0.00  0.00    +0.170 A 
ATOM      2  C   LIG    1       -5.945  -1.936   0.039  0.00  0.00    +0.030 A 
ATOM      3  C   LIG    1       -4.580  -1.898   0.040  0.00  0.00    +0.100 A 
ATOM      4  C   LIG    1       -3.915  -0.668   0.039  0.00  0.00    +0.040 A 
ATOM      5  N   LIG    1       -2.604  -0.319   0.040  0.00  0.00    -0.460 NA
ATOM      6  C   LIG    1       -2.496   0.987   0.039  0.00  0.00    +0.310 A 
ATOM      7  N   LIG    1       -3.742   1.556   0.043  0.00  0.00    -0.590 N 
ATOM      8  H   LIG    1       -3.942   2.505   0.047  0.00  0.00    +0.430 HD
ATOM      9  C   LIG    1       -4.662   0.524   0.038  0.00  0.00    +0.080 A 
ATOM     10  C   LIG    1       -6.047   0.472   0.037  0.00  0.00    -0.010 A 
ENDROOT
BRANCH   6  11
ATOM     11  C   LIG    1       -1.220   1.734   0.039  0.00  0.00    -0.030 A 
ATOM     12  C   LIG    1       -0.006   1.047   0.040  0.00  0.00    +0.080 A 
ATOM     13  C   LIG    1        1.183   1.751   0.035  0.00  0.00    +0.100 A 
ATOM     14  C   LIG    1        1.171   3.137   0.034  0.00  0.00    +0.040 A 
ATOM     15  C   LIG    1       -0.029   3.824   0.039  0.00  0.00    +0.040 A 
ATOM     16  F   LIG    1        2.360   1.087   0.031  0.00  0.00    -0.130 F 
ATOM     17  C   LIG    1       -1.225   3.132   0.043  0.00  0.00    +0.100 A 
ATOM     18  F   LIG    1       -2.397   3.804   0.048  0.00  0.00    -0.130 F 
ENDBRANCH   6  11
BRANCH   1  20
ATOM     19  C   LIG    1       -8.720  -1.796  -0.633  0.00  0.00    +0.510 C 
ATOM     20  N   LIG    1       -8.086  -0.814   0.038  0.00  0.00    -0.670 N 
ATOM     21  H   LIG    1       -8.598  -0.147   0.521  0.00  0.00    +0.410 HD
ATOM     22  O   LIG    1       -8.080  -2.676  -1.168  0.00  0.00    -0.500 OA
BRANCH  19  23
ATOM     23  C   LIG    1      -10.224  -1.799  -0.720  0.00  0.00    +0.160 C 
BRANCH  23  29
ATOM     24  C   LIG    1      -11.633  -6.516  -2.025  0.00  0.00    +0.150 C 
ATOM     25  C   LIG    1      -11.297  -5.049  -2.106  0.00  0.00    +0.080 A 
ATOM     26  N   LIG    1      -11.345  -4.309  -3.184  0.00  0.00    -0.290 NA
ATOM     27  N   LIG    1      -10.964  -3.007  -2.838  0.00  0.00    -0.470 N 
ATOM     28  H   LIG    1      -10.912  -2.248  -3.441  0.00  0.00    +0.440 HD
ATOM     29  C   LIG    1      -10.679  -2.993  -1.519  0.00  0.00    +0.100 A 
ATOM     30  C   LIG    1      -10.880  -4.243  -1.041  0.00  0.00    -0.100 A 
ENDBRANCH  23  29
ENDBRANCH  19  23
ENDBRANCH   1  20
TORSDOF 4
