REMARK  Name = ZINCrH000004qBbQ.0
REMARK                            x       y       z     vdW  Elec       q    Type
REMARK                         _______ _______ _______ _____ _____    ______ ____
ROOT
ATOM      1  C   LIG    1       -0.014   1.382   0.003  0.00  0.00    +0.140 A 
ATOM      2  C   LIG    1        1.175   2.107  -0.015  0.00  0.00    +0.060 A 
ATOM      3  C   LIG    1        2.389   1.455  -0.037  0.00  0.00    +0.040 A 
ATOM      4  C   LIG    1        2.431   0.068  -0.042  0.00  0.00    +0.050 A 
ATOM      5  N   LIG    1        3.457  -0.859  -0.061  0.00  0.00    -0.590 N 
ATOM      6  H   LIG    1        4.407  -0.665  -0.076  0.00  0.00    +0.430 HD
ATOM      7  C   LIG    1        2.881  -2.100  -0.055  0.00  0.00    +0.320 A 
ATOM      8  N   LIG    1        1.575  -1.984  -0.033  0.00  0.00    -0.470 NA
ATOM      9  C   LIG    1        1.235  -0.672  -0.024  0.00  0.00    +0.070 A 
ATOM     10  C   LIG    1        0.009   0.000  -0.002  0.00  0.00    +0.050 A 
ENDROOT
BRANCH   7  11
ATOM     11  C   LIG    1        3.620  -3.381  -0.071  0.00  0.00    -0.030 A 
ATOM     12  C   LIG    1        2.926  -4.591  -0.063  0.00  0.00    +0.080 A 
ATOM     13  C   LIG    1        3.623  -5.784  -0.078  0.00  0.00    +0.100 A 
ATOM     14  C   LIG    1        5.008  -5.780  -0.102  0.00  0.00    +0.040 A 
ATOM     15  C   LIG    1        5.703  -4.584  -0.110  0.00  0.00    +0.040 A 
ATOM     16  F   LIG    1        2.952  -6.956  -0.070  0.00  0.00    -0.130 F 
ATOM     17  C   LIG    1        5.018  -3.384  -0.100  0.00  0.00    +0.100 A 
ATOM     18  F   LIG    1        5.697  -2.216  -0.114  0.00  0.00    -0.130 F 
ENDBRANCH   7  11
BRANCH   1  20
ATOM     19  C   LIG    1       -1.364   3.217   0.696  0.00  0.00    +0.520 C 
ATOM     20  N   LIG    1       -1.242   2.058   0.019  0.00  0.00    -0.670 N 
ATOM     21  H   LIG    1       -2.003   1.691  -0.456  0.00  0.00    +0.410 HD
ATOM     22  O   LIG    1       -0.392   3.718   1.220  0.00  0.00    -0.500 OA
BRANCH  19  23
ATOM     23  C   LIG    1       -2.708   3.890   0.800  0.00  0.00    +0.160 C 
BRANCH  23  29
ATOM     24  C   LIG    1       -1.851   8.737   2.109  0.00  0.00    +0.150 C 
ATOM     25  C   LIG    1       -2.203   7.274   2.190  0.00  0.00    +0.080 A 
ATOM     26  N   LIG    1       -2.563   6.630   3.271  0.00  0.00    -0.290 NA
ATOM     27  N   LIG    1       -2.806   5.294   2.924  0.00  0.00    -0.470 N 
ATOM     28  H   LIG    1       -3.091   4.591   3.527  0.00  0.00    +0.440 HD
ATOM     29  C   LIG    1       -2.573   5.160   1.601  0.00  0.00    +0.100 A 
ATOM     30  C   LIG    1       -2.201   6.370   1.123  0.00  0.00    -0.100 A 
ENDBRANCH  23  29
ENDBRANCH  19  23
ENDBRANCH   1  20
TORSDOF 4
