REMARK  Name = ZINCqH0000003svA.1
REMARK                            x       y       z     vdW  Elec       q    Type
REMARK                         _______ _______ _______ _____ _____    ______ ____
ROOT
ATOM      1  N   LIG    1        1.146   3.433  -0.000  0.00  0.00    -0.670 N 
ATOM      2  H   LIG    1        1.969   3.943  -0.066  0.00  0.00    +0.420 HD
ATOM      3  C   LIG    1       -0.036   4.073   0.100  0.00  0.00    +0.510 C 
ATOM      4  O   LIG    1       -1.055   3.440   0.278  0.00  0.00    -0.500 OA
ENDROOT
BRANCH   1  10
ATOM      5  C   LIG    1        2.254   1.362   0.596  0.00  0.00    -0.170 A 
ATOM      6  C   LIG    1        2.282  -0.035   0.578  0.00  0.00    +0.100 A 
ATOM      7  C   LIG    1        1.264  -0.735  -0.032  0.00  0.00    -0.020 A 
ATOM      8  C   LIG    1        0.211  -0.061  -0.629  0.00  0.00    +0.080 A 
ATOM      9  C   LIG    1        0.169   1.319  -0.620  0.00  0.00    +0.000 A 
ATOM     10  C   LIG    1        1.186   2.042  -0.010  0.00  0.00    +0.220 A 
BRANCH   5  11
ATOM     11  C   LIG    1        3.339   2.117   1.247  0.00  0.00    +0.520 C 
ATOM     12  O   LIG    1        3.358   3.331   1.183  0.00  0.00    -0.520 OA
BRANCH  11  13
ATOM     13  O   LIG    1        4.310   1.462   1.914  0.00  0.00    -0.350 OA
BRANCH  13  15
ATOM     14  C   LIG    1        6.352   1.359   3.237  0.00  0.00    +0.070 C 
ATOM     15  C   LIG    1        5.346   2.271   2.531  0.00  0.00    +0.200 C 
ENDBRANCH  13  15
ENDBRANCH  11  13
ENDBRANCH   5  11
ENDBRANCH   1  10
BRANCH   3  16
ATOM     16  C   LIG    1       -0.092   5.575  -0.009  0.00  0.00    +0.220 C 
BRANCH  16  17
ATOM     17  N   LIG    1       -1.483   6.025   0.133  0.00  0.00    -0.660 NA
ATOM     18  H   LIG    1       -1.883   5.696   0.999  0.00  0.00    +0.350 HD
BRANCH  17  19
ATOM     19  C   LIG    1       -1.576   7.488   0.032  0.00  0.00    +0.220 C 
ATOM     20  C   LIG    1       -1.304   8.112   1.402  0.00  0.00    +0.010 C 
BRANCH  19  21
ATOM     21  C   LIG    1       -2.958   7.872  -0.430  0.00  0.00    -0.080 A 
ATOM     22  C   LIG    1       -4.062   7.195   0.054  0.00  0.00    +0.030 A 
ATOM     23  C   LIG    1       -5.330   7.551  -0.367  0.00  0.00    +0.000 A 
ATOM     24  C   LIG    1       -5.493   8.578  -1.278  0.00  0.00    -0.080 A 
ATOM     25  C   LIG    1       -4.389   9.252  -1.764  0.00  0.00    +0.000 A 
ATOM     26  C   LIG    1       -3.121   8.899  -1.341  0.00  0.00    +0.010 A 
BRANCH  24  27
ATOM     27  C   LIG    1       -6.875   8.963  -1.740  0.00  0.00    +0.050 C 
ATOM     28  C   LIG    1       -7.243   8.146  -2.980  0.00  0.00    +0.030 C 
ENDBRANCH  24  27
ENDBRANCH  19  21
ENDBRANCH  17  19
ENDBRANCH  16  17
ENDBRANCH   3  16
TORSDOF 9
