REMARK  Name = ZINCrg000000t21W.0
REMARK                            x       y       z     vdW  Elec       q    Type
REMARK                         _______ _______ _______ _____ _____    ______ ____
ROOT
ATOM      1  C   LIG    1        0.328   1.072   0.837  0.00  0.00    +0.530 C 
ATOM      2  N   LIG    1       -0.965   1.445   0.758  0.00  0.00    -0.590 N 
ATOM      3  O   LIG    1        0.623  -0.103   0.795  0.00  0.00    -0.540 OA
ENDROOT
BRANCH   1   7
ATOM      4  N   LIG    1        3.961   3.207   0.438  0.00  0.00    -1.000 NA
ATOM      5  C   LIG    1        3.745   2.549   1.734  0.00  0.00    +0.300 C 
ATOM      6  C   LIG    1        2.662   1.478   1.568  0.00  0.00    +0.050 C 
ATOM      7  C   LIG    1        1.407   2.116   0.970  0.00  0.00    +0.000 C 
ATOM      8  C   LIG    1        1.733   2.691  -0.411  0.00  0.00    +0.030 C 
ATOM      9  C   LIG    1        2.805   3.776  -0.267  0.00  0.00    +0.300 C 
BRANCH   4  10
ATOM     10  S   LIG    1        5.480   3.306  -0.215  0.00  0.00    +2.790 S 
ATOM     11  O   LIG    1        6.391   3.198   0.870  0.00  0.00    -0.980 OA
ATOM     12  O   LIG    1        5.462   4.411  -1.108  0.00  0.00    -0.980 OA
BRANCH  10  13
ATOM     13  N   LIG    1        5.701   1.956  -1.148  0.00  0.00    -1.260 NA
ATOM     14  H   LIG    1        5.254   1.127  -0.915  0.00  0.00    +0.410 HD
ATOM     15  H   LIG    1        6.278   1.993  -1.927  0.00  0.00    +0.420 HD
ENDBRANCH  10  13
ENDBRANCH   4  10
ENDBRANCH   1   7
BRANCH   2  16
ATOM     16  C   LIG    1       -1.313   2.865   0.654  0.00  0.00    +0.240 C 
BRANCH  16  17
ATOM     17  C   LIG    1       -2.271   3.070  -0.521  0.00  0.00    -0.020 C 
ATOM     18  C   LIG    1       -1.568   3.120  -1.887  0.00  0.00    +0.020 C 
ATOM     19  C   LIG    1       -2.543   4.253  -2.257  0.00  0.00    +0.010 C 
ATOM     20  C   LIG    1       -2.657   4.541  -0.751  0.00  0.00    +0.020 C 
ENDBRANCH  16  17
BRANCH  16  21
ATOM     21  C   LIG    1       -1.988   3.321   1.949  0.00  0.00    +0.160 C 
BRANCH  21  22
ATOM     22  O   LIG    1       -1.087   3.145   3.044  0.00  0.00    -0.560 OA
ATOM     23  H   LIG    1       -1.449   3.415   3.899  0.00  0.00    +0.380 HD
ENDBRANCH  21  22
ENDBRANCH  16  21
ENDBRANCH   2  16
BRANCH   2  24
ATOM     24  C   LIG    1       -2.023   0.432   0.778  0.00  0.00    +0.330 C 
BRANCH  24  25
ATOM     25  C   LIG    1       -2.349   0.073   2.205  0.00  0.00    -0.100 A 
ATOM     26  C   LIG    1       -1.589  -0.870   2.871  0.00  0.00    +0.040 A 
ATOM     27  C   LIG    1       -1.885  -1.195   4.182  0.00  0.00    +0.000 A 
ATOM     28  C   LIG    1       -2.947  -0.586   4.822  0.00  0.00    +0.000 A 
ATOM     29  C   LIG    1       -3.710   0.353   4.154  0.00  0.00    +0.000 A 
ATOM     30  C   LIG    1       -3.411   0.683   2.845  0.00  0.00    +0.010 A 
ENDBRANCH  24  25
ENDBRANCH   2  24
TORSDOF 9
