REMARK  Name = ZINCrD00000rZU3c.0
REMARK                            x       y       z     vdW  Elec       q    Type
REMARK                         _______ _______ _______ _____ _____    ______ ____
ROOT
ATOM      1  C   LIG    1        4.831   1.751  -0.036  0.00  0.00    +0.560 C 
ATOM      2  N   LIG    1        5.865   2.609  -0.143  0.00  0.00    -0.610 N 
ATOM      3  C   LIG    1        5.636   4.061  -0.140  0.00  0.00    +0.280 C 
ATOM      4  C   LIG    1        6.490   4.684   0.977  0.00  0.00    +0.300 C 
ATOM      5  N   LIG    1        7.866   4.184   0.849  0.00  0.00    -0.990 NA
ATOM      6  C   LIG    1        8.095   2.733   0.840  0.00  0.00    +0.300 C 
ATOM      7  C   LIG    1        7.242   2.109  -0.271  0.00  0.00    +0.280 C 
ATOM      8  O   LIG    1        5.039   0.555   0.051  0.00  0.00    -0.540 OA
ENDROOT
BRANCH   5   9
ATOM      9  S   LIG    1        9.137   5.238   0.717  0.00  0.00    +2.690 S 
ATOM     10  O   LIG    1       10.290   4.535   1.159  0.00  0.00    -0.940 OA
ATOM     11  O   LIG    1        8.704   6.463   1.294  0.00  0.00    -0.940 OA
BRANCH   9  12
ATOM     12  C   LIG    1        9.375   5.555  -1.000  0.00  0.00    -0.670 A 
ATOM     13  C   LIG    1       10.232   4.759  -1.737  0.00  0.00    +0.160 A 
ATOM     14  C   LIG    1       10.416   5.003  -3.085  0.00  0.00    +0.040 A 
ATOM     15  C   LIG    1        9.751   6.051  -3.695  0.00  0.00    +0.020 A 
ATOM     16  C   LIG    1        8.896   6.852  -2.956  0.00  0.00    -0.050 A 
ATOM     17 CL   LIG    1        8.059   8.167  -3.720  0.00  0.00    -0.030 Cl
ATOM     18 CL   LIG    1        9.986   6.362  -5.387  0.00  0.00    -0.030 Cl
ATOM     19  C   LIG    1        8.709   6.603  -1.609  0.00  0.00    +0.160 A 
ENDBRANCH   9  12
ENDBRANCH   5   9
BRANCH   1  21
ATOM     20  C   LIG    1        2.462   1.377  -0.020  0.00  0.00    +0.170 C 
ATOM     21  C   LIG    1        3.502   2.242  -0.025  0.00  0.00    -0.060 C 
BRANCH  20  25
ATOM     22  C   LIG    1       -1.029   4.872   0.011  0.00  0.00    +0.180 C 
ATOM     23  C   LIG    1       -0.470   3.473   0.004  0.00  0.00    +0.030 A 
ATOM     24  N   LIG    1        0.784   3.187  -0.005  0.00  0.00    -0.450 NA
ATOM     25  C   LIG    1        1.086   1.885  -0.009  0.00  0.00    +0.070 A 
ATOM     26  C   LIG    1       -0.012   1.074  -0.003  0.00  0.00    -0.090 A 
ATOM     27  S   LIG    1       -1.415   2.051   0.001  0.00  0.00    +0.210 S 
ENDBRANCH  20  25
ENDBRANCH   1  21
TORSDOF 4
