REMARK  Name = ZINCvU0000000Dyq.0
REMARK                            x       y       z     vdW  Elec       q    Type
REMARK                         _______ _______ _______ _____ _____    ______ ____
ROOT
ATOM      1  C   LIG    1        4.991  -0.322  -0.697  0.00  0.00    -0.290 A 
ATOM      2  C   LIG    1        5.940  -1.304  -0.500  0.00  0.00    +0.280 A 
ATOM      3  N   LIG    1        5.391  -2.259   0.266  0.00  0.00    -0.350 N 
ATOM      4  N   LIG    1        4.076  -1.909   0.585  0.00  0.00    -0.270 NA
ATOM      5  C   LIG    1        3.790  -0.756   0.023  0.00  0.00    +0.170 A 
ENDROOT
BRANCH   5   6
ATOM      6  C   LIG    1        2.501  -0.029   0.107  0.00  0.00    -0.030 A 
ATOM      7  C   LIG    1        1.300  -0.736   0.142  0.00  0.00    +0.030 A 
ATOM      8  C   LIG    1        0.103  -0.054   0.221  0.00  0.00    -0.010 A 
ATOM      9  C   LIG    1        0.093   1.329   0.265  0.00  0.00    +0.020 A 
ATOM     10  C   LIG    1        1.281   2.035   0.230  0.00  0.00    -0.010 A 
ATOM     11  C   LIG    1        2.485   1.364   0.152  0.00  0.00    +0.090 A 
ENDBRANCH   5   6
BRANCH   1  14
ATOM     12  N   LIG    1        6.325   1.181  -2.088  0.00  0.00    -0.730 N 
ATOM     13  H   LIG    1        7.062   0.555  -2.014  0.00  0.00    +0.390 HD
ATOM     14  C   LIG    1        5.153   0.917  -1.477  0.00  0.00    +0.600 C 
ATOM     15  O   LIG    1        4.229   1.702  -1.570  0.00  0.00    -0.520 OA
BRANCH  12  16
ATOM     16  C   LIG    1        6.486   2.413  -2.863  0.00  0.00    +0.340 C 
BRANCH  16  17
ATOM     17  C   LIG    1        7.921   2.868  -2.792  0.00  0.00    -0.220 A 
ATOM     18  C   LIG    1        8.390   4.107  -2.510  0.00  0.00    -0.010 A 
ATOM     19  O   LIG    1        9.727   4.027  -2.562  0.00  0.00    +0.100 OA
ATOM     20  N   LIG    1       10.095   2.909  -2.836  0.00  0.00    -0.360 NA
ATOM     21  C   LIG    1        7.571   5.333  -2.199  0.00  0.00    +0.190 C 
ATOM     22  C   LIG    1        9.089   2.099  -2.998  0.00  0.00    +0.030 A 
ATOM     23  C   LIG    1        9.156   0.633  -3.340  0.00  0.00    +0.160 C 
ENDBRANCH  16  17
BRANCH  16  25
ATOM     24  C   LIG    1        4.617   1.810  -4.408  0.00  0.00    +0.030 C 
ATOM     25  C   LIG    1        6.106   2.151  -4.322  0.00  0.00    +0.000 C 
ENDBRANCH  16  25
ENDBRANCH  12  16
ENDBRANCH   1  14
BRANCH   3  26
ATOM     26  C   LIG    1        6.069  -3.480   0.707  0.00  0.00    +0.380 C 
BRANCH  26  27
ATOM     27  C   LIG    1        6.001  -3.578   2.210  0.00  0.00    -0.120 A 
ATOM     28  C   LIG    1        7.003  -3.024   2.985  0.00  0.00    +0.020 A 
ATOM     29  C   LIG    1        6.938  -3.110   4.363  0.00  0.00    +0.000 A 
ATOM     30  C   LIG    1        5.876  -3.758   4.966  0.00  0.00    +0.010 A 
ATOM     31  C   LIG    1        4.877  -4.316   4.191  0.00  0.00    +0.010 A 
ATOM     32  C   LIG    1        4.939  -4.226   2.813  0.00  0.00    +0.050 A 
ENDBRANCH  26  27
ENDBRANCH   3  26
TORSDOF 7
