REMARK  Name = ZINC650000002rWD.0
REMARK                            x       y       z     vdW  Elec       q    Type
REMARK                         _______ _______ _______ _____ _____    ______ ____
ROOT
ATOM      1  C   LIG    1       -2.143   1.058   1.278  0.00  0.00    +0.510 C 
ENDROOT
BRANCH   1   2
ATOM      2  N   LIG    1       -3.156   1.898   1.391  0.00  0.00    -0.740 NA
ATOM      3  H   LIG    1       -4.066   1.562   1.398  0.00  0.00    +0.430 HD
ATOM      4  H   LIG    1       -2.990   2.851   1.468  0.00  0.00    +0.450 HD
ENDBRANCH   1   2
BRANCH   1   5
ATOM      5  N   LIG    1       -2.369  -0.240   1.173  0.00  0.00    -0.750 NA
ATOM      6  H   LIG    1       -3.279  -0.576   1.180  0.00  0.00    +0.430 HD
ATOM      7  H   LIG    1       -1.625  -0.857   1.089  0.00  0.00    +0.450 HD
ENDBRANCH   1   5
BRANCH   1   9
ATOM      8  C   LIG    1       -0.013   1.086   0.008  0.00  0.00    +0.080 C 
ATOM      9  C   LIG    1       -0.729   1.579   1.267  0.00  0.00    +0.280 C 
BRANCH   9  10
ATOM     10  O   LIG    1       -0.038   1.106   2.425  0.00  0.00    -0.520 OA
ATOM     11  H   LIG    1        0.014   0.142   2.485  0.00  0.00    +0.390 HD
ENDBRANCH   9  10
ENDBRANCH   1   9
TORSDOF 4
