REMARK  Name = ZINCrH000004sQYh.0
REMARK                            x       y       z     vdW  Elec       q    Type
REMARK                         _______ _______ _______ _____ _____    ______ ____
ROOT
ATOM      1  C   LIG    1        1.770  -1.827   0.146  0.00  0.00    +0.610 C 
ATOM      2  N   LIG    1        0.880  -2.825  -0.022  0.00  0.00    -0.660 N 
ATOM      3  H   LIG    1       -0.069  -2.627  -0.062  0.00  0.00    +0.420 HD
ATOM      4  O   LIG    1        2.950  -2.082   0.293  0.00  0.00    -0.510 OA
ENDROOT
BRANCH   1   7
ATOM      5  C   LIG    1        3.589   0.697   0.514  0.00  0.00    +0.230 C 
ATOM      6  C   LIG    1        2.096   0.679   0.313  0.00  0.00    +0.060 A 
ATOM      7  C   LIG    1        1.313  -0.425   0.154  0.00  0.00    -0.080 A 
ATOM      8  N   LIG    1        0.035   0.006   0.002  0.00  0.00    -0.450 NA
ATOM      9  C   LIG    1        0.028   1.313   0.065  0.00  0.00    +0.250 A 
ATOM     10  O   LIG    1        1.286   1.749   0.256  0.00  0.00    -0.190 OA
BRANCH   9  11
ATOM     11  C   LIG    1       -1.168   2.173  -0.060  0.00  0.00    -0.030 A 
ATOM     12  C   LIG    1       -1.047   3.560   0.030  0.00  0.00    +0.040 A 
ATOM     13  C   LIG    1       -2.166   4.357  -0.094  0.00  0.00    +0.010 A 
ATOM     14  C   LIG    1       -3.409   3.783  -0.295  0.00  0.00    +0.030 A 
ATOM     15  C   LIG    1       -3.537   2.408  -0.378  0.00  0.00    +0.010 A 
ATOM     16  C   LIG    1       -2.425   1.600  -0.263  0.00  0.00    +0.070 A 
ENDBRANCH   9  11
ENDBRANCH   1   7
BRANCH   2  17
ATOM     17  C   LIG    1        1.323  -4.141  -0.139  0.00  0.00    +0.180 A 
ATOM     18  C   LIG    1        2.536  -4.412  -0.765  0.00  0.00    +0.010 A 
ATOM     19  C   LIG    1        2.979  -5.711  -0.877  0.00  0.00    +0.070 A 
ATOM     20  C   LIG    1        2.204  -6.758  -0.371  0.00  0.00    -0.150 A 
ATOM     21  C   LIG    1        0.984  -6.482   0.253  0.00  0.00    +0.110 A 
ATOM     22  C   LIG    1        0.549  -5.181   0.366  0.00  0.00    -0.010 A 
BRANCH  20  23
ATOM     23  C   LIG    1        2.673  -8.152  -0.495  0.00  0.00    +0.570 C 
ATOM     24  N   LIG    1        3.850  -8.416  -1.096  0.00  0.00    -0.700 N 
ATOM     25  H   LIG    1        4.389  -7.690  -1.448  0.00  0.00    +0.400 HD
ATOM     26  O   LIG    1        1.998  -9.062  -0.054  0.00  0.00    -0.530 OA
BRANCH  24  27
ATOM     27  C   LIG    1        4.316  -9.799  -1.219  0.00  0.00    +0.220 C 
ATOM     28  C   LIG    1        5.788 -10.079  -0.913  0.00  0.00    +0.010 C 
ATOM     29  C   LIG    1        5.286 -10.120  -2.357  0.00  0.00    +0.020 C 
ENDBRANCH  24  27
ENDBRANCH  20  23
ENDBRANCH   2  17
TORSDOF 5
