REMARK  Name = ZINCpe000000XF52.0
REMARK                            x       y       z     vdW  Elec       q    Type
REMARK                         _______ _______ _______ _____ _____    ______ ____
ROOT
ATOM      1  N   LIG    1       -3.967   2.623   2.269  0.00  0.00    -0.230 N 
ATOM      2  N   LIG    1       -4.726   2.869   3.276  0.00  0.00    -0.240 NA
ATOM      3  C   LIG    1       -5.935   3.192   2.864  0.00  0.00    +0.010 A 
ATOM      4  C   LIG    1       -5.922   3.138   1.449  0.00  0.00    +0.010 A 
ATOM      5  C   LIG    1       -4.662   2.781   1.111  0.00  0.00    +0.050 A 
ATOM      6  C   LIG    1       -4.129   2.591  -0.286  0.00  0.00    +0.170 C 
ENDROOT
BRANCH   1  12
ATOM      7  C   LIG    1        0.090   1.416   0.006  0.00  0.00    +0.160 C 
ATOM      8  C   LIG    1       -0.674   1.672   1.280  0.00  0.00    +0.210 A 
ATOM      9  C   LIG    1       -0.049   1.542   2.511  0.00  0.00    -0.080 A 
ATOM     10  C   LIG    1       -0.788   1.787   3.657  0.00  0.00    +0.210 A 
ATOM     11  N   LIG    1       -2.059   2.137   3.542  0.00  0.00    -0.510 NA
ATOM     12  C   LIG    1       -2.624   2.252   2.352  0.00  0.00    +0.550 A 
ATOM     13  C   LIG    1       -0.152   1.659   5.017  0.00  0.00    +0.160 C 
ATOM     14  N   LIG    1       -1.946   2.030   1.238  0.00  0.00    -0.530 NA
ENDBRANCH   1  12
BRANCH   3  15
ATOM     15  C   LIG    1       -7.089   3.543   3.717  0.00  0.00    +0.610 C 
ATOM     16  N   LIG    1       -6.926   3.677   5.049  0.00  0.00    -0.600 N 
ATOM     17  C   LIG    1       -5.587   3.616   5.658  0.00  0.00    +0.280 C 
ATOM     18  C   LIG    1       -5.414   4.837   6.568  0.00  0.00    +0.210 C 
ATOM     19  O   LIG    1       -6.520   4.912   7.471  0.00  0.00    -0.380 OA
ATOM     20  C   LIG    1       -7.786   5.097   6.832  0.00  0.00    +0.220 C 
ATOM     21  C   LIG    1       -8.080   3.894   5.935  0.00  0.00    +0.210 C 
ATOM     22  O   LIG    1       -8.185   3.711   3.220  0.00  0.00    -0.510 OA
BRANCH  21  23
ATOM     23  C   LIG    1       -9.329   4.173   5.096  0.00  0.00    +0.070 C 
BRANCH  23  24
ATOM     24  C   LIG    1      -10.497   4.521   6.021  0.00  0.00    +0.160 C 
BRANCH  24  25
ATOM     25  O   LIG    1      -11.643   4.853   5.235  0.00  0.00    -0.570 OA
ATOM     26  H   LIG    1      -12.424   5.085   5.757  0.00  0.00    +0.380 HD
ENDBRANCH  24  25
ENDBRANCH  23  24
ENDBRANCH  21  23
ENDBRANCH   3  15
TORSDOF 5
