REMARK  Name = ZINCtj0000003FL7.0
REMARK                            x       y       z     vdW  Elec       q    Type
REMARK                         _______ _______ _______ _____ _____    ______ ____
ROOT
ATOM      1  C   LIG    1       -0.016   1.344   0.009  0.00  0.00    +0.520 C 
ATOM      2  N   LIG    1        0.002  -0.004   0.002  0.00  0.00    -0.720 N 
ATOM      3  H   LIG    1       -0.831  -0.500   0.007  0.00  0.00    +0.410 HD
ATOM      4  O   LIG    1        1.026   1.964   0.003  0.00  0.00    -0.490 OA
ENDROOT
BRANCH   1   5
ATOM      5  C   LIG    1       -1.331   2.079   0.020  0.00  0.00    +0.290 C 
BRANCH   5  11
ATOM      6  C   LIG    1       -4.138   0.726  -0.008  0.00  0.00    +0.210 C 
ATOM      7  C   LIG    1       -3.313   1.137  -1.200  0.00  0.00    +0.190 A 
ATOM      8  N   LIG    1       -3.637   0.997  -2.462  0.00  0.00    -0.290 NA
ATOM      9  N   LIG    1       -2.671   1.464  -3.175  0.00  0.00    -0.060 NA
ATOM     10  N   LIG    1       -1.740   1.902  -2.401  0.00  0.00    -0.090 NA
ATOM     11  N   LIG    1       -2.100   1.721  -1.175  0.00  0.00    -0.310 N 
ENDBRANCH   5  11
BRANCH   5  12
ATOM     12  C   LIG    1       -1.072   3.587   0.027  0.00  0.00    +0.140 C 
BRANCH  12  13
ATOM     13  C   LIG    1       -2.381   4.321   0.161  0.00  0.00    -0.080 A 
ATOM     14  C   LIG    1       -2.873   4.634   1.414  0.00  0.00    +0.010 A 
ATOM     15  C   LIG    1       -4.074   5.308   1.539  0.00  0.00    +0.060 A 
ATOM     16  C   LIG    1       -4.784   5.669   0.410  0.00  0.00    -0.010 A 
ATOM     17  C   LIG    1       -4.293   5.357  -0.847  0.00  0.00    +0.110 A 
ATOM     18  F   LIG    1       -4.986   5.710  -1.951  0.00  0.00    -0.130 F 
ATOM     19  C   LIG    1       -3.087   4.687  -0.970  0.00  0.00    -0.020 A 
ENDBRANCH  12  13
ENDBRANCH   5  12
ENDBRANCH   1   5
BRANCH   2  20
ATOM     20  C   LIG    1        1.281  -0.719  -0.014  0.00  0.00    +0.320 C 
BRANCH  20  21
ATOM     21  C   LIG    1        1.021  -2.227  -0.020  0.00  0.00    +0.150 C 
ATOM     22  C   LIG    1        2.357  -2.975  -0.031  0.00  0.00    +0.260 C 
ATOM     23  N   LIG    1        2.106  -4.422   0.023  0.00  0.00    -0.380 N 
ATOM     24  C   LIG    1        1.372  -4.746   1.254  0.00  0.00    +0.240 C 
ATOM     25  C   LIG    1        0.038  -3.994   1.262  0.00  0.00    +0.270 C 
ATOM     26  H   LIG    1        2.985  -4.917   0.015  0.00  0.00    +0.430 HD
ATOM     27  O   LIG    1        0.287  -2.590   1.153  0.00  0.00    -0.350 OA
BRANCH  23  28
ATOM     28  C   LIG    1        1.308  -4.824  -1.143  0.00  0.00    +0.250 C 
BRANCH  28  29
ATOM     29  C   LIG    1        1.151  -6.346  -1.154  0.00  0.00    -0.030 C 
ATOM     30  C   LIG    1        2.520  -6.998  -1.356  0.00  0.00    +0.040 C 
ATOM     31  C   LIG    1        0.218  -6.755  -2.295  0.00  0.00    +0.070 C 
ENDBRANCH  28  29
ENDBRANCH  23  28
ENDBRANCH  20  21
ENDBRANCH   2  20
TORSDOF 8
