REMARK  Name = ZINCtj0000003FL7.1
REMARK                            x       y       z     vdW  Elec       q    Type
REMARK                         _______ _______ _______ _____ _____    ______ ____
ROOT
ATOM      1  C   LIG    1       -3.194   2.365   1.259  0.00  0.00    +0.520 C 
ATOM      2  N   LIG    1       -2.739   2.019   2.479  0.00  0.00    -0.720 N 
ATOM      3  H   LIG    1       -1.967   1.436   2.562  0.00  0.00    +0.410 HD
ATOM      4  O   LIG    1       -4.158   3.093   1.155  0.00  0.00    -0.490 OA
ENDROOT
BRANCH   1   5
ATOM      5  C   LIG    1       -2.505   1.847   0.023  0.00  0.00    +0.290 C 
BRANCH   5  11
ATOM      6  C   LIG    1        0.002  -0.004   0.002  0.00  0.00    +0.220 C 
ATOM      7  C   LIG    1       -0.018   1.503   0.010  0.00  0.00    +0.190 A 
ATOM      8  N   LIG    1        1.022   2.300   0.005  0.00  0.00    -0.290 NA
ATOM      9  N   LIG    1        0.593   3.514   0.015  0.00  0.00    -0.060 NA
ATOM     10  N   LIG    1       -0.694   3.513   0.027  0.00  0.00    -0.090 NA
ATOM     11  N   LIG    1       -1.109   2.292   0.019  0.00  0.00    -0.310 N 
ENDBRANCH   5  11
BRANCH   5  12
ATOM     12  C   LIG    1       -3.215   2.385  -1.221  0.00  0.00    +0.140 C 
BRANCH  12  13
ATOM     13  C   LIG    1       -2.604   1.771  -2.454  0.00  0.00    -0.080 A 
ATOM     14  C   LIG    1       -3.110   0.589  -2.960  0.00  0.00    +0.010 A 
ATOM     15  C   LIG    1       -2.551   0.025  -4.092  0.00  0.00    +0.060 A 
ATOM     16  C   LIG    1       -1.485   0.642  -4.718  0.00  0.00    -0.010 A 
ATOM     17  C   LIG    1       -0.977   1.827  -4.211  0.00  0.00    +0.110 A 
ATOM     18  F   LIG    1        0.065   2.431  -4.823  0.00  0.00    -0.130 F 
ATOM     19  C   LIG    1       -1.541   2.393  -3.081  0.00  0.00    -0.020 A 
ENDBRANCH  12  13
ENDBRANCH   5  12
ENDBRANCH   1   5
BRANCH   2  20
ATOM     20  C   LIG    1       -3.408   2.522   3.681  0.00  0.00    +0.320 C 
BRANCH  20  21
ATOM     21  C   LIG    1       -2.698   1.983   4.924  0.00  0.00    +0.150 C 
ATOM     22  C   LIG    1       -3.397   2.509   6.181  0.00  0.00    +0.260 C 
ATOM     23  N   LIG    1       -2.749   1.944   7.372  0.00  0.00    -0.390 N 
ATOM     24  C   LIG    1       -2.847   0.478   7.332  0.00  0.00    +0.240 C 
ATOM     25  C   LIG    1       -2.149  -0.044   6.074  0.00  0.00    +0.270 C 
ATOM     26  H   LIG    1       -1.778   2.216   7.388  0.00  0.00    +0.420 HD
ATOM     27  O   LIG    1       -2.747   0.554   4.921  0.00  0.00    -0.350 OA
BRANCH  23  28
ATOM     28  C   LIG    1       -3.418   2.447   8.579  0.00  0.00    +0.260 C 
BRANCH  28  29
ATOM     29  C   LIG    1       -2.668   1.959   9.819  0.00  0.00    -0.030 C 
ATOM     30  C   LIG    1       -3.433   2.377  11.076  0.00  0.00    +0.070 C 
ATOM     31  C   LIG    1       -1.268   2.577   9.845  0.00  0.00    +0.040 C 
ENDBRANCH  28  29
ENDBRANCH  23  28
ENDBRANCH  20  21
ENDBRANCH   2  20
TORSDOF 8
