REMARK  Name = ZINCqH0000006f3a.0
REMARK                            x       y       z     vdW  Elec       q    Type
REMARK                         _______ _______ _______ _____ _____    ______ ____
ROOT
ATOM      1  N   LIG    1        3.917   0.469   5.646  0.00  0.00    -0.670 N 
ATOM      2  H   LIG    1        4.146   0.792   4.760  0.00  0.00    +0.410 HD
ATOM      3  C   LIG    1        4.008  -0.846   5.928  0.00  0.00    +0.550 C 
ATOM      4  O   LIG    1        3.633  -1.263   7.003  0.00  0.00    -0.510 OA
ENDROOT
BRANCH   1   7
ATOM      5  C   LIG    1        3.697   3.489   7.740  0.00  0.00    +0.120 A 
ATOM      6  C   LIG    1        4.119   2.600   6.765  0.00  0.00    -0.050 A 
ATOM      7  C   LIG    1        3.491   1.369   6.631  0.00  0.00    +0.140 A 
ATOM      8  C   LIG    1        2.442   1.030   7.474  0.00  0.00    +0.030 A 
ATOM      9  C   LIG    1        2.021   1.916   8.447  0.00  0.00    -0.020 A 
ATOM     10  C   LIG    1        2.648   3.143   8.587  0.00  0.00    +0.090 A 
BRANCH  10  11
ATOM     11  O   LIG    1        2.235   4.013   9.549  0.00  0.00    -0.300 OA
ATOM     12  C   LIG    1        1.153   3.593  10.382  0.00  0.00    +0.240 C 
ENDBRANCH  10  11
BRANCH   5  13
ATOM     13  O   LIG    1        4.311   4.695   7.873  0.00  0.00    -0.290 OA
BRANCH  13  14
ATOM     14  C   LIG    1        5.384   4.980   6.973  0.00  0.00    +0.210 C 
BRANCH  14  15
ATOM     15  C   LIG    1        5.945   6.371   7.274  0.00  0.00    +0.190 C 
BRANCH  15  17
ATOM     16  C   LIG    1        7.090   7.636   8.957  0.00  0.00    +0.200 C 
ATOM     17  O   LIG    1        6.533   6.376   8.576  0.00  0.00    -0.380 OA
ENDBRANCH  15  17
ENDBRANCH  14  15
ENDBRANCH  13  14
ENDBRANCH   5  13
ENDBRANCH   1   7
BRANCH   3  18
ATOM     18  C   LIG    1        4.577  -1.798   4.907  0.00  0.00    -0.070 C 
ATOM     19  C   LIG    1        3.505  -2.551   4.103  0.00  0.00    +0.050 C 
ATOM     20  C   LIG    1        3.545  -3.624   5.205  0.00  0.00    +0.020 C 
ATOM     21  C   LIG    1        4.982  -3.160   5.494  0.00  0.00    +0.060 C 
BRANCH  18  22
ATOM     22  C   LIG    1        5.645  -1.168   4.051  0.00  0.00    -0.080 A 
ATOM     23  C   LIG    1        6.862  -0.820   4.607  0.00  0.00    +0.010 A 
ATOM     24  C   LIG    1        7.843  -0.246   3.820  0.00  0.00    +0.000 A 
ATOM     25  C   LIG    1        7.604  -0.011   2.479  0.00  0.00    +0.000 A 
ATOM     26  C   LIG    1        6.385  -0.354   1.924  0.00  0.00    +0.000 A 
ATOM     27  C   LIG    1        5.405  -0.932   2.710  0.00  0.00    +0.020 A 
ENDBRANCH  18  22
ENDBRANCH   3  18
TORSDOF 8
