REMARK  Name = ZINCrD000000AryN.0
REMARK                            x       y       z     vdW  Elec       q    Type
REMARK                         _______ _______ _______ _____ _____    ______ ____
ROOT
ATOM      1  O   LIG    1        5.801   3.429  -0.036  0.00  0.00    -0.510 OA
ATOM      2  C   LIG    1        4.826   4.151  -0.023  0.00  0.00    +0.520 C 
ATOM      3  N   LIG    1        4.979   5.490  -0.017  0.00  0.00    -0.520 N 
ATOM      4  H   LIG    1        4.199   6.067  -0.006  0.00  0.00    +0.440 HD
ENDROOT
BRANCH   3   5
ATOM      5  N   LIG    1        6.263   6.049  -0.027  0.00  0.00    -0.520 N 
ATOM      6  H   LIG    1        7.043   5.472  -0.038  0.00  0.00    +0.430 HD
ATOM      7  C   LIG    1        6.416   7.388  -0.021  0.00  0.00    +0.570 C 
ATOM      8  O   LIG    1        5.439   8.111  -0.008  0.00  0.00    -0.530 OA
BRANCH   7   9
ATOM      9  C   LIG    1        7.771   7.977  -0.032  0.00  0.00    -0.140 A 
ATOM     10  C   LIG    1        8.895   7.148  -0.042  0.00  0.00    +0.090 A 
ATOM     11  C   LIG    1       10.157   7.703  -0.056  0.00  0.00    -0.010 A 
ATOM     12  C   LIG    1       10.311   9.081  -0.050  0.00  0.00    +0.130 A 
ATOM     13  C   LIG    1        9.198   9.908  -0.035  0.00  0.00    -0.010 A 
ATOM     14  F   LIG    1       11.550   9.620  -0.059  0.00  0.00    -0.130 F 
ATOM     15  C   LIG    1        7.932   9.364  -0.026  0.00  0.00    +0.130 A 
ENDBRANCH   7   9
ENDBRANCH   3   5
BRANCH   2  16
ATOM     16  C   LIG    1        3.444   3.550  -0.012  0.00  0.00    +0.250 C 
BRANCH  16  17
ATOM     17  O   LIG    1        3.545   2.124  -0.021  0.00  0.00    -0.280 OA
BRANCH  17  18
ATOM     18  C   LIG    1        2.380   1.424  -0.013  0.00  0.00    +0.140 A 
ATOM     19  C   LIG    1        1.167   2.093   0.002  0.00  0.00    -0.080 A 
ATOM     20  C   LIG    1       -0.017   1.379   0.010  0.00  0.00    +0.050 A 
ATOM     21  C   LIG    1        0.002  -0.004   0.002  0.00  0.00    -0.020 A 
ATOM     22  C   LIG    1        1.204  -0.683  -0.013  0.00  0.00    +0.060 A 
ATOM     23  C   LIG    1        2.402   0.026  -0.021  0.00  0.00    -0.070 A 
BRANCH  23  24
ATOM     24  C   LIG    1        3.697  -0.698  -0.038  0.00  0.00    -0.040 A 
ATOM     25  C   LIG    1        4.674  -0.362  -0.972  0.00  0.00    +0.040 A 
ATOM     26  C   LIG    1        5.879  -1.036  -0.980  0.00  0.00    +0.000 A 
ATOM     27  C   LIG    1        6.112  -2.051  -0.069  0.00  0.00    +0.000 A 
ATOM     28  C   LIG    1        5.144  -2.392   0.858  0.00  0.00    +0.000 A 
ATOM     29  C   LIG    1        3.938  -1.721   0.878  0.00  0.00    +0.010 A 
ENDBRANCH  23  24
ENDBRANCH  17  18
ENDBRANCH  16  17
ENDBRANCH   2  16
TORSDOF 6
