REMARK  Name = ZINCrg000000ray2.0
REMARK                            x       y       z     vdW  Elec       q    Type
REMARK                         _______ _______ _______ _____ _____    ______ ____
ROOT
ATOM      1  C   LIG    1       -1.287  -0.784   0.011  0.00  0.00    +0.150 C 
ENDROOT
BRANCH   1   8
ATOM      2  C   LIG    1        2.802   3.476  -0.007  0.00  0.00    +0.250 A 
ATOM      3  N   LIG    1        1.486   3.393   0.006  0.00  0.00    -0.310 NA
ATOM      4  N   LIG    1        1.162   2.030   0.002  0.00  0.00    -0.320 N 
ATOM      5  C   LIG    1        2.347   1.349  -0.013  0.00  0.00    +0.460 A 
ATOM      6  N   LIG    1        2.356   0.011  -0.020  0.00  0.00    -0.460 NA
ATOM      7  C   LIG    1        1.232  -0.671  -0.013  0.00  0.00    +0.260 A 
ATOM      8  C   LIG    1        0.002  -0.004   0.002  0.00  0.00    -0.180 A 
ATOM      9  C   LIG    1        1.269  -2.177  -0.021  0.00  0.00    +0.170 C 
ATOM     10  C   LIG    1       -0.016   1.355   0.009  0.00  0.00    +0.220 A 
ATOM     11  C   LIG    1       -1.325   2.101   0.020  0.00  0.00    +0.160 C 
ATOM     12  N   LIG    1        3.323   2.251  -0.018  0.00  0.00    -0.530 NA
BRANCH   2  14
ATOM     13  C   LIG    1        5.446   4.395  -0.028  0.00  0.00    +0.150 C 
ATOM     14  S   LIG    1        3.727   4.976  -0.008  0.00  0.00    +0.040 S 
ENDBRANCH   2  14
ENDBRANCH   1   8
BRANCH   1  15
ATOM     15  C   LIG    1       -1.667  -1.142  -1.403  0.00  0.00    +0.520 C 
ATOM     16  N   LIG    1       -2.792  -1.845  -1.641  0.00  0.00    -0.610 N 
ATOM     17  C   LIG    1       -3.655  -2.274  -0.531  0.00  0.00    +0.270 C 
ATOM     18  C   LIG    1       -5.079  -1.754  -0.794  0.00  0.00    +0.270 C 
ATOM     19  N   LIG    1       -5.461  -2.110  -2.167  0.00  0.00    -0.610 N 
ATOM     20  C   LIG    1       -4.596  -1.686  -3.277  0.00  0.00    +0.280 C 
ATOM     21  C   LIG    1       -6.587  -2.813  -2.405  0.00  0.00    +0.550 C 
ATOM     22  O   LIG    1       -6.892  -3.101  -3.543  0.00  0.00    -0.530 OA
ATOM     23  C   LIG    1       -3.175  -2.202  -3.014  0.00  0.00    +0.290 C 
ATOM     24  O   LIG    1       -0.960  -0.798  -2.327  0.00  0.00    -0.520 OA
BRANCH  21  25
ATOM     25  C   LIG    1       -7.465  -3.241  -1.258  0.00  0.00    -0.070 C 
ATOM     26  C   LIG    1       -7.534  -4.736  -0.941  0.00  0.00    +0.060 C 
ATOM     27  C   LIG    1       -8.728  -4.036  -1.593  0.00  0.00    +0.070 C 
ENDBRANCH  21  25
ENDBRANCH   1  15
TORSDOF 4
