REMARK  Name = ZINCrH00000tj0LA.0
REMARK                            x       y       z     vdW  Elec       q    Type
REMARK                         _______ _______ _______ _____ _____    ______ ____
ROOT
ATOM      1  N   LIG    1       -0.059   1.051   2.454  0.00  0.00    -0.600 N 
ATOM      2  C   LIG    1       -0.106  -0.385   2.742  0.00  0.00    +0.290 C 
ENDROOT
BRANCH   1   5
ATOM      3  C   LIG    1        1.946   2.260   5.148  0.00  0.00    +0.370 A 
ATOM      4  N   LIG    1        1.343   1.441   4.310  0.00  0.00    -0.570 NA
ATOM      5  C   LIG    1        0.569   1.915   3.337  0.00  0.00    +0.440 A 
ATOM      6  C   LIG    1        0.395   3.295   3.224  0.00  0.00    -0.150 A 
ATOM      7  C   LIG    1        1.042   4.114   4.129  0.00  0.00    +0.220 A 
ATOM      8  N   LIG    1        1.802   3.567   5.067  0.00  0.00    -0.550 NA
BRANCH   7   9
ATOM      9  C   LIG    1        0.888   5.611   4.049  0.00  0.00    -0.020 C 
ATOM     10  C   LIG    1        1.027   6.061   2.593  0.00  0.00    +0.050 C 
ATOM     11  C   LIG    1        1.972   6.281   4.896  0.00  0.00    +0.050 C 
ATOM     12  C   LIG    1       -0.491   6.010   4.577  0.00  0.00    +0.050 C 
ENDBRANCH   7   9
BRANCH   3  14
ATOM     13  C   LIG    1        1.985   0.762   7.124  0.00  0.00    +0.030 C 
ATOM     14  C   LIG    1        2.819   1.684   6.233  0.00  0.00    +0.070 C 
ATOM     15  C   LIG    1        3.960   0.886   5.599  0.00  0.00    +0.030 C 
ENDBRANCH   3  14
ENDBRANCH   1   5
BRANCH   1  16
ATOM     16  C   LIG    1       -0.677   1.574   1.233  0.00  0.00    +0.270 C 
ATOM     17  C   LIG    1       -0.116   0.830   0.018  0.00  0.00    +0.020 C 
ATOM     18  C   LIG    1       -0.808   1.340  -1.249  0.00  0.00    +0.050 C 
ATOM     19  C   LIG    1       -2.320   1.139  -1.114  0.00  0.00    +0.180 C 
ATOM     20  N   LIG    1       -2.809   1.871   0.061  0.00  0.00    -0.490 N 
ATOM     21  C   LIG    1       -2.193   1.367   1.295  0.00  0.00    +0.190 C 
BRANCH  20  22
ATOM     22  C   LIG    1       -4.196   1.818   0.139  0.00  0.00    +0.250 A 
ATOM     23  C   LIG    1       -4.850   0.587   0.156  0.00  0.00    +0.000 A 
ATOM     24  C   LIG    1       -6.234   0.588   0.239  0.00  0.00    +0.050 A 
ATOM     25  C   LIG    1       -6.883   1.813   0.291  0.00  0.00    +0.220 A 
ATOM     26  N   LIG    1       -6.185   2.931   0.265  0.00  0.00    -0.230 NA
ATOM     27  N   LIG    1       -4.904   2.937   0.193  0.00  0.00    -0.220 NA
ENDBRANCH  20  22
ENDBRANCH   1  16
TORSDOF 5
