REMARK  Name = ZINCrH000004mpeG.0
REMARK                            x       y       z     vdW  Elec       q    Type
REMARK                         _______ _______ _______ _____ _____    ______ ____
ROOT
ATOM      1  C   LIG    1       -1.381  -3.312   0.003  0.00  0.00    +0.150 C 
ATOM      2  C   LIG    1       -1.038  -4.200   1.222  0.00  0.00    +0.110 C 
ATOM      3  C   LIG    1        0.041  -5.130   0.711  0.00  0.00    +0.520 C 
ATOM      4  N   LIG    1        0.065  -5.116  -0.632  0.00  0.00    -0.560 N 
ATOM      5  O   LIG    1        0.777  -5.791   1.413  0.00  0.00    -0.490 OA
ATOM      6  C   LIG    1       -0.961  -4.219  -1.175  0.00  0.00    +0.310 C 
ENDROOT
BRANCH   4   7
ATOM      7  C   LIG    1        0.955  -5.862  -1.413  0.00  0.00    +0.190 A 
ATOM      8  C   LIG    1        0.825  -5.875  -2.796  0.00  0.00    -0.030 A 
ATOM      9  C   LIG    1        1.705  -6.611  -3.566  0.00  0.00    +0.080 A 
ATOM     10  C   LIG    1        2.715  -7.335  -2.962  0.00  0.00    -0.140 A 
ATOM     11  C   LIG    1        2.849  -7.325  -1.583  0.00  0.00    +0.130 A 
ATOM     12  F   LIG    1        3.837  -8.034  -0.995  0.00  0.00    -0.130 F 
ATOM     13  C   LIG    1        3.673  -8.137  -3.804  0.00  0.00    +0.100 C 
ATOM     14  C   LIG    1        1.974  -6.586  -0.808  0.00  0.00    -0.020 A 
ENDBRANCH   4   7
BRANCH   1  18
ATOM     15  C   LIG    1        0.037  -0.009   0.046  0.00  0.00    +0.220 A 
ATOM     16  N   LIG    1        1.094  -0.780   0.028  0.00  0.00    -0.370 NA
ATOM     17  O   LIG    1        0.760  -1.946   0.018  0.00  0.00    +0.090 OA
ATOM     18  C   LIG    1       -0.574  -2.040   0.019  0.00  0.00    +0.180 A 
ATOM     19  N   LIG    1       -1.047  -0.819   0.037  0.00  0.00    -0.460 NA
BRANCH  15  23
ATOM     20  C   LIG    1        0.011   4.243   0.107  0.00  0.00    +0.150 A 
ATOM     21  C   LIG    1        1.219   3.558   0.095  0.00  0.00    -0.010 A 
ATOM     22  C   LIG    1        1.230   2.179   0.075  0.00  0.00    +0.100 A 
ATOM     23  C   LIG    1        0.028   1.474   0.068  0.00  0.00    -0.070 A 
ATOM     24  C   LIG    1       -1.183   2.165   0.074  0.00  0.00    +0.110 A 
ATOM     25  C   LIG    1       -1.188   3.543   0.101  0.00  0.00    -0.070 A 
BRANCH  20  27
ATOM     26  C   LIG    1       -1.274   6.243   0.140  0.00  0.00    +0.240 C 
ATOM     27  O   LIG    1        0.003   5.602   0.127  0.00  0.00    -0.310 OA
ENDBRANCH  20  27
ENDBRANCH  15  23
ENDBRANCH   1  18
TORSDOF 4
