REMARK  Name = ZINCpk00000xIeCY.0
REMARK                            x       y       z     vdW  Elec       q    Type
REMARK                         _______ _______ _______ _____ _____    ______ ____
ROOT
ATOM      1  C   LIG    1        3.434   7.732   0.009  0.00  0.00    +0.470 C 
ATOM      2  O   LIG    1        2.338   8.240   0.022  0.00  0.00    -0.490 OA
ENDROOT
BRANCH   1   3
ATOM      3  C   LIG    1        3.568   6.231   0.001  0.00  0.00    +0.310 C 
BRANCH   3   4
ATOM      4  O   LIG    1        2.269   5.636   0.010  0.00  0.00    -0.230 OA
BRANCH   4   6
ATOM      5  C   LIG    1        1.169   3.562   0.009  0.00  0.00    +0.300 C 
ATOM      6  N   LIG    1        2.283   4.220   0.002  0.00  0.00    -0.340 NA
BRANCH   5  10
ATOM      7  C   LIG    1        1.213  -0.684  -0.014  0.00  0.00    +0.150 A 
ATOM      8  C   LIG    1        0.002  -0.004   0.002  0.00  0.00    -0.020 A 
ATOM      9  C   LIG    1       -0.017   1.374   0.010  0.00  0.00    +0.100 A 
ATOM     10  C   LIG    1        1.185   2.087   0.002  0.00  0.00    -0.110 A 
ATOM     11  C   LIG    1        2.401   1.399  -0.013  0.00  0.00    +0.110 A 
ATOM     12  C   LIG    1        2.410   0.021  -0.021  0.00  0.00    -0.090 A 
BRANCH   7  14
ATOM     13  C   LIG    1        2.507  -2.678  -0.037  0.00  0.00    +0.240 C 
ATOM     14  O   LIG    1        1.227  -2.042  -0.021  0.00  0.00    -0.310 OA
ENDBRANCH   7  14
ENDBRANCH   5  10
ENDBRANCH   4   6
ENDBRANCH   3   4
ENDBRANCH   1   3
BRANCH   1  15
ATOM     15  O   LIG    1        4.532   8.504   0.003  0.00  0.00    -0.330 OA
BRANCH  15  16
ATOM     16  C   LIG    1        4.327   9.941   0.012  0.00  0.00    +0.270 C 
BRANCH  16  17
ATOM     17  C   LIG    1        5.662  10.639   0.003  0.00  0.00    +0.520 C 
ATOM     18  N   LIG    1        5.719  11.986   0.009  0.00  0.00    -0.730 N 
ATOM     19  H   LIG    1        4.900  12.506   0.020  0.00  0.00    +0.410 HD
ATOM     20  O   LIG    1        6.686   9.989  -0.010  0.00  0.00    -0.510 OA
BRANCH  18  21
ATOM     21  C   LIG    1        7.017  12.665   0.001  0.00  0.00    +0.400 C 
BRANCH  21  22
ATOM     22  C   LIG    1        6.804  14.156   0.010  0.00  0.00    -0.050 A 
ATOM     23  C   LIG    1        6.703  14.930   1.106  0.00  0.00    -0.030 A 
ATOM     24  C   LIG    1        6.510  16.256   0.656  0.00  0.00    -0.070 A 
ATOM     25  C   LIG    1        6.505  16.214  -0.689  0.00  0.00    +0.190 A 
ATOM     26  O   LIG    1        6.689  14.940  -1.074  0.00  0.00    -0.170 OA
ENDBRANCH  21  22
ENDBRANCH  18  21
ENDBRANCH  16  17
ENDBRANCH  15  16
ENDBRANCH   1  15
TORSDOF 10
