REMARK  Name = ZINCtj00000rhYTW.0
REMARK                            x       y       z     vdW  Elec       q    Type
REMARK                         _______ _______ _______ _____ _____    ______ ____
ROOT
ATOM      1  C   LIG    1       -0.477   2.049  -1.255  0.00  0.00    +0.500 C 
ATOM      2  N   LIG    1       -0.577   3.384  -1.413  0.00  0.00    -0.580 N 
ATOM      3  C   LIG    1       -0.019   4.300  -0.410  0.00  0.00    +0.280 C 
ATOM      4  C   LIG    1       -1.109   5.272   0.037  0.00  0.00    +0.010 C 
ATOM      5  C   LIG    1       -1.703   5.969  -1.189  0.00  0.00    +0.140 C 
ATOM      6  C   LIG    1       -2.333   4.926  -2.115  0.00  0.00    +0.060 C 
ATOM      7  C   LIG    1       -1.252   3.950  -2.589  0.00  0.00    +0.300 C 
ATOM      8  O   LIG    1       -0.859   1.304  -2.133  0.00  0.00    -0.530 OA
ENDROOT
BRANCH   1  15
ATOM      9  C   LIG    1       -1.882   0.174   0.270  0.00  0.00    +0.320 C 
ATOM     10  N   LIG    1       -0.414   0.129   0.230  0.00  0.00    -0.370 N 
ATOM     11  C   LIG    1        0.092  -0.403   1.502  0.00  0.00    +0.260 C 
ATOM     12  C   LIG    1        1.615  -0.528   1.435  0.00  0.00    +0.060 C 
ATOM     13  C   LIG    1        2.225   0.853   1.178  0.00  0.00    +0.050 C 
ATOM     14  C   LIG    1        1.634   1.429  -0.111  0.00  0.00    +0.080 C 
ATOM     15  C   LIG    1        0.110   1.482   0.012  0.00  0.00    +0.160 C 
ATOM     16  H   LIG    1       -0.119  -0.471  -0.525  0.00  0.00    +0.430 HD
ENDBRANCH   1  15
BRANCH   5  17
ATOM     17  O   LIG    1       -0.669   6.664  -1.889  0.00  0.00    -0.550 OA
ATOM     18  H   LIG    1       -0.224   7.342  -1.362  0.00  0.00    +0.380 HD
ENDBRANCH   5  17
BRANCH   5  19
ATOM     19  C   LIG    1       -2.773   6.966  -0.741  0.00  0.00    +0.010 C 
BRANCH  19  20
ATOM     20  C   LIG    1       -2.143   8.009   0.185  0.00  0.00    +0.260 C 
BRANCH  20  21
ATOM     21  N   LIG    1       -3.168   8.963   0.614  0.00  0.00    -0.730 N 
ATOM     22  H   LIG    1       -4.082   8.865   0.305  0.00  0.00    +0.400 HD
ATOM     23  C   LIG    1       -2.841   9.977   1.440  0.00  0.00    +0.570 C 
ATOM     24  O   LIG    1       -1.695  10.100   1.828  0.00  0.00    -0.540 OA
BRANCH  23  25
ATOM     25  C   LIG    1       -3.873  10.938   1.872  0.00  0.00    -0.180 A 
ATOM     26  C   LIG    1       -3.536  11.990   2.728  0.00  0.00    +0.130 A 
ATOM     27  C   LIG    1       -4.501  12.886   3.130  0.00  0.00    -0.050 A 
ATOM     28  C   LIG    1       -5.811  12.747   2.685  0.00  0.00    +0.230 A 
ATOM     29  C   LIG    1       -6.152  11.698   1.832  0.00  0.00    +0.010 A 
ATOM     30  F   LIG    1       -7.426  11.565   1.402  0.00  0.00    -0.140 F 
ATOM     31  C   LIG    1       -5.190  10.802   1.422  0.00  0.00    +0.070 A 
BRANCH  28  32
ATOM     32  N   LIG    1       -6.784  13.655   3.093  0.00  0.00    -0.860 N 
ATOM     33  H   LIG    1       -7.698  13.559   2.784  0.00  0.00    +0.410 HD
ATOM     34  H   LIG    1       -6.547  14.384   3.688  0.00  0.00    +0.410 HD
ENDBRANCH  28  32
ENDBRANCH  23  25
ENDBRANCH  20  21
ENDBRANCH  19  20
ENDBRANCH   5  19
TORSDOF 7
