REMARK  Name = ZINCtj00000rhYTW.1
REMARK                            x       y       z     vdW  Elec       q    Type
REMARK                         _______ _______ _______ _____ _____    ______ ____
ROOT
ATOM      1  C   LIG    1        3.422   9.140  -2.028  0.00  0.00    +0.500 C 
ATOM      2  N   LIG    1        3.052   8.171  -1.167  0.00  0.00    -0.580 N 
ATOM      3  C   LIG    1        3.981   7.694  -0.133  0.00  0.00    +0.300 C 
ATOM      4  C   LIG    1        4.101   6.170  -0.244  0.00  0.00    +0.060 C 
ATOM      5  C   LIG    1        2.705   5.546  -0.172  0.00  0.00    +0.140 C 
ATOM      6  C   LIG    1        1.859   6.051  -1.343  0.00  0.00    +0.010 C 
ATOM      7  C   LIG    1        1.713   7.572  -1.245  0.00  0.00    +0.280 C 
ATOM      8  O   LIG    1        4.500   9.683  -1.903  0.00  0.00    -0.510 OA
ENDROOT
BRANCH   1  15
ATOM      9  C   LIG    1        1.703  11.427  -1.887  0.00  0.00    +0.320 C 
ATOM     10  N   LIG    1        2.341  11.008  -3.142  0.00  0.00    -0.370 N 
ATOM     11  C   LIG    1        3.655  11.650  -3.260  0.00  0.00    +0.260 C 
ATOM     12  C   LIG    1        4.290  11.281  -4.603  0.00  0.00    +0.060 C 
ATOM     13  C   LIG    1        4.454   9.761  -4.683  0.00  0.00    +0.050 C 
ATOM     14  C   LIG    1        3.087   9.098  -4.484  0.00  0.00    +0.080 C 
ATOM     15  C   LIG    1        2.498   9.548  -3.146  0.00  0.00    +0.150 C 
ATOM     16  H   LIG    1        1.762  11.285  -3.920  0.00  0.00    +0.430 HD
ENDBRANCH   1  15
BRANCH   5  17
ATOM     17  O   LIG    1        2.081   5.915   1.059  0.00  0.00    -0.550 OA
ATOM     18  H   LIG    1        1.192   5.553   1.173  0.00  0.00    +0.380 HD
ENDBRANCH   5  17
BRANCH   5  19
ATOM     19  C   LIG    1        2.824   4.023  -0.248  0.00  0.00    +0.010 C 
BRANCH  19  20
ATOM     20  C   LIG    1        1.425   3.405  -0.301  0.00  0.00    +0.260 C 
BRANCH  20  21
ATOM     21  N   LIG    1        1.539   1.946  -0.373  0.00  0.00    -0.730 N 
ATOM     22  H   LIG    1        2.414   1.527  -0.381  0.00  0.00    +0.400 HD
ATOM     23  C   LIG    1        0.427   1.185  -0.429  0.00  0.00    +0.570 C 
ATOM     24  O   LIG    1       -0.669   1.710  -0.425  0.00  0.00    -0.540 OA
BRANCH  23  25
ATOM     25  C   LIG    1        0.541  -0.284  -0.502  0.00  0.00    -0.180 A 
ATOM     26  C   LIG    1       -0.610  -1.073  -0.560  0.00  0.00    +0.130 A 
ATOM     27  C   LIG    1       -0.501  -2.444  -0.629  0.00  0.00    -0.050 A 
ATOM     28  C   LIG    1        0.754  -3.045  -0.640  0.00  0.00    +0.230 A 
ATOM     29  C   LIG    1        1.905  -2.261  -0.581  0.00  0.00    +0.010 A 
ATOM     30  F   LIG    1        3.122  -2.847  -0.592  0.00  0.00    -0.140 F 
ATOM     31  C   LIG    1        1.802  -0.888  -0.519  0.00  0.00    +0.070 A 
BRANCH  28  32
ATOM     32  N   LIG    1        0.860  -4.431  -0.709  0.00  0.00    -0.860 N 
ATOM     33  H   LIG    1        1.734  -4.850  -0.717  0.00  0.00    +0.410 HD
ATOM     34  H   LIG    1        0.059  -4.977  -0.749  0.00  0.00    +0.410 HD
ENDBRANCH  28  32
ENDBRANCH  23  25
ENDBRANCH  20  21
ENDBRANCH  19  20
ENDBRANCH   5  19
TORSDOF 7
