REMARK  Name = ZINCpk00000y6uwc.0
REMARK                            x       y       z     vdW  Elec       q    Type
REMARK                         _______ _______ _______ _____ _____    ______ ____
ROOT
ATOM      1  C   LIG    1        1.835   1.601   1.485  0.00  0.00    +0.270 C 
ATOM      2  C   LIG    1        1.428   1.662  -0.003  0.00  0.00    +0.070 C 
ATOM      3  C   LIG    1       -0.013   1.086   0.008  0.00  0.00    +0.170 C 
ATOM      4  C   LIG    1       -0.554   1.626   1.355  0.00  0.00    +0.220 C 
ATOM      5  N   LIG    1        0.596   1.565   2.275  0.00  0.00    -0.610 N 
ATOM      6  C   LIG    1        0.524   1.489   3.619  0.00  0.00    +0.520 C 
ATOM      7  O   LIG    1        1.540   1.443   4.279  0.00  0.00    -0.510 OA
ENDROOT
BRANCH   1  12
ATOM      8  C   LIG    1        4.756   3.876   2.244  0.00  0.00    +0.130 A 
ATOM      9  C   LIG    1        4.109   5.074   2.509  0.00  0.00    -0.080 A 
ATOM     10  C   LIG    1        2.731   5.143   2.442  0.00  0.00    +0.040 A 
ATOM     11  C   LIG    1        1.997   4.021   2.106  0.00  0.00    -0.010 A 
ATOM     12  C   LIG    1        2.639   2.824   1.846  0.00  0.00    -0.050 A 
ATOM     13  C   LIG    1        4.016   2.750   1.912  0.00  0.00    -0.010 A 
BRANCH   8  15
ATOM     14  C   LIG    1        6.807   5.004   2.658  0.00  0.00    +0.250 C 
ATOM     15  O   LIG    1        6.111   3.805   2.310  0.00  0.00    -0.320 OA
ENDBRANCH   8  15
ENDBRANCH   1  12
BRANCH   3  16
ATOM     16  O   LIG    1       -0.774   1.591  -1.091  0.00  0.00    -0.550 OA
ATOM     17  H   LIG    1       -1.696   1.297  -1.098  0.00  0.00    +0.380 HD
ENDBRANCH   3  16
BRANCH   6  18
ATOM     18  C   LIG    1       -0.820   1.460   4.301  0.00  0.00    +0.330 C 
BRANCH  18  19
ATOM     19  N   LIG    1       -0.629   1.375   5.751  0.00  0.00    -0.480 N 
ATOM     20  C   LIG    1       -0.557   0.158   6.348  0.00  0.00    +0.290 A 
ATOM     21  C   LIG    1       -0.377   0.054   7.686  0.00  0.00    -0.070 A 
ATOM     22  C   LIG    1       -0.274   1.212   8.470  0.00  0.00    +0.120 A 
ATOM     23  C   LIG    1       -0.352   2.434   7.869  0.00  0.00    -0.200 A 
ATOM     24  C   LIG    1       -0.244   3.694   8.688  0.00  0.00    +0.120 C 
ATOM     25  C   LIG    1       -0.534   2.505   6.477  0.00  0.00    +0.520 A 
ATOM     26  O   LIG    1       -0.606   3.592   5.926  0.00  0.00    -0.550 OA
ENDBRANCH  18  19
ENDBRANCH   6  18
TORSDOF 5
