REMARK  Name = ZINCpe00000VVG9M.0
REMARK                            x       y       z     vdW  Elec       q    Type
REMARK                         _______ _______ _______ _____ _____    ______ ____
ROOT
ATOM      1  C   LIG    1       -0.382   4.466   6.149  0.00  0.00    +0.120 C 
ATOM      2  C   LIG    1       -1.554   4.196   7.120  0.00  0.00    +0.050 C 
ATOM      3  C   LIG    1       -1.486   5.403   8.089  0.00  0.00    +0.180 C 
ATOM      4  N   LIG    1       -1.106   6.531   7.200  0.00  0.00    -0.480 NA
ATOM      5  C   LIG    1       -0.117   5.980   6.249  0.00  0.00    +0.190 C 
ENDROOT
BRANCH   1   6
ATOM      6  N   LIG    1       -0.764   4.105   4.777  0.00  0.00    -0.520 NA
ATOM      7  C   LIG    1       -1.199   2.704   4.703  0.00  0.00    +0.190 C 
BRANCH   6   8
ATOM      8  C   LIG    1        0.336   4.365   3.838  0.00  0.00    +0.300 C 
BRANCH   8  13
ATOM      9  C   LIG    1       -1.621   5.303  -0.723  0.00  0.00    +0.200 C 
ATOM     10  C   LIG    1       -1.003   4.621   0.470  0.00  0.00    +0.170 A 
ATOM     11  N   LIG    1       -0.671   3.362   0.555  0.00  0.00    -0.300 NA
ATOM     12  N   LIG    1       -0.167   3.124   1.714  0.00  0.00    -0.290 NA
ATOM     13  C   LIG    1       -0.164   4.219   2.425  0.00  0.00    +0.180 A 
ATOM     14  N   LIG    1       -0.695   5.200   1.655  0.00  0.00    -0.460 N 
ATOM     15  C   LIG    1       -0.894   6.603   2.029  0.00  0.00    +0.350 C 
ENDBRANCH   8  13
ENDBRANCH   6   8
ENDBRANCH   1   6
BRANCH   4  16
ATOM     16  C   LIG    1       -0.531   7.640   7.973  0.00  0.00    +0.180 C 
BRANCH  16  17
ATOM     17  C   LIG    1       -1.471   8.014   9.091  0.00  0.00    -0.090 A 
ATOM     18  C   LIG    1       -2.835   8.041   8.867  0.00  0.00    +0.040 A 
ATOM     19  C   LIG    1       -3.697   8.378   9.894  0.00  0.00    +0.000 A 
ATOM     20  C   LIG    1       -3.194   8.698  11.141  0.00  0.00    +0.010 A 
ATOM     21  C   LIG    1       -1.830   8.677  11.363  0.00  0.00    +0.000 A 
ATOM     22  C   LIG    1       -0.968   8.334  10.338  0.00  0.00    +0.010 A 
ENDBRANCH  16  17
BRANCH  16  23
ATOM     23  C   LIG    1       -0.327   8.829   7.070  0.00  0.00    +0.530 C 
ATOM     24  O   LIG    1       -0.631   8.760   5.898  0.00  0.00    -0.520 OA
ATOM     25  N   LIG    1        0.193   9.970   7.565  0.00  0.00    -0.850 N 
ATOM     26  H   LIG    1        0.324  10.736   6.984  0.00  0.00    +0.400 HD
ATOM     27  H   LIG    1        0.435  10.026   8.503  0.00  0.00    +0.400 HD
ENDBRANCH  16  23
ENDBRANCH   4  16
TORSDOF 6
