REMARK  Name = ZINCrD00000F5LIc.0
REMARK                            x       y       z     vdW  Elec       q    Type
REMARK                         _______ _______ _______ _____ _____    ______ ____
ROOT
ATOM      1  C   LIG    1        5.409   4.378   3.053  0.00  0.00    +0.520 C 
ATOM      2  N   LIG    1        4.111   4.225   2.723  0.00  0.00    -0.730 N 
ATOM      3  H   LIG    1        3.609   4.976   2.368  0.00  0.00    +0.400 HD
ATOM      4  O   LIG    1        6.036   3.439   3.497  0.00  0.00    -0.510 OA
ENDROOT
BRANCH   1   5
ATOM      5  C   LIG    1        6.081   5.714   2.869  0.00  0.00    +0.220 C 
BRANCH   5   6
ATOM      6  O   LIG    1        7.444   5.623   3.287  0.00  0.00    -0.280 OA
BRANCH   6  10
ATOM      7  C   LIG    1        9.733   9.051   2.980  0.00  0.00    -0.050 A 
ATOM      8  C   LIG    1        8.394   9.064   2.591  0.00  0.00    +0.020 A 
ATOM      9  C   LIG    1        7.633   7.917   2.695  0.00  0.00    -0.030 A 
ATOM     10  C   LIG    1        8.198   6.750   3.186  0.00  0.00    +0.100 A 
ATOM     11  C   LIG    1        9.534   6.731   3.581  0.00  0.00    +0.110 A 
ATOM     12  C   LIG    1       10.302   7.875   3.474  0.00  0.00    -0.020 A 
BRANCH   7  15
ATOM     13  C   LIG    1       10.840  12.645   2.285  0.00  0.00    +0.070 C 
ATOM     14  C   LIG    1       10.008  11.393   2.399  0.00  0.00    -0.030 C 
ATOM     15  C   LIG    1       10.549  10.278   2.869  0.00  0.00    -0.010 C 
ENDBRANCH   7  15
BRANCH  11  16
ATOM     16  O   LIG    1       10.083   5.586   4.066  0.00  0.00    -0.300 OA
ATOM     17  C   LIG    1       11.458   5.639   4.453  0.00  0.00    +0.240 C 
ENDBRANCH  11  16
ENDBRANCH   6  10
ENDBRANCH   5   6
ENDBRANCH   1   5
BRANCH   2  18
ATOM     18  C   LIG    1        3.458   2.926   2.901  0.00  0.00    +0.290 C 
BRANCH  18  19
ATOM     19  C   LIG    1        1.998   3.024   2.454  0.00  0.00    -0.030 C 
ATOM     20  C   LIG    1        1.942   3.302   0.951  0.00  0.00    +0.030 C 
BRANCH  19  21
ATOM     21  C   LIG    1        1.283   1.705   2.756  0.00  0.00    +0.340 C 
BRANCH  21  22
ATOM     22  N   LIG    1       -0.141   1.838   2.438  0.00  0.00    -0.370 N 
ATOM     23  N   LIG    1       -1.145   2.264   3.318  0.00  0.00    -0.300 NA
ATOM     24  C   LIG    1       -2.284   2.253   2.675  0.00  0.00    +0.070 A 
ATOM     25  C   LIG    1       -2.042   1.825   1.365  0.00  0.00    -0.120 A 
ATOM     26  C   LIG    1       -3.625   2.639   3.244  0.00  0.00    +0.160 C 
ATOM     27  C   LIG    1       -0.718   1.572   1.248  0.00  0.00    +0.090 A 
ATOM     28  C   LIG    1       -0.013   1.086   0.008  0.00  0.00    +0.140 C 
ENDBRANCH  21  22
ENDBRANCH  19  21
ENDBRANCH  18  19
ENDBRANCH   2  18
TORSDOF 9
