REMARK  Name = ZINCrD0000074kvg.0
REMARK                            x       y       z     vdW  Elec       q    Type
REMARK                         _______ _______ _______ _____ _____    ______ ____
ROOT
ATOM      1  O   LIG    1        1.405  -4.189  -0.353  0.00  0.00    -0.330 OA
ENDROOT
BRANCH   1   2
ATOM      2  C   LIG    1        0.729  -2.921  -0.145  0.00  0.00    +0.160 C 
ATOM      3  C   LIG    1       -0.111  -2.994   1.132  0.00  0.00    +0.080 C 
BRANCH   2   4
ATOM      4  C   LIG    1        1.751  -1.823  -0.012  0.00  0.00    +0.450 C 
ATOM      5  O   LIG    1        2.917  -2.099   0.183  0.00  0.00    -0.420 OA
BRANCH   4   8
ATOM      6  C   LIG    1        1.427  -0.256  -2.667  0.00  0.00    +0.150 C 
ATOM      7  C   LIG    1        1.196   0.265  -1.272  0.00  0.00    +0.150 A 
ATOM      8  C   LIG    1        1.352  -0.467  -0.114  0.00  0.00    -0.270 A 
ATOM      9  C   LIG    1        1.019   0.446   0.997  0.00  0.00    -0.060 A 
ATOM     10  C   LIG    1        0.984   0.310   2.382  0.00  0.00    +0.040 A 
ATOM     11  C   LIG    1        0.622   1.386   3.164  0.00  0.00    +0.000 A 
ATOM     12  C   LIG    1        0.291   2.598   2.576  0.00  0.00    +0.030 A 
ATOM     13  C   LIG    1        0.321   2.745   1.206  0.00  0.00    +0.000 A 
ATOM     14  C   LIG    1        0.685   1.671   0.400  0.00  0.00    +0.090 A 
ATOM     15  N   LIG    1        0.805   1.517  -0.967  0.00  0.00    -0.570 N 
ATOM     16  H   LIG    1        0.635   2.216  -1.617  0.00  0.00    +0.420 HD
ENDBRANCH   4   8
ENDBRANCH   2   4
ENDBRANCH   1   2
BRANCH   1  17
ATOM     17  C   LIG    1        0.753  -5.119  -1.079  0.00  0.00    +0.510 C 
ATOM     18  O   LIG    1       -0.350  -4.876  -1.526  0.00  0.00    -0.510 OA
BRANCH  17  19
ATOM     19  C   LIG    1        1.379  -6.430  -1.331  0.00  0.00    -0.150 A 
ATOM     20  C   LIG    1        2.651  -6.709  -0.822  0.00  0.00    +0.120 A 
ATOM     21  C   LIG    1        3.230  -7.935  -1.054  0.00  0.00    -0.020 A 
ATOM     22  C   LIG    1        2.555  -8.894  -1.804  0.00  0.00    +0.210 A 
ATOM     23  C   LIG    1        1.291  -8.618  -2.317  0.00  0.00    +0.010 A 
ATOM     24  C   LIG    1        0.704  -7.396  -2.083  0.00  0.00    +0.110 A 
BRANCH  22  25
ATOM     25  N   LIG    1        3.147 -10.133  -2.043  0.00  0.00    -0.680 N 
ATOM     26  H   LIG    1        3.723 -10.533  -1.373  0.00  0.00    +0.410 HD
ATOM     27  C   LIG    1        2.919 -10.776  -3.205  0.00  0.00    +0.710 C 
ATOM     28  O   LIG    1        2.275 -10.235  -4.083  0.00  0.00    -0.570 OA
ATOM     29  N   LIG    1        3.404 -12.020  -3.394  0.00  0.00    -0.860 N 
ATOM     30  H   LIG    1        3.240 -12.482  -4.231  0.00  0.00    +0.420 HD
ATOM     31  H   LIG    1        3.918 -12.451  -2.694  0.00  0.00    +0.400 HD
ENDBRANCH  22  25
ENDBRANCH  17  19
ENDBRANCH   1  17
TORSDOF 6
