REMARK  Name = ZINCrH000004q5uT.0
REMARK                            x       y       z     vdW  Elec       q    Type
REMARK                         _______ _______ _______ _____ _____    ______ ____
ROOT
ATOM      1  C   LIG    1       -6.500   3.924   4.521  0.00  0.00    +0.220 A 
ATOM      2  N   LIG    1       -6.212   3.571   3.281  0.00  0.00    -0.430 NA
ATOM      3  C   LIG    1       -4.885   3.332   3.274  0.00  0.00    +0.210 A 
ATOM      4  N   LIG    1       -4.442   3.542   4.487  0.00  0.00    -0.350 NA
ATOM      5  O   LIG    1       -5.350   3.886   5.214  0.00  0.00    +0.110 OA
ENDROOT
BRANCH   1   8
ATOM      6  C   LIG    1       -7.639   2.336   6.571  0.00  0.00    +0.130 C 
ATOM      7  C   LIG    1       -8.380   3.531   6.027  0.00  0.00    -0.080 A 
ATOM      8  C   LIG    1       -7.829   4.288   5.044  0.00  0.00    +0.190 A 
ATOM      9  N   LIG    1       -8.470   5.390   4.524  0.00  0.00    -0.620 N 
ATOM     10  H   LIG    1       -8.034   5.902   3.825  0.00  0.00    +0.420 HD
ATOM     11  C   LIG    1       -9.688   5.777   4.952  0.00  0.00    +0.560 A 
ATOM     12  C   LIG    1      -10.357   5.014   6.013  0.00  0.00    -0.140 A 
ATOM     13  C   LIG    1      -11.614   5.374   6.495  0.00  0.00    +0.090 A 
ATOM     14  C   LIG    1      -12.200   4.625   7.493  0.00  0.00    +0.020 A 
ATOM     15  C   LIG    1      -11.553   3.517   8.023  0.00  0.00    +0.060 A 
ATOM     16  C   LIG    1      -10.310   3.141   7.562  0.00  0.00    +0.030 A 
ATOM     17  O   LIG    1      -10.227   6.755   4.465  0.00  0.00    -0.510 OA
ATOM     18  C   LIG    1       -9.697   3.885   6.552  0.00  0.00    -0.010 A 
ENDBRANCH   1   8
BRANCH   3  19
ATOM     19  C   LIG    1       -4.075   2.902   2.105  0.00  0.00    +0.060 A 
ATOM     20  C   LIG    1       -4.669   2.704   0.855  0.00  0.00    -0.020 A 
ATOM     21  C   LIG    1       -3.883   2.305  -0.206  0.00  0.00    +0.320 A 
ATOM     22  N   LIG    1       -2.587   2.110  -0.055  0.00  0.00    -0.530 NA
ATOM     23  C   LIG    1       -1.984   2.286   1.109  0.00  0.00    +0.330 A 
ATOM     24  C   LIG    1       -2.703   2.681   2.227  0.00  0.00    -0.010 A 
BRANCH  23  25
ATOM     25  O   LIG    1       -0.648   2.071   1.212  0.00  0.00    -0.300 OA
BRANCH  25  26
ATOM     26  C   LIG    1        0.036   1.660   0.026  0.00  0.00    +0.170 C 
ATOM     27  C   LIG    1        1.479   2.165   0.069  0.00  0.00    +0.060 C 
ATOM     28  C   LIG    1        0.033   0.133  -0.060  0.00  0.00    +0.020 C 
ENDBRANCH  25  26
ENDBRANCH  23  25
ENDBRANCH   3  19
TORSDOF 4
