REMARK  Name = ZINCrH000004nvNi.0
REMARK                            x       y       z     vdW  Elec       q    Type
REMARK                         _______ _______ _______ _____ _____    ______ ____
ROOT
ATOM      1  N   LIG    1        6.090   2.042  -0.203  0.00  0.00    -0.730 N 
ATOM      2  H   LIG    1        6.134   2.728   0.482  0.00  0.00    +0.400 HD
ATOM      3  C   LIG    1        7.193   1.722  -0.908  0.00  0.00    +0.710 C 
ATOM      4  N   LIG    1        8.357   2.355  -0.662  0.00  0.00    -0.680 N 
ATOM      5  H   LIG    1        8.387   3.086  -0.025  0.00  0.00    +0.410 HD
ATOM      6  O   LIG    1        7.138   0.863  -1.766  0.00  0.00    -0.560 OA
ENDROOT
BRANCH   1  13
ATOM      7  C   LIG    1        1.208  -0.669  -0.012  0.00  0.00    +0.110 A 
ATOM      8  C   LIG    1       -0.001   0.004  -0.004  0.00  0.00    -0.040 A 
ATOM      9  C   LIG    1       -0.019   1.387  -0.006  0.00  0.00    +0.020 A 
ATOM     10  C   LIG    1        1.167   2.094  -0.015  0.00  0.00    +0.010 A 
ATOM     11  C   LIG    1        2.382   1.425  -0.021  0.00  0.00    -0.120 A 
ATOM     12  C   LIG    1        3.654   2.235  -0.025  0.00  0.00    +0.100 C 
ATOM     13  C   LIG    1        4.824   1.354  -0.470  0.00  0.00    +0.240 C 
ATOM     14  C   LIG    1        4.770   0.043   0.325  0.00  0.00    +0.230 C 
ATOM     15  O   LIG    1        3.575  -0.652  -0.034  0.00  0.00    -0.290 OA
ATOM     16  C   LIG    1        2.408   0.044  -0.021  0.00  0.00    +0.100 A 
BRANCH   7  18
ATOM     17  C   LIG    1       -0.037  -2.696  -0.001  0.00  0.00    +0.250 C 
ATOM     18  O   LIG    1        1.227  -2.029  -0.011  0.00  0.00    -0.310 OA
ENDBRANCH   7  18
ENDBRANCH   1  13
BRANCH   4  19
ATOM     19  C   LIG    1        9.525   1.957  -1.326  0.00  0.00    +0.150 A 
ATOM     20  C   LIG    1       10.749   2.011  -0.672  0.00  0.00    +0.040 A 
ATOM     21  C   LIG    1       11.899   1.615  -1.325  0.00  0.00    -0.030 A 
ATOM     22  C   LIG    1       11.833   1.171  -2.638  0.00  0.00    +0.090 A 
ATOM     23  C   LIG    1       10.612   1.121  -3.293  0.00  0.00    +0.040 A 
ATOM     24  C   LIG    1        9.460   1.513  -2.639  0.00  0.00    +0.080 A 
BRANCH  22  25
ATOM     25  O   LIG    1       12.967   0.786  -3.283  0.00  0.00    -0.310 OA
BRANCH  25  26
ATOM     26  C   LIG    1       14.190   0.864  -2.547  0.00  0.00    +0.600 C 
ATOM     27  F   LIG    1       14.413   2.187  -2.153  0.00  0.00    -0.170 F 
ATOM     28  F   LIG    1       15.248   0.433  -3.355  0.00  0.00    -0.130 F 
ATOM     29  F   LIG    1       14.105   0.047  -1.414  0.00  0.00    -0.160 F 
ENDBRANCH  25  26
ENDBRANCH  22  25
ENDBRANCH   4  19
TORSDOF 5
