REMARK  Name = ZINCrD000000CDeT.0
REMARK                            x       y       z     vdW  Elec       q    Type
REMARK                         _______ _______ _______ _____ _____    ______ ____
ROOT
ATOM      1  O   LIG    1        3.085   4.769   4.514  0.00  0.00    -0.530 OA
ATOM      2  C   LIG    1        3.283   3.890   3.699  0.00  0.00    +0.560 C 
ATOM      3  N   LIG    1        3.575   4.208   2.422  0.00  0.00    -0.600 N 
ATOM      4  C   LIG    1        3.757   5.588   2.075  0.00  0.00    +0.290 C 
ATOM      5  C   LIG    1        2.376   6.181   1.749  0.00  0.00    +0.000 C 
ATOM      6  C   LIG    1        1.922   5.803   0.401  0.00  0.00    +0.300 C 
ATOM      7  N   LIG    1        1.860   4.328   0.273  0.00  0.00    -0.600 N 
ATOM      8  C   LIG    1        3.067   3.571   0.086  0.00  0.00    +0.270 C 
ATOM      9  C   LIG    1        0.672   3.695   0.337  0.00  0.00    +0.560 C 
ATOM     10  O   LIG    1       -0.357   4.339   0.404  0.00  0.00    -0.510 OA
ATOM     11  C   LIG    1        3.700   3.116   1.418  0.00  0.00    +0.270 C 
ENDROOT
BRANCH   2  12
ATOM     12  C   LIG    1        3.203   2.471   4.107  0.00  0.00    -0.120 A 
ATOM     13  C   LIG    1        4.032   1.522   3.508  0.00  0.00    +0.050 A 
ATOM     14  C   LIG    1        3.954   0.198   3.894  0.00  0.00    +0.030 A 
ATOM     15  C   LIG    1        3.057  -0.186   4.871  0.00  0.00    -0.110 A 
ATOM     16  C   LIG    1        2.740  -1.525   5.496  0.00  0.00    +0.270 C 
ATOM     17  O   LIG    1        2.041  -1.235   6.720  0.00  0.00    -0.360 OA
ATOM     18  C   LIG    1        1.379   0.021   6.482  0.00  0.00    +0.270 C 
ATOM     19  C   LIG    1        2.230   0.753   5.471  0.00  0.00    -0.130 A 
ATOM     20  C   LIG    1        2.302   2.077   5.099  0.00  0.00    +0.100 A 
ENDBRANCH   2  12
BRANCH   9  21
ATOM     21  C   LIG    1        0.620   2.219   0.324  0.00  0.00    -0.120 A 
ATOM     22  C   LIG    1        1.129   1.508  -0.764  0.00  0.00    +0.050 A 
ATOM     23  C   LIG    1        1.077   0.130  -0.770  0.00  0.00    +0.020 A 
ATOM     24  C   LIG    1        0.520  -0.550   0.299  0.00  0.00    +0.050 A 
ATOM     25  C   LIG    1        0.013   0.146   1.381  0.00  0.00    +0.030 A 
ATOM     26  C   LIG    1        0.059   1.527   1.401  0.00  0.00    +0.000 A 
ATOM     27 CL   LIG    1       -0.584   2.400   2.756  0.00  0.00    -0.050 Cl
ENDBRANCH   9  21
TORSDOF 2
