REMARK  Name = ZINCpk00000ebMtm.0
REMARK                            x       y       z     vdW  Elec       q    Type
REMARK                         _______ _______ _______ _____ _____    ______ ____
ROOT
ATOM      1  O   LIG    1       -4.301  -0.841  -1.356  0.00  0.00    -0.520 OA
ATOM      2  C   LIG    1       -4.317   0.370  -1.419  0.00  0.00    +0.520 C 
ATOM      3  N   LIG    1       -5.498   0.989  -1.489  0.00  0.00    -0.710 N 
ATOM      4  H   LIG    1       -6.306   0.451  -1.488  0.00  0.00    +0.410 HD
ATOM      5  CA  LIG    1       -5.626   2.438  -1.567  0.00  0.00    +0.250 C 
ATOM      6  C   LIG    1       -4.348   3.074  -2.023  0.00  0.00    +0.520 C 
ATOM      7  N   LIG    1       -3.166   2.454  -1.948  0.00  0.00    -0.710 N 
ATOM      8  H   LIG    1       -2.376   2.922  -2.262  0.00  0.00    +0.410 HD
ATOM      9  O   LIG    1       -4.388   4.197  -2.479  0.00  0.00    -0.520 OA
ATOM     10  CA  LIG    1       -3.012   1.107  -1.415  0.00  0.00    +0.260 C 
ENDROOT
BRANCH   5  11
ATOM     11  C   LIG    1       -6.741   2.790  -2.553  0.00  0.00    +0.180 C 
BRANCH  11  12
ATOM     12  C   LIG    1       -8.054   2.259  -2.038  0.00  0.00    +0.310 A 
ATOM     13  N   LIG    1       -8.434   1.044  -2.383  0.00  0.00    -0.520 NA
ATOM     14  C   LIG    1       -9.577   0.542  -1.946  0.00  0.00    +0.320 A 
ATOM     15  C   LIG    1      -10.383   1.315  -1.125  0.00  0.00    -0.080 A 
ATOM     16  C   LIG    1       -9.953   2.589  -0.790  0.00  0.00    +0.320 A 
ATOM     17  N   LIG    1       -8.795   3.022  -1.260  0.00  0.00    -0.510 NA
ENDBRANCH  11  12
ENDBRANCH   5  11
BRANCH  10  18
ATOM     18  C   LIG    1       -2.489   1.192   0.020  0.00  0.00    +0.110 C 
BRANCH  18  19
ATOM     19  C   LIG    1       -1.112   1.804   0.017  0.00  0.00    -0.090 A 
ATOM     20  C   LIG    1       -0.013   1.076   0.008  0.00  0.00    -0.010 A 
ATOM     21  S   LIG    1        1.422   2.083  -0.000  0.00  0.00    +0.090 S 
ATOM     22  C   LIG    1        0.467   3.560   0.016  0.00  0.00    -0.140 A 
ATOM     23  C   LIG    1        0.866   4.901   0.019  0.00  0.00    +0.050 A 
ATOM     24  C   LIG    1       -0.077   5.902   0.033  0.00  0.00    +0.030 A 
ATOM     25  C   LIG    1       -1.429   5.588   0.044  0.00  0.00    +0.020 A 
ATOM     26  C   LIG    1       -1.839   4.289   0.041  0.00  0.00    +0.040 A 
ATOM     27  C   LIG    1       -0.893   3.241   0.027  0.00  0.00    -0.070 A 
ENDBRANCH  18  19
ENDBRANCH  10  18
TORSDOF 4
