REMARK  Name = ZINCrD00000l6dgt.1
REMARK                            x       y       z     vdW  Elec       q    Type
REMARK                         _______ _______ _______ _____ _____    ______ ____
ROOT
ATOM      1  C   LIG    1        2.471   0.265   0.055  0.00  0.00    -0.150 A 
ATOM      2  C   LIG    1        1.379  -0.323   0.698  0.00  0.00    +0.100 A 
ATOM      3  C   LIG    1        0.148   0.294   0.666  0.00  0.00    +0.010 A 
ATOM      4  C   LIG    1       -0.008   1.502  -0.006  0.00  0.00    +0.170 A 
ATOM      5  C   LIG    1        1.077   2.091  -0.648  0.00  0.00    -0.010 A 
ATOM      6  C   LIG    1        2.310   1.479  -0.620  0.00  0.00    +0.070 A 
ENDROOT
BRANCH   1  12
ATOM      7  N   LIG    1        7.075   1.630   1.402  0.00  0.00    -0.540 NA
ATOM      8  C   LIG    1        7.070   0.163   1.319  0.00  0.00    +0.170 C 
ATOM      9  C   LIG    1        6.241  -0.274   0.106  0.00  0.00    +0.300 C 
ATOM     10  N   LIG    1        4.911   0.348   0.201  0.00  0.00    -0.610 N 
ATOM     11  C   LIG    1        4.836   1.801   0.417  0.00  0.00    +0.280 C 
ATOM     12  C   LIG    1        3.791  -0.393   0.088  0.00  0.00    +0.560 C 
ATOM     13  O   LIG    1        3.869  -1.604   0.013  0.00  0.00    -0.530 OA
ATOM     14  C   LIG    1        5.721   2.155   1.623  0.00  0.00    +0.170 C 
BRANCH   7  15
ATOM     15  C   LIG    1        7.997   2.095   2.446  0.00  0.00    +0.170 C 
BRANCH  15  16
ATOM     16  C   LIG    1        8.165   3.612   2.339  0.00  0.00    +0.020 C 
BRANCH  16  18
ATOM     17  C   LIG    1        9.392   5.592   3.244  0.00  0.00    +0.010 C 
ATOM     18  C   LIG    1        9.126   4.096   3.427  0.00  0.00    -0.030 C 
ATOM     19  C   LIG    1        8.503   3.854   4.803  0.00  0.00    +0.000 C 
ENDBRANCH  16  18
ENDBRANCH  15  16
ENDBRANCH   7  15
ENDBRANCH   1  12
BRANCH   4  20
ATOM     20  N   LIG    1       -1.256   2.121  -0.042  0.00  0.00    -0.670 N 
ATOM     21  H   LIG    1       -1.318   3.089  -0.034  0.00  0.00    +0.420 HD
ATOM     22  C   LIG    1       -2.377   1.375  -0.086  0.00  0.00    +0.610 C 
ATOM     23  O   LIG    1       -2.300   0.166  -0.202  0.00  0.00    -0.490 OA
BRANCH  22  24
ATOM     24  C   LIG    1       -3.691   2.019   0.004  0.00  0.00    -0.090 A 
ATOM     25  C   LIG    1       -4.900   1.385  -0.028  0.00  0.00    +0.050 A 
ATOM     26  C   LIG    1       -5.882   2.381   0.089  0.00  0.00    -0.070 A 
ATOM     27  C   LIG    1       -5.237   3.565   0.186  0.00  0.00    +0.210 A 
ATOM     28  O   LIG    1       -3.917   3.342   0.140  0.00  0.00    -0.170 OA
ENDBRANCH  22  24
ENDBRANCH   4  20
TORSDOF 6
