REMARK  Name = ZINCpk00000Femyp.0
REMARK                            x       y       z     vdW  Elec       q    Type
REMARK                         _______ _______ _______ _____ _____    ______ ____
ROOT
ATOM      1  C   LIG    1       -0.739   1.581   1.278  0.00  0.00    +0.390 C 
ENDROOT
BRANCH   1   2
ATOM      2  C   LIG    1       -0.028   1.083   0.018  0.00  0.00    -0.010 C 
ATOM      3  C   LIG    1       -0.767   1.591  -1.224  0.00  0.00    -0.010 C 
ATOM      4  C   LIG    1       -0.004   1.152  -2.477  0.00  0.00    +0.210 C 
ATOM      5  O   LIG    1        1.333   1.653  -2.418  0.00  0.00    -0.380 OA
ATOM      6  C   LIG    1        2.088   1.174  -1.303  0.00  0.00    +0.210 C 
ATOM      7  C   LIG    1        1.409   1.613  -0.003  0.00  0.00    +0.020 C 
ENDBRANCH   1   2
BRANCH   1  11
ATOM      8  C   LIG    1       -3.783  -0.225   1.877  0.00  0.00    +0.180 A 
ATOM      9  N   LIG    1       -4.125   0.607   0.939  0.00  0.00    -0.370 NA
ATOM     10  O   LIG    1       -3.179   1.298   0.626  0.00  0.00    +0.090 OA
ATOM     11  C   LIG    1       -2.111   0.964   1.358  0.00  0.00    +0.170 A 
ATOM     12  N   LIG    1       -2.485  -0.009   2.154  0.00  0.00    -0.460 NA
BRANCH   8  14
ATOM     13  C   LIG    1       -5.857  -0.540   3.201  0.00  0.00    +0.040 C 
ATOM     14  C   LIG    1       -4.676  -1.247   2.532  0.00  0.00    +0.090 C 
ATOM     15  C   LIG    1       -5.199  -2.220   1.473  0.00  0.00    +0.040 C 
ENDBRANCH   8  14
ENDBRANCH   1  11
BRANCH   1  16
ATOM     16  N   LIG    1       -0.862   3.040   1.224  0.00  0.00    -0.710 N 
ATOM     17  H   LIG    1       -1.675   3.446   0.885  0.00  0.00    +0.420 HD
ATOM     18  C   LIG    1        0.154   3.818   1.647  0.00  0.00    +0.600 C 
ATOM     19  O   LIG    1        1.173   3.309   2.071  0.00  0.00    -0.530 OA
BRANCH  18  20
ATOM     20  C   LIG    1        0.029   5.289   1.593  0.00  0.00    -0.050 A 
ATOM     21  N   LIG    1       -1.038   5.849   1.031  0.00  0.00    -0.380 NA
ATOM     22  C   LIG    1       -1.146   7.162   0.985  0.00  0.00    +0.170 A 
ATOM     23  C   LIG    1       -0.150   7.966   1.520  0.00  0.00    +0.320 A 
ATOM     24  N   LIG    1        0.916   7.424   2.080  0.00  0.00    -0.500 NA
ATOM     25  C   LIG    1        1.035   6.103   2.139  0.00  0.00    +0.410 A 
BRANCH  25  26
ATOM     26  N   LIG    1        2.147   5.532   2.730  0.00  0.00    -0.820 N 
ATOM     27  H   LIG    1        2.095   4.634   3.095  0.00  0.00    +0.420 HD
ATOM     28  H   LIG    1        2.979   6.028   2.779  0.00  0.00    +0.410 HD
ENDBRANCH  25  26
ENDBRANCH  18  20
ENDBRANCH   1  16
TORSDOF 6
