REMARK  Name = ZINCpk00001AZj4X.0
REMARK                            x       y       z     vdW  Elec       q    Type
REMARK                         _______ _______ _______ _____ _____    ______ ____
ROOT
ATOM      1  C   LIG    1        0.660   6.628   6.876  0.00  0.00    +0.530 C 
ATOM      2  N   LIG    1       -0.381   6.015   6.277  0.00  0.00    -0.620 N 
ATOM      3  C   LIG    1       -1.478   6.794   5.681  0.00  0.00    +0.260 C 
ATOM      4  C   LIG    1       -1.709   6.289   4.253  0.00  0.00    +0.220 C 
ATOM      5  O   LIG    1       -1.877   4.869   4.276  0.00  0.00    -0.370 OA
ATOM      6  C   LIG    1       -0.734   4.152   4.747  0.00  0.00    +0.130 C 
ATOM      7  C   LIG    1       -0.454   4.547   6.201  0.00  0.00    +0.280 C 
ATOM      8  O   LIG    1        1.554   5.969   7.361  0.00  0.00    -0.530 OA
ENDROOT
BRANCH   1   9
ATOM      9  C   LIG    1        0.711   8.133   6.941  0.00  0.00    +0.050 C 
BRANCH   9  10
ATOM     10  C   LIG    1        1.986   8.568   7.667  0.00  0.00    +0.130 C 
BRANCH  10  11
ATOM     11  C   LIG    1        2.039  10.096   7.734  0.00  0.00    +0.040 C 
ATOM     12  N   LIG    1        0.784  10.846   7.630  0.00  0.00    -0.120 NA
ATOM     13  N   LIG    1        1.493  10.866   6.613  0.00  0.00    -0.120 NA
BRANCH  11  14
ATOM     14  C   LIG    1        3.188  10.698   8.545  0.00  0.00    +0.120 C 
BRANCH  14  15
ATOM     15  C   LIG    1        3.092  12.225   8.509  0.00  0.00    +0.160 C 
BRANCH  15  17
ATOM     16  C   LIG    1        5.080  13.266   9.912  0.00  0.00    +0.030 C 
ATOM     17  C   LIG    1        4.198  12.804   9.289  0.00  0.00    -0.200 C 
ENDBRANCH  15  17
ENDBRANCH  14  15
ENDBRANCH  11  14
ENDBRANCH  10  11
ENDBRANCH   9  10
ENDBRANCH   1   9
BRANCH   6  18
ATOM     18  C   LIG    1       -1.007   2.648   4.670  0.00  0.00    +0.370 C 
BRANCH  18  19
ATOM     19  N   LIG    1       -1.163   2.252   3.268  0.00  0.00    -0.380 N 
ATOM     20  N   LIG    1       -0.147   1.827   2.396  0.00  0.00    -0.320 NA
ATOM     21  C   LIG    1       -0.718   1.572   1.248  0.00  0.00    +0.230 A 
ATOM     22  N   LIG    1       -2.024   1.817   1.350  0.00  0.00    -0.550 NA
ATOM     23  C   LIG    1       -0.013   1.086   0.008  0.00  0.00    +0.190 C 
ATOM     24  C   LIG    1       -2.306   2.222   2.562  0.00  0.00    +0.300 A 
ATOM     25  C   LIG    1       -3.673   2.596   3.074  0.00  0.00    +0.200 C 
ENDBRANCH  18  19
ENDBRANCH   6  18
TORSDOF 8
