REMARK  Name = ZINCkj000018RDuc.0
REMARK                            x       y       z     vdW  Elec       q    Type
REMARK                         _______ _______ _______ _____ _____    ______ ____
ROOT
ATOM      1  C   LIG    1       -1.384  -2.502   1.319  0.00  0.00    +0.060 C 
ATOM      2  C   LIG    1       -1.391  -1.981  -0.119  0.00  0.00    +0.270 C 
ENDROOT
BRANCH   2   3
ATOM      3  C   LIG    1       -2.635  -2.462  -0.822  0.00  0.00    -0.050 A 
ATOM      4  C   LIG    1       -2.727  -3.507  -1.675  0.00  0.00    -0.020 A 
ATOM      5  C   LIG    1       -4.101  -3.526  -2.045  0.00  0.00    +0.070 A 
ATOM      6  N   LIG    1       -4.665  -2.534  -1.403  0.00  0.00    -0.350 NA
ATOM      7  O   LIG    1       -3.865  -1.940  -0.717  0.00  0.00    +0.120 OA
BRANCH   5   8
ATOM      8  C   LIG    1       -4.762  -4.479  -2.972  0.00  0.00    -0.040 A 
ATOM      9  C   LIG    1       -4.019  -5.485  -3.587  0.00  0.00    +0.040 A 
ATOM     10  C   LIG    1       -4.639  -6.372  -4.443  0.00  0.00    +0.010 A 
ATOM     11  C   LIG    1       -5.994  -6.256  -4.700  0.00  0.00    +0.030 A 
ATOM     12  C   LIG    1       -6.734  -5.256  -4.097  0.00  0.00    +0.010 A 
ATOM     13  C   LIG    1       -6.125  -4.367  -3.235  0.00  0.00    +0.040 A 
ENDBRANCH   5   8
ENDBRANCH   2   3
BRANCH   2  14
ATOM     14  N   LIG    1       -1.372  -0.512  -0.108  0.00  0.00    -0.680 NA
ATOM     15  H   LIG    1       -1.831  -0.138  -0.925  0.00  0.00    +0.350 HD
BRANCH  14  16
ATOM     16  C   LIG    1        0.002  -0.004   0.002  0.00  0.00    +0.200 C 
BRANCH  16  17
ATOM     17  C   LIG    1       -0.019   1.526   0.010  0.00  0.00    +0.100 C 
ATOM     18  C   LIG    1       -0.205   2.151  -1.384  0.00  0.00    +0.280 C 
ATOM     19  N   LIG    1        0.827   3.128  -0.975  0.00  0.00    -0.530 N 
ATOM     20  H   LIG    1        1.472   3.351  -1.719  0.00  0.00    +0.430 HD
ATOM     21  H   LIG    1        0.439   3.951  -0.539  0.00  0.00    +0.450 HD
ATOM     22  C   LIG    1        1.382   2.164   0.001  0.00  0.00    +0.340 C 
BRANCH  17  23
ATOM     23  O   LIG    1       -0.890   2.066   1.006  0.00  0.00    -0.520 OA
ATOM     24  H   LIG    1       -1.780   1.687   0.997  0.00  0.00    +0.420 HD
ENDBRANCH  17  23
ENDBRANCH  16  17
ENDBRANCH  14  16
ENDBRANCH   2  14
TORSDOF 6
