REMARK  Name = ZINCrD00000F5LEI.0
REMARK                            x       y       z     vdW  Elec       q    Type
REMARK                         _______ _______ _______ _____ _____    ______ ____
ROOT
ATOM      1  N   LIG    1        3.270  10.020   0.049  0.00  0.00    -0.570 N 
ATOM      2  C   LIG    1        2.978  10.652   1.192  0.00  0.00    +0.530 C 
ATOM      3  S   LIG    1        2.635  12.339   0.773  0.00  0.00    -0.000 S 
ATOM      4  C   LIG    1        2.906  12.112  -0.966  0.00  0.00    -0.240 C 
ATOM      5  C   LIG    1        2.813  13.038  -1.953  0.00  0.00    +0.250 C 
ATOM      6  O   LIG    1        2.954  10.162   2.305  0.00  0.00    -0.420 OA
ATOM      7  C   LIG    1        3.260  10.693  -1.089  0.00  0.00    +0.560 C 
ATOM      8  O   LIG    1        3.521  10.174  -2.159  0.00  0.00    -0.450 OA
ENDROOT
BRANCH   5   9
ATOM      9  C   LIG    1        2.897  12.623  -3.360  0.00  0.00    -0.120 A 
ATOM     10  C   LIG    1        3.607  13.401  -4.282  0.00  0.00    +0.090 A 
ATOM     11  C   LIG    1        3.687  13.002  -5.598  0.00  0.00    -0.030 A 
ATOM     12  C   LIG    1        3.056  11.839  -6.013  0.00  0.00    +0.130 A 
ATOM     13  C   LIG    1        2.346  11.066  -5.107  0.00  0.00    -0.020 A 
ATOM     14  F   LIG    1        3.133  11.458  -7.307  0.00  0.00    -0.130 F 
ATOM     15  C   LIG    1        2.263  11.450  -3.786  0.00  0.00    +0.120 A 
ENDBRANCH   5   9
BRANCH   1  16
ATOM     16  C   LIG    1        3.603   8.593   0.060  0.00  0.00    +0.310 C 
BRANCH  16  17
ATOM     17  C   LIG    1        2.325   7.769  -0.111  0.00  0.00    +0.270 C 
BRANCH  17  20
ATOM     18  O   LIG    1        0.528   5.775  -0.369  0.00  0.00    -0.520 OA
ATOM     19  C   LIG    1        1.684   5.422  -0.237  0.00  0.00    +0.570 C 
ATOM     20  N   LIG    1        2.659   6.343  -0.100  0.00  0.00    -0.720 N 
ATOM     21  H   LIG    1        3.581   6.061   0.005  0.00  0.00    +0.400 HD
BRANCH  19  22
ATOM     22  C   LIG    1        2.021   3.983  -0.226  0.00  0.00    -0.190 A 
ATOM     23  C   LIG    1        1.017   3.016  -0.367  0.00  0.00    +0.160 A 
ATOM     24  C   LIG    1        1.385   1.683  -0.356  0.00  0.00    +0.000 A 
ATOM     25  C   LIG    1        2.719   1.349  -0.197  0.00  0.00    +0.200 A 
ATOM     26  N   LIG    1        3.644   2.283  -0.065  0.00  0.00    -0.480 NA
ATOM     27 CL   LIG    1        3.185  -0.323  -0.175  0.00  0.00    -0.010 Cl
ATOM     28  C   LIG    1        3.344   3.565  -0.075  0.00  0.00    +0.330 A 
ENDBRANCH  19  22
ENDBRANCH  17  20
ENDBRANCH  16  17
ENDBRANCH   1  16
TORSDOF 5
