REMARK  Name = ZINCvU00000008jj.0
REMARK                            x       y       z     vdW  Elec       q    Type
REMARK                         _______ _______ _______ _____ _____    ______ ____
ROOT
ATOM      1  C   LIG    1       -3.600   1.697   0.130  0.00  0.00    +0.600 C 
ATOM      2  N   LIG    1       -2.428   1.042   0.019  0.00  0.00    -0.670 N 
ATOM      3  H   LIG    1       -2.418   0.075  -0.054  0.00  0.00    +0.410 HD
ATOM      4  O   LIG    1       -3.619   2.914   0.137  0.00  0.00    -0.500 OA
ENDROOT
BRANCH   2   5
ATOM      5  C   LIG    1       -1.224   1.757   0.009  0.00  0.00    +0.150 A 
ATOM      6  C   LIG    1       -0.090   1.214   0.598  0.00  0.00    +0.010 A 
ATOM      7  C   LIG    1        1.100   1.919   0.596  0.00  0.00    +0.060 A 
ATOM      8  C   LIG    1        1.163   3.167   0.000  0.00  0.00    +0.070 A 
ATOM      9  O   LIG    1        2.327   3.871  -0.010  0.00  0.00    -0.300 OA
ATOM     10  C   LIG    1        2.565   4.702  -1.149  0.00  0.00    +0.190 C 
ATOM     11  C   LIG    1        1.325   5.499  -1.463  0.00  0.00    +0.490 C 
ATOM     12  N   LIG    1        0.108   4.978  -1.196  0.00  0.00    -0.660 N 
ATOM     13  H   LIG    1       -0.698   5.471  -1.415  0.00  0.00    +0.420 HD
ATOM     14  O   LIG    1        1.419   6.605  -1.952  0.00  0.00    -0.500 OA
ATOM     15  C   LIG    1        3.723   5.657  -0.850  0.00  0.00    +0.100 C 
ATOM     16  C   LIG    1        0.027   3.712  -0.597  0.00  0.00    +0.110 A 
ATOM     17  C   LIG    1       -1.164   3.006  -0.595  0.00  0.00    +0.030 A 
ENDBRANCH   2   5
BRANCH   1  20
ATOM     18  C   LIG    1       -6.366   2.963   0.404  0.00  0.00    +0.180 C 
ATOM     19  C   LIG    1       -6.107   1.479   0.366  0.00  0.00    +0.170 A 
ATOM     20  C   LIG    1       -4.853   0.945   0.242  0.00  0.00    -0.320 A 
ATOM     21  S   LIG    1       -5.013  -0.810   0.250  0.00  0.00    +0.200 S 
ATOM     22  C   LIG    1       -6.709  -0.666   0.407  0.00  0.00    +0.100 A 
ATOM     23  N   LIG    1       -7.059   0.589   0.444  0.00  0.00    -0.470 NA
BRANCH  22  24
ATOM     24  C   LIG    1       -7.647  -1.806   0.488  0.00  0.00    -0.010 A 
ATOM     25  C   LIG    1       -9.018  -1.577   0.620  0.00  0.00    +0.080 A 
ATOM     26  C   LIG    1       -9.888  -2.645   0.691  0.00  0.00    +0.080 A 
ATOM     27  C   LIG    1       -9.404  -3.940   0.641  0.00  0.00    -0.160 A 
ATOM     28  C   LIG    1       -8.046  -4.174   0.515  0.00  0.00    +0.080 A 
ATOM     29  C   LIG    1       -7.165  -3.115   0.438  0.00  0.00    +0.040 A 
BRANCH  27  30
ATOM     30  C   LIG    1      -10.361  -5.102   0.724  0.00  0.00    +0.510 C 
ATOM     31  F   LIG    1       -9.840  -6.187   0.010  0.00  0.00    -0.170 F 
ATOM     32  F   LIG    1      -11.594  -4.731   0.177  0.00  0.00    -0.170 F 
ATOM     33  F   LIG    1      -10.536  -5.466   2.064  0.00  0.00    -0.170 F 
ENDBRANCH  27  30
ENDBRANCH  22  24
ENDBRANCH   1  20
TORSDOF 4
