REMARK  Name = ZINCrD00000l4it5.0
REMARK                            x       y       z     vdW  Elec       q    Type
REMARK                         _______ _______ _______ _____ _____    ______ ____
ROOT
ATOM      1  C   LIG    1       -4.196  -1.359   3.736  0.00  0.00    +0.110 C 
ATOM      2  C   LIG    1       -3.217  -0.214   3.467  0.00  0.00    +0.170 C 
ATOM      3  N   LIG    1       -3.936   1.067   3.359  0.00  0.00    -0.720 N 
ATOM      4  H   LIG    1       -4.471   1.492   4.047  0.00  0.00    +0.440 HD
ATOM      5  C   LIG    1       -3.705   1.534   2.118  0.00  0.00    +0.710 C 
ATOM      6  N   LIG    1       -2.925   0.717   1.402  0.00  0.00    -0.570 N 
ATOM      7  O   LIG    1       -4.155   2.581   1.696  0.00  0.00    -0.530 OA
ATOM      8  C   LIG    1       -2.569  -0.375   2.106  0.00  0.00    +0.540 C 
ATOM      9  O   LIG    1       -1.874  -1.295   1.731  0.00  0.00    -0.450 OA
ENDROOT
BRANCH   2  10
ATOM     10  C   LIG    1       -2.173  -0.146   4.552  0.00  0.00    -0.080 A 
ATOM     11  C   LIG    1       -1.011  -0.885   4.438  0.00  0.00    +0.070 A 
ATOM     12  C   LIG    1       -0.049  -0.821   5.429  0.00  0.00    +0.030 A 
ATOM     13  C   LIG    1       -0.254  -0.024   6.542  0.00  0.00    +0.080 A 
ATOM     14  C   LIG    1       -1.423   0.714   6.658  0.00  0.00    +0.070 A 
ATOM     15  F   LIG    1       -1.625   1.493   7.743  0.00  0.00    -0.120 F 
ATOM     16  F   LIG    1        0.683   0.036   7.513  0.00  0.00    -0.120 F 
ATOM     17  C   LIG    1       -2.381   0.652   5.662  0.00  0.00    +0.050 A 
ENDBRANCH   2  10
BRANCH   6  18
ATOM     18  C   LIG    1       -2.512   0.975   0.020  0.00  0.00    +0.410 C 
BRANCH  18  19
ATOM     19  C   LIG    1       -1.220   1.749   0.017  0.00  0.00    -0.100 A 
ATOM     20  C   LIG    1       -0.013   1.076   0.008  0.00  0.00    +0.070 A 
ATOM     21  C   LIG    1        1.177   1.783   0.000  0.00  0.00    -0.020 A 
ATOM     22  C   LIG    1        1.160   3.168   0.007  0.00  0.00    +0.050 A 
ATOM     23  O   LIG    1        2.171   4.086   0.003  0.00  0.00    -0.300 OA
ATOM     24  C   LIG    1        1.568   5.323   0.427  0.00  0.00    +0.440 C 
ATOM     25  O   LIG    1        0.192   5.188   0.027  0.00  0.00    -0.300 OA
ATOM     26  C   LIG    1       -0.057   3.846   0.022  0.00  0.00    +0.040 A 
ATOM     27 CL   LIG    1        2.691   0.933  -0.019  0.00  0.00    -0.040 Cl
ATOM     28  C   LIG    1       -1.243   3.132   0.029  0.00  0.00    +0.080 A 
ENDBRANCH  18  19
ENDBRANCH   6  18
TORSDOF 3
