REMARK  Name = ZINCpe000000U6oE.0
REMARK                            x       y       z     vdW  Elec       q    Type
REMARK                         _______ _______ _______ _____ _____    ______ ____
ROOT
ATOM      1  C   LIG    1        2.064  -2.696  -1.185  0.00  0.00    +0.530 C 
ATOM      2  N   LIG    1        2.134  -4.019  -1.430  0.00  0.00    -0.610 N 
ATOM      3  C   LIG    1        1.331  -4.968  -0.648  0.00  0.00    +0.270 C 
ATOM      4  C   LIG    1        0.493  -5.814  -1.622  0.00  0.00    +0.300 C 
ATOM      5  N   LIG    1        1.379  -6.334  -2.672  0.00  0.00    -0.990 NA
ATOM      6  C   LIG    1        2.187  -5.385  -3.451  0.00  0.00    +0.300 C 
ATOM      7  C   LIG    1        3.021  -4.539  -2.481  0.00  0.00    +0.280 C 
ATOM      8  O   LIG    1        2.666  -1.915  -1.892  0.00  0.00    -0.530 OA
ENDROOT
BRANCH   5   9
ATOM      9  S   LIG    1        1.466  -7.960  -2.973  0.00  0.00    +2.720 S 
ATOM     10  O   LIG    1        1.921  -8.097  -4.312  0.00  0.00    -0.920 OA
ATOM     11  O   LIG    1        0.247  -8.520  -2.505  0.00  0.00    -0.920 OA
BRANCH   9  12
ATOM     12  C   LIG    1        2.740  -8.612  -1.945  0.00  0.00    -0.310 A 
ATOM     13  N   LIG    1        4.001  -8.719  -2.274  0.00  0.00    -0.210 NA
ATOM     14  N   LIG    1        4.662  -9.282  -1.170  0.00  0.00    -0.460 N 
ATOM     15  H   LIG    1        5.608  -9.486  -1.100  0.00  0.00    +0.450 HD
ATOM     16  C   LIG    1        3.722  -9.489  -0.231  0.00  0.00    +0.500 A 
ATOM     17  N   LIG    1        2.574  -9.083  -0.710  0.00  0.00    -0.470 NA
ENDBRANCH   9  12
ENDBRANCH   5   9
BRANCH   1  18
ATOM     18  C   LIG    1        1.237  -2.186  -0.033  0.00  0.00    +0.030 C 
BRANCH  18  19
ATOM     19  C   LIG    1       -0.193  -2.017  -0.477  0.00  0.00    -0.080 A 
ATOM     20  C   LIG    1       -1.200  -2.724   0.153  0.00  0.00    +0.000 A 
ATOM     21  C   LIG    1       -2.512  -2.568  -0.254  0.00  0.00    +0.010 A 
ATOM     22  C   LIG    1       -2.817  -1.705  -1.290  0.00  0.00    +0.000 A 
ATOM     23  C   LIG    1       -1.809  -1.000  -1.921  0.00  0.00    +0.000 A 
ATOM     24  C   LIG    1       -0.497  -1.155  -1.514  0.00  0.00    +0.020 A 
ENDBRANCH  18  19
BRANCH  18  26
ATOM     25  C   LIG    1        1.042  -0.387   1.690  0.00  0.00    +0.020 C 
ATOM     26  C   LIG    1        1.789  -0.837   0.433  0.00  0.00    +0.050 C 
ENDBRANCH  18  26
ENDBRANCH   1  18
TORSDOF 5
