REMARK  Name = ZINCrD000000CzCY.0
REMARK                            x       y       z     vdW  Elec       q    Type
REMARK                         _______ _______ _______ _____ _____    ______ ____
ROOT
ATOM      1  O   LIG    1       -0.938  -6.223  -2.141  0.00  0.00    -0.520 OA
ATOM      2  C   LIG    1       -0.456  -5.232  -1.625  0.00  0.00    +0.600 C 
ATOM      3  N   LIG    1       -1.250  -4.199  -1.278  0.00  0.00    -0.620 N 
ATOM      4  C   LIG    1       -2.674  -4.187  -1.645  0.00  0.00    +0.310 C 
ATOM      5  C   LIG    1       -3.523  -4.232  -0.368  0.00  0.00    +0.120 C 
ATOM      6  C   LIG    1       -2.958  -3.249   0.627  0.00  0.00    +0.110 A 
ATOM      7  C   LIG    1       -1.708  -2.729   0.566  0.00  0.00    -0.250 A 
ATOM      8  C   LIG    1       -1.542  -1.868   1.660  0.00  0.00    +0.130 A 
ATOM      9  N   LIG    1       -2.663  -1.877   2.353  0.00  0.00    -0.270 NA
ATOM     10  N   LIG    1       -3.567  -2.736   1.712  0.00  0.00    -0.460 N 
ATOM     11  H   LIG    1       -4.472  -2.930   2.002  0.00  0.00    +0.440 HD
ATOM     12  C   LIG    1       -0.712  -3.054  -0.520  0.00  0.00    +0.340 C 
ENDROOT
BRANCH   2  13
ATOM     13  C   LIG    1        0.989  -5.161  -1.381  0.00  0.00    -0.060 A 
ATOM     14  C   LIG    1        1.862  -6.230  -1.340  0.00  0.00    +0.070 A 
ATOM     15  C   LIG    1        3.126  -5.711  -1.085  0.00  0.00    -0.220 A 
ATOM     16  C   LIG    1        3.010  -4.359  -0.966  0.00  0.00    +0.060 A 
ATOM     17  C   LIG    1        4.192  -3.463  -0.676  0.00  0.00    +0.090 C 
ATOM     18  C   LIG    1        5.337  -4.351  -0.169  0.00  0.00    +0.230 C 
ATOM     19  O   LIG    1        5.494  -5.477  -1.035  0.00  0.00    -0.380 OA
ATOM     20  C   LIG    1        4.437  -6.443  -0.946  0.00  0.00    +0.290 C 
ATOM     21  N   LIG    1        1.719  -4.015  -1.144  0.00  0.00    -0.530 N 
ATOM     22  H   LIG    1        1.364  -3.113  -1.112  0.00  0.00    +0.420 HD
ENDBRANCH   2  13
BRANCH   8  23
ATOM     23  C   LIG    1       -0.319  -1.091   1.983  0.00  0.00    -0.010 A 
ATOM     24  C   LIG    1       -0.427   0.176   2.553  0.00  0.00    +0.060 A 
ATOM     25  C   LIG    1        0.713   0.895   2.852  0.00  0.00    +0.030 A 
ATOM     26  C   LIG    1        1.961   0.359   2.587  0.00  0.00    -0.030 A 
ATOM     27  C   LIG    1        2.073  -0.899   2.022  0.00  0.00    +0.030 A 
ATOM     28 CL   LIG    1        3.391   1.268   2.966  0.00  0.00    -0.060 Cl
ATOM     29  C   LIG    1        0.940  -1.626   1.719  0.00  0.00    +0.040 A 
ENDBRANCH   8  23
TORSDOF 2
