REMARK  Name = ZINCvU000000063o.0
REMARK                            x       y       z     vdW  Elec       q    Type
REMARK                         _______ _______ _______ _____ _____    ______ ____
ROOT
ATOM      1  C   LIG    1       -6.278   2.081   0.165  0.00  0.00    +0.160 A 
ATOM      2  C   LIG    1       -7.400   1.272   0.082  0.00  0.00    -0.060 A 
ATOM      3  C   LIG    1       -7.258  -0.101  -0.003  0.00  0.00    +0.160 A 
ATOM      4  C   LIG    1       -5.999  -0.671  -0.006  0.00  0.00    -0.690 A 
ATOM      5  C   LIG    1       -4.874   0.129   0.071  0.00  0.00    +0.170 A 
ATOM      6  C   LIG    1       -5.008   1.507   0.162  0.00  0.00    +0.100 A 
ENDROOT
BRANCH   6   7
ATOM      7  N   LIG    1       -3.870   2.319   0.245  0.00  0.00    -0.660 N 
ATOM      8  H   LIG    1       -3.922   3.253  -0.011  0.00  0.00    +0.420 HD
ATOM      9  C   LIG    1       -2.704   1.803   0.681  0.00  0.00    +0.560 C 
ATOM     10  O   LIG    1       -2.663   0.661   1.097  0.00  0.00    -0.480 OA
BRANCH   9  11
ATOM     11  C   LIG    1       -1.477   2.623   0.652  0.00  0.00    -0.110 A 
ATOM     12  C   LIG    1       -1.523   3.937   0.179  0.00  0.00    +0.080 A 
ATOM     13  C   LIG    1       -0.372   4.697   0.149  0.00  0.00    +0.070 A 
ATOM     14  C   LIG    1        0.829   4.160   0.594  0.00  0.00    +0.120 A 
ATOM     15  C   LIG    1        0.879   2.860   1.069  0.00  0.00    +0.040 A 
ATOM     16  F   LIG    1        1.953   4.909   0.563  0.00  0.00    -0.110 F 
ATOM     17  F   LIG    1       -0.413   5.966  -0.313  0.00  0.00    -0.120 F 
ATOM     18  C   LIG    1       -0.266   2.090   1.103  0.00  0.00    +0.030 A 
ATOM     19 CL   LIG    1       -0.202   0.461   1.700  0.00  0.00    +0.000 Cl
ENDBRANCH   9  11
ENDBRANCH   6   7
BRANCH   4  20
ATOM     20  S   LIG    1       -5.827  -2.421  -0.115  0.00  0.00    +2.690 S 
ATOM     21  O   LIG    1       -7.083  -2.971   0.258  0.00  0.00    -0.950 OA
ATOM     22  O   LIG    1       -4.610  -2.746   0.543  0.00  0.00    -0.940 OA
BRANCH  20  23
ATOM     23  N   LIG    1       -5.609  -2.793  -1.713  0.00  0.00    -1.060 N 
ATOM     24  H   LIG    1       -6.282  -3.305  -2.188  0.00  0.00    +0.430 HD
BRANCH  23  25
ATOM     25  C   LIG    1       -4.455  -2.370  -2.378  0.00  0.00    +0.140 A 
ATOM     26  C   LIG    1       -4.518  -1.314  -3.278  0.00  0.00    +0.030 A 
ATOM     27  C   LIG    1       -3.374  -0.895  -3.929  0.00  0.00    +0.050 A 
ATOM     28  C   LIG    1       -2.169  -1.532  -3.694  0.00  0.00    -0.080 A 
ATOM     29  C   LIG    1       -2.104  -2.588  -2.802  0.00  0.00    +0.060 A 
ATOM     30 BR   LIG    1       -0.607  -0.960  -4.593  0.00  0.00    -0.040 Br
ATOM     31  C   LIG    1       -3.243  -3.008  -2.144  0.00  0.00    +0.060 A 
ENDBRANCH  23  25
ENDBRANCH  20  23
ENDBRANCH   4  20
BRANCH   1  33
ATOM     32  C   LIG    1       -7.748   3.949   0.246  0.00  0.00    +0.250 C 
ATOM     33  O   LIG    1       -6.416   3.431   0.248  0.00  0.00    -0.310 OA
ENDBRANCH   1  33
TORSDOF 6
