REMARK  Name = ZINCfl000001oAcL.0
REMARK                            x       y       z     vdW  Elec       q    Type
REMARK                         _______ _______ _______ _____ _____    ______ ____
ROOT
ATOM      1  C   LIG    1        1.552  -1.805  -0.022  0.00  0.00    +0.140 A 
ATOM      2  C   LIG    1        0.460  -2.664  -0.011  0.00  0.00    -0.090 A 
ATOM      3  C   LIG    1        0.653  -4.027  -0.026  0.00  0.00    +0.090 A 
ATOM      4  C   LIG    1        1.952  -4.547  -0.041  0.00  0.00    -0.180 A 
ATOM      5  C   LIG    1        3.049  -3.679  -0.046  0.00  0.00    +0.100 A 
ATOM      6  C   LIG    1        2.846  -2.317  -0.038  0.00  0.00    -0.090 A 
ATOM      7 CL   LIG    1        4.205  -1.237  -0.045  0.00  0.00    -0.080 Cl
ENDROOT
BRANCH   4   8
ATOM      8  C   LIG    1        2.163  -6.004  -0.049  0.00  0.00    +0.530 C 
ATOM      9  O   LIG    1        1.203  -6.762  -0.044  0.00  0.00    -0.690 OA
ATOM     10  O   LIG    1        3.300  -6.457  -0.062  0.00  0.00    -0.690 OA
ENDBRANCH   4   8
BRANCH   1  11
ATOM     11  O   LIG    1        1.356  -0.462  -0.013  0.00  0.00    -0.270 OA
BRANCH  11  12
ATOM     12  C   LIG    1        0.002  -0.004   0.002  0.00  0.00    +0.110 C 
BRANCH  12  14
ATOM     13  O   LIG    1        1.029   2.127   0.004  0.00  0.00    -0.670 OA
ATOM     14  C   LIG    1       -0.018   1.503   0.010  0.00  0.00    +0.500 C 
ATOM     15  O   LIG    1       -1.082   2.098   0.019  0.00  0.00    -0.700 OA
ENDBRANCH  12  14
ENDBRANCH  11  12
ENDBRANCH   1  11
TORSDOF 4
