REMARK  Name = ZINCqH0000032kKy.0
REMARK                            x       y       z     vdW  Elec       q    Type
REMARK                         _______ _______ _______ _____ _____    ______ ____
ROOT
ATOM      1  N   LIG    1        0.234   1.284   1.976  0.00  0.00    -0.680 N 
ATOM      2  H   LIG    1        1.020   0.753   2.177  0.00  0.00    +0.410 HD
ATOM      3  C   LIG    1       -0.040   1.627   0.701  0.00  0.00    +0.510 C 
ATOM      4  O   LIG    1       -0.964   2.374   0.459  0.00  0.00    -0.510 OA
ENDROOT
BRANCH   1   8
ATOM      5  C   LIG    1       -2.301   2.507   5.053  0.00  0.00    +0.120 A 
ATOM      6  C   LIG    1       -2.825   2.191   3.808  0.00  0.00    -0.060 A 
ATOM      7  C   LIG    1       -1.986   1.786   2.788  0.00  0.00    +0.050 A 
ATOM      8  C   LIG    1       -0.618   1.695   3.010  0.00  0.00    +0.110 A 
ATOM      9  C   LIG    1       -0.095   2.006   4.258  0.00  0.00    +0.030 A 
ATOM     10  C   LIG    1       -0.935   2.416   5.275  0.00  0.00    +0.000 A 
BRANCH   5  11
ATOM     11  O   LIG    1       -3.128   2.905   6.056  0.00  0.00    -0.310 OA
BRANCH  11  13
ATOM     12  C   LIG    1       -5.353   2.918   6.998  0.00  0.00    +0.070 C 
ATOM     13  C   LIG    1       -4.509   3.072   5.731  0.00  0.00    +0.140 C 
ATOM     14  C   LIG    1       -4.729   4.465   5.138  0.00  0.00    +0.020 C 
ENDBRANCH  11  13
ENDBRANCH   5  11
ENDBRANCH   1   8
BRANCH   3  15
ATOM     15  C   LIG    1        0.803   1.081  -0.423  0.00  0.00    +0.120 C 
BRANCH  15  16
ATOM     16  C   LIG    1        0.292   1.614  -1.737  0.00  0.00    -0.100 A 
ATOM     17  C   LIG    1       -0.673   0.914  -2.437  0.00  0.00    +0.050 A 
ATOM     18  C   LIG    1       -1.147   1.402  -3.639  0.00  0.00    +0.000 A 
ATOM     19  C   LIG    1       -0.644   2.591  -4.150  0.00  0.00    +0.170 A 
ATOM     20  C   LIG    1        0.330   3.289  -3.448  0.00  0.00    -0.030 A 
ATOM     21  C   LIG    1        0.795   2.798  -2.243  0.00  0.00    +0.040 A 
BRANCH  19  22
ATOM     22  N   LIG    1       -1.117   3.085  -5.371  0.00  0.00    -0.560 N 
ATOM     23  C   LIG    1       -0.741   4.384  -5.940  0.00  0.00    +0.260 C 
ATOM     24  C   LIG    1       -1.803   4.684  -7.021  0.00  0.00    +0.060 C 
ATOM     25  C   LIG    1       -2.277   3.261  -7.400  0.00  0.00    +0.070 C 
ATOM     26  C   LIG    1       -1.970   2.428  -6.176  0.00  0.00    +0.510 C 
ATOM     27  O   LIG    1       -2.429   1.327  -5.951  0.00  0.00    -0.510 OA
ENDBRANCH  19  22
ENDBRANCH  15  16
ENDBRANCH   3  15
TORSDOF 6
