REMARK  Name = ZINCpe000000Uxdz.0
REMARK                            x       y       z     vdW  Elec       q    Type
REMARK                         _______ _______ _______ _____ _____    ______ ____
ROOT
ATOM      1  N   LIG    1        3.112  -3.030   1.075  0.00  0.00    -0.720 N 
ATOM      2  H   LIG    1        2.635  -2.728   1.863  0.00  0.00    +0.400 HD
ATOM      3  C   LIG    1        4.289  -3.674   1.205  0.00  0.00    +0.580 C 
ATOM      4  O   LIG    1        4.888  -4.053   0.217  0.00  0.00    -0.540 OA
ENDROOT
BRANCH   3   5
ATOM      5  C   LIG    1        4.851  -3.917   2.545  0.00  0.00    -0.220 A 
ATOM      6  C   LIG    1        6.049  -4.572   2.691  0.00  0.00    +0.380 A 
ATOM      7  N   LIG    1        6.587  -4.809   3.917  0.00  0.00    -0.510 N 
ATOM      8  C   LIG    1        7.840  -5.571   3.922  0.00  0.00    +0.340 C 
ATOM      9  C   LIG    1        8.775  -5.056   5.021  0.00  0.00    -0.380 C 
ATOM     10  S   LIG    1        7.878  -5.208   6.598  0.00  0.00    +2.550 S 
ATOM     11  N   LIG    1        6.432  -4.477   6.268  0.00  0.00    -0.960 NA
ATOM     12  O   LIG    1        7.542  -6.564   6.859  0.00  0.00    -0.960 OA
ATOM     13  O   LIG    1        8.472  -4.390   7.597  0.00  0.00    -0.940 OA
ATOM     14  C   LIG    1        5.962  -4.361   5.048  0.00  0.00    +0.520 A 
ATOM     15  C   LIG    1        4.703  -3.694   4.948  0.00  0.00    +0.020 A 
ATOM     16  C   LIG    1        4.143  -3.461   3.743  0.00  0.00    +0.140 A 
ENDBRANCH   3   5
BRANCH   1  17
ATOM     17  C   LIG    1        2.554  -2.788  -0.258  0.00  0.00    +0.320 C 
BRANCH  17  22
ATOM     18  C   LIG    1        0.010  -0.004   0.001  0.00  0.00    +0.210 A 
ATOM     19  C   LIG    1       -1.173  -0.723   0.118  0.00  0.00    -0.060 A 
ATOM     20  C   LIG    1       -1.143  -2.104   0.104  0.00  0.00    +0.050 A 
ATOM     21  C   LIG    1        0.062  -2.770  -0.015  0.00  0.00    -0.040 A 
ATOM     22  C   LIG    1        1.242  -2.057  -0.127  0.00  0.00    -0.070 A 
ATOM     23  C   LIG    1        1.219  -0.677  -0.119  0.00  0.00    -0.060 A 
BRANCH  18  25
ATOM     24  C   LIG    1        1.238   2.149   0.019  0.00  0.00    +0.280 C 
ATOM     25  N   LIG    1       -0.017   1.393   0.010  0.00  0.00    -0.640 N 
ATOM     26  C   LIG    1       -1.299   2.101   0.003  0.00  0.00    +0.280 C 
ENDBRANCH  18  25
ENDBRANCH  17  22
ENDBRANCH   1  17
TORSDOF 4
