REMARK  Name = ZINCrH00000No4J3.0
REMARK                            x       y       z     vdW  Elec       q    Type
REMARK                         _______ _______ _______ _____ _____    ______ ____
ROOT
ATOM      1  N   LIG    1       -0.821   3.447   1.470  0.00  0.00    -0.700 N 
ATOM      2  H   LIG    1       -0.090   3.999   1.150  0.00  0.00    +0.400 HD
ATOM      3  C   LIG    1       -1.542   3.837   2.540  0.00  0.00    +0.600 C 
ATOM      4  O   LIG    1       -2.459   3.145   2.941  0.00  0.00    -0.530 OA
ENDROOT
BRANCH   3   5
ATOM      5  C   LIG    1       -1.221   5.098   3.222  0.00  0.00    -0.230 A 
ATOM      6  C   LIG    1       -0.227   5.972   2.896  0.00  0.00    +0.330 A 
ATOM      7  N   LIG    1       -0.241   7.023   3.751  0.00  0.00    -0.570 N 
ATOM      8  H   LIG    1        0.372   7.774   3.716  0.00  0.00    +0.430 HD
ATOM      9  C   LIG    1       -1.248   6.872   4.683  0.00  0.00    +0.080 A 
ATOM     10  C   LIG    1       -1.675   7.645   5.756  0.00  0.00    +0.110 A 
ATOM     11  C   LIG    1       -2.737   7.225   6.528  0.00  0.00    -0.020 A 
ATOM     12  C   LIG    1       -3.387   6.033   6.245  0.00  0.00    +0.080 A 
ATOM     13  C   LIG    1       -2.978   5.252   5.186  0.00  0.00    +0.100 A 
ATOM     14  C   LIG    1       -1.907   5.665   4.398  0.00  0.00    -0.020 A 
BRANCH  11  15
ATOM     15  N   LIG    1       -3.187   8.053   7.669  0.00  0.00    +0.030 N 
ATOM     16  O   LIG    1       -2.621   9.100   7.923  0.00  0.00    -0.160 OA
ATOM     17  O   LIG    1       -4.125   7.686   8.354  0.00  0.00    -0.150 OA
ENDBRANCH  11  15
ENDBRANCH   3   5
BRANCH   1  20
ATOM     18  C   LIG    1       -0.018   1.503   0.010  0.00  0.00    +0.000 C 
ATOM     19  C   LIG    1       -1.156   2.198  -0.741  0.00  0.00    +0.030 C 
ATOM     20  C   LIG    1       -1.141   2.190   0.790  0.00  0.00    +0.240 C 
BRANCH  18  25
ATOM     21  C   LIG    1        1.113  -2.070   0.497  0.00  0.00    +0.130 A 
ATOM     22  C   LIG    1        0.033  -2.772  -0.015  0.00  0.00    -0.080 A 
ATOM     23  C   LIG    1       -1.058  -2.089  -0.517  0.00  0.00    +0.060 A 
ATOM     24  C   LIG    1       -1.076  -0.707  -0.504  0.00  0.00    -0.030 A 
ATOM     25  C   LIG    1        0.002  -0.004   0.002  0.00  0.00    -0.010 A 
ATOM     26  C   LIG    1        1.095  -0.682   0.505  0.00  0.00    -0.010 A 
BRANCH  21  27
ATOM     27  O   LIG    1        2.188  -2.739   0.991  0.00  0.00    -0.320 OA
BRANCH  27  29
ATOM     28  C   LIG    1        3.426  -4.739   1.545  0.00  0.00    +0.070 C 
ATOM     29  C   LIG    1        2.138  -4.167   0.951  0.00  0.00    +0.170 C 
ENDBRANCH  27  29
ENDBRANCH  21  27
ENDBRANCH  18  25
ENDBRANCH   1  20
TORSDOF 6
