REMARK  Name = ZINCpk00000FeL8p.0
REMARK                            x       y       z     vdW  Elec       q    Type
REMARK                         _______ _______ _______ _____ _____    ______ ____
ROOT
ATOM      1  C   LIG    1       -3.043   1.270   4.098  0.00  0.00    +0.220 C 
ATOM      2  C   LIG    1       -3.129   2.545   4.978  0.00  0.00    +0.100 C 
ATOM      3  C   LIG    1       -4.594   2.531   5.464  0.00  0.00    +0.260 C 
ATOM      4  N   LIG    1       -5.361   1.712   4.514  0.00  0.00    -0.630 N 
ATOM      5  C   LIG    1       -6.678   1.438   4.597  0.00  0.00    +0.730 C 
ATOM      6  N   LIG    1       -7.405   1.931   5.619  0.00  0.00    -0.690 N 
ATOM      7  H   LIG    1       -6.968   2.421   6.333  0.00  0.00    +0.410 HD
ATOM      8  O   LIG    1       -7.210   0.746   3.751  0.00  0.00    -0.560 OA
ATOM      9  C   LIG    1       -4.451   1.241   3.454  0.00  0.00    +0.300 C 
ENDROOT
BRANCH   6  10
ATOM     10  C   LIG    1       -8.787   1.736   5.650  0.00  0.00    +0.180 A 
ATOM     11  C   LIG    1       -9.371   1.119   6.721  0.00  0.00    +0.060 A 
ATOM     12  C   LIG    1      -10.766   0.933   6.731  0.00  0.00    +0.230 A 
ATOM     13  N   LIG    1      -11.586   0.379   7.614  0.00  0.00    -0.490 NA
ATOM     14  C   LIG    1      -12.839   0.450   7.154  0.00  0.00    +0.210 A 
ATOM     15  C   LIG    1      -12.823   1.061   5.951  0.00  0.00    +0.080 A 
ATOM     16  N   LIG    1      -11.517   1.372   5.671  0.00  0.00    -0.370 N 
ATOM     17  C   LIG    1      -10.924   1.988   4.607  0.00  0.00    +0.240 A 
ATOM     18  C   LIG    1       -9.591   2.181   4.580  0.00  0.00    +0.020 A 
ENDBRANCH   6  10
BRANCH   1  22
ATOM     19  C   LIG    1       -0.644   1.075   1.434  0.00  0.00    +0.180 A 
ATOM     20  N   LIG    1       -0.421   2.253   1.934  0.00  0.00    -0.370 NA
ATOM     21  O   LIG    1       -1.176   2.467   2.859  0.00  0.00    +0.090 OA
ATOM     22  C   LIG    1       -1.971   1.410   3.049  0.00  0.00    +0.150 A 
ATOM     23  N   LIG    1       -1.640   0.518   2.146  0.00  0.00    -0.460 NA
BRANCH  19  25
ATOM     24  C   LIG    1       -0.637   0.795  -1.030  0.00  0.00    +0.040 C 
ATOM     25  C   LIG    1        0.083   0.445   0.274  0.00  0.00    +0.150 C 
ENDBRANCH  19  25
ENDBRANCH   1  22
BRANCH   1  26
ATOM     26  O   LIG    1       -2.822   0.108   4.901  0.00  0.00    -0.520 OA
ATOM     27  H   LIG    1       -2.809  -0.719   4.400  0.00  0.00    +0.400 HD
ENDBRANCH   1  26
TORSDOF 4
