REMARK  Name = ZINCkj000005mk1A.2
REMARK                            x       y       z     vdW  Elec       q    Type
REMARK                         _______ _______ _______ _____ _____    ______ ____
ROOT
ATOM      1  C   LIG    1       -2.665   5.257   0.643  0.00  0.00    -0.310 A 
ATOM      2  C   LIG    1       -2.729   3.947   0.318  0.00  0.00    +0.310 A 
ATOM      3  N   LIG    1       -3.914   3.725  -0.289  0.00  0.00    -0.450 N 
ATOM      4  H   LIG    1       -4.229   2.873  -0.629  0.00  0.00    +0.460 HD
ATOM      5  N   LIG    1       -4.613   4.939  -0.338  0.00  0.00    -0.250 NA
ATOM      6  C   LIG    1       -3.862   5.866   0.218  0.00  0.00    +0.140 A 
ENDROOT
BRANCH   6   7
ATOM      7  C   LIG    1       -4.216   7.298   0.374  0.00  0.00    -0.100 A 
ATOM      8  C   LIG    1       -4.827   7.997  -0.670  0.00  0.00    +0.100 A 
ATOM      9  C   LIG    1       -5.133   9.333  -0.476  0.00  0.00    -0.010 A 
ATOM     10  C   LIG    1       -4.835   9.926   0.737  0.00  0.00    +0.290 A 
ATOM     11  N   LIG    1       -4.263   9.239   1.707  0.00  0.00    -0.470 NA
ATOM     12  C   LIG    1       -3.949   7.968   1.567  0.00  0.00    +0.270 A 
ENDBRANCH   6   7
BRANCH   1  13
ATOM     13  C   LIG    1       -1.517   5.944   1.336  0.00  0.00    +0.360 C 
BRANCH  13  17
ATOM     14  C   LIG    1        1.504   7.531   0.048  0.00  0.00    +0.110 C 
ATOM     15  C   LIG    1        1.010   6.775  -1.207  0.00  0.00    +0.090 C 
ATOM     16  C   LIG    1       -0.130   5.887  -0.649  0.00  0.00    +0.280 C 
ATOM     17  N   LIG    1       -0.775   6.759   0.365  0.00  0.00    -0.390 N 
ATOM     18  H   LIG    1       -1.396   7.415  -0.085  0.00  0.00    +0.430 HD
ATOM     19  F   LIG    1        2.625   6.893   0.590  0.00  0.00    -0.170 F 
ATOM     20  C   LIG    1        0.327   7.478   1.039  0.00  0.00    +0.270 C 
BRANCH  14  21
ATOM     21  C   LIG    1        1.839   8.982  -0.305  0.00  0.00    +0.200 C 
BRANCH  21  22
ATOM     22  O   LIG    1        2.889   9.007  -1.274  0.00  0.00    -0.560 OA
ATOM     23  H   LIG    1        3.154   9.896  -1.544  0.00  0.00    +0.400 HD
ENDBRANCH  21  22
ENDBRANCH  14  21
ENDBRANCH  13  17
ENDBRANCH   1  13
TORSDOF 5
