REMARK  Name = ZINCkj000005mk1A.1
REMARK                            x       y       z     vdW  Elec       q    Type
REMARK                         _______ _______ _______ _____ _____    ______ ____
ROOT
ATOM      1  C   LIG    1        3.799   1.472  -0.795  0.00  0.00    -0.310 A 
ATOM      2  C   LIG    1        4.786   0.549  -0.803  0.00  0.00    +0.310 A 
ATOM      3  N   LIG    1        4.493  -0.381   0.131  0.00  0.00    -0.450 N 
ATOM      4  H   LIG    1        5.026  -1.163   0.342  0.00  0.00    +0.460 HD
ATOM      5  N   LIG    1        3.286  -0.019   0.744  0.00  0.00    -0.250 NA
ATOM      6  C   LIG    1        2.866   1.099   0.191  0.00  0.00    +0.140 A 
ENDROOT
BRANCH   6   7
ATOM      7  C   LIG    1        1.625   1.833   0.541  0.00  0.00    -0.100 A 
ATOM      8  C   LIG    1        0.808   2.365  -0.460  0.00  0.00    +0.070 A 
ATOM      9  C   LIG    1       -0.337   3.045  -0.081  0.00  0.00    -0.020 A 
ATOM     10  C   LIG    1       -0.638   3.167   1.263  0.00  0.00    +0.290 A 
ATOM     11  N   LIG    1        0.153   2.654   2.186  0.00  0.00    -0.470 NA
ATOM     12  C   LIG    1        1.255   2.003   1.874  0.00  0.00    +0.300 A 
ENDBRANCH   6   7
BRANCH   1  13
ATOM     13  C   LIG    1        3.714   2.688  -1.682  0.00  0.00    +0.360 C 
BRANCH  13  17
ATOM     14  C   LIG    1        4.849   6.144  -1.041  0.00  0.00    +0.110 C 
ATOM     15  C   LIG    1        5.848   5.317  -0.205  0.00  0.00    +0.090 C 
ATOM     16  C   LIG    1        5.480   3.844  -0.484  0.00  0.00    +0.280 C 
ATOM     17  N   LIG    1        4.056   3.886  -0.905  0.00  0.00    -0.400 N 
ATOM     18  H   LIG    1        3.453   3.969  -0.100  0.00  0.00    +0.430 HD
ATOM     19  F   LIG    1        4.073   6.956  -0.206  0.00  0.00    -0.170 F 
ATOM     20  C   LIG    1        3.960   5.102  -1.754  0.00  0.00    +0.280 C 
BRANCH  14  21
ATOM     21  C   LIG    1        5.596   6.999  -2.067  0.00  0.00    +0.210 C 
BRANCH  21  22
ATOM     22  O   LIG    1        6.461   7.912  -1.388  0.00  0.00    -0.560 OA
ATOM     23  H   LIG    1        6.967   8.487  -1.978  0.00  0.00    +0.400 HD
ENDBRANCH  21  22
ENDBRANCH  14  21
ENDBRANCH  13  17
ENDBRANCH   1  13
TORSDOF 5
