REMARK  Name = ZINCrH000004kUTI.0
REMARK                            x       y       z     vdW  Elec       q    Type
REMARK                         _______ _______ _______ _____ _____    ______ ____
ROOT
ATOM      1  C   LIG    1       -0.844   1.579  -1.002  0.00  0.00    +0.550 C 
ATOM      2  N   LIG    1        0.201   1.061  -0.327  0.00  0.00    -0.600 N 
ATOM      3  C   LIG    1        1.411   1.862  -0.124  0.00  0.00    +0.280 C 
ATOM      4  O   LIG    1       -1.860   0.927  -1.143  0.00  0.00    -0.480 OA
ENDROOT
BRANCH   1   8
ATOM      5  C   LIG    1       -0.590   5.499  -2.637  0.00  0.00    -0.110 A 
ATOM      6  C   LIG    1       -1.834   4.963  -2.297  0.00  0.00    +0.080 A 
ATOM      7  C   LIG    1       -1.916   3.694  -1.768  0.00  0.00    +0.060 A 
ATOM      8  C   LIG    1       -0.756   2.943  -1.571  0.00  0.00    -0.090 A 
ATOM      9  C   LIG    1        0.488   3.480  -1.905  0.00  0.00    +0.040 A 
ATOM     10  C   LIG    1        0.570   4.748  -2.440  0.00  0.00    +0.070 A 
BRANCH   5  11
ATOM     11  C   LIG    1       -0.502   6.862  -3.205  0.00  0.00    +0.510 C 
ATOM     12  O   LIG    1       -1.511   7.515  -3.376  0.00  0.00    -0.500 OA
BRANCH  11  14
ATOM     13  C   LIG    1        0.709   8.721  -4.085  0.00  0.00    +0.290 C 
ATOM     14  O   LIG    1        0.698   7.378  -3.533  0.00  0.00    -0.350 OA
ENDBRANCH  11  14
ENDBRANCH   5  11
ENDBRANCH   1   8
BRANCH   2  15
ATOM     15  C   LIG    1        0.130  -0.304   0.198  0.00  0.00    +0.360 C 
BRANCH  15  16
ATOM     16  C   LIG    1       -0.168  -0.260   1.674  0.00  0.00    -0.090 A 
ATOM     17  C   LIG    1        0.865  -0.318   2.590  0.00  0.00    +0.020 A 
ATOM     18  C   LIG    1        0.593  -0.277   3.945  0.00  0.00    -0.010 A 
ATOM     19  C   LIG    1       -0.714  -0.179   4.388  0.00  0.00    +0.010 A 
ATOM     20  C   LIG    1       -1.751  -0.120   3.478  0.00  0.00    -0.030 A 
ATOM     21  C   LIG    1       -1.480  -0.156   2.116  0.00  0.00    +0.110 A 
BRANCH  21  22
ATOM     22  N   LIG    1       -2.527  -0.092   1.193  0.00  0.00    -0.480 N 
ATOM     23  C   LIG    1       -3.341   1.113   1.403  0.00  0.00    +0.170 C 
ATOM     24  C   LIG    1       -4.384   1.225   0.288  0.00  0.00    +0.030 C 
ATOM     25  C   LIG    1       -5.272  -0.023   0.300  0.00  0.00    -0.010 C 
ATOM     26  C   LIG    1       -4.395  -1.266   0.129  0.00  0.00    +0.030 C 
ATOM     27  C   LIG    1       -3.351  -1.306   1.247  0.00  0.00    +0.170 C 
ENDBRANCH  21  22
ENDBRANCH  15  16
ENDBRANCH   2  15
TORSDOF 6
