REMARK  Name = ZINCrD000000fuSt.0
REMARK                            x       y       z     vdW  Elec       q    Type
REMARK                         _______ _______ _______ _____ _____    ______ ____
ROOT
ATOM      1  S   LIG    1        2.148   7.133   1.387  0.00  0.00    +0.090 S 
ENDROOT
BRANCH   1   3
ATOM      2  N   LIG    1        1.940   4.375   0.964  0.00  0.00    -0.450 N 
ATOM      3  C   LIG    1        1.683   5.652   0.554  0.00  0.00    +0.140 A 
ATOM      4  N   LIG    1        1.018   5.566  -0.575  0.00  0.00    -0.290 NA
ATOM      5  N   LIG    1        0.852   4.332  -0.892  0.00  0.00    -0.280 NA
ATOM      6  C   LIG    1        1.396   3.562   0.008  0.00  0.00    +0.200 A 
BRANCH   6   7
ATOM      7  C   LIG    1        1.417   2.055  -0.000  0.00  0.00    +0.090 C 
ATOM      8  C   LIG    1       -0.019   1.526   0.010  0.00  0.00    +0.030 C 
ATOM      9  C   LIG    1        0.002  -0.004   0.002  0.00  0.00    +0.010 C 
ATOM     10  C   LIG    1        0.718  -0.497  -1.257  0.00  0.00    +0.010 C 
ATOM     11  C   LIG    1        2.154   0.032  -1.268  0.00  0.00    +0.010 C 
ATOM     12  C   LIG    1        2.133   1.562  -1.259  0.00  0.00    +0.030 C 
ENDBRANCH   6   7
BRANCH   2  13
ATOM     13  C   LIG    1        2.654   3.961   2.174  0.00  0.00    +0.340 C 
BRANCH  13  15
ATOM     14  C   LIG    1        4.998   4.503   2.592  0.00  0.00    +0.080 C 
ATOM     15  C   LIG    1        4.126   3.841   1.873  0.00  0.00    -0.070 C 
ENDBRANCH  13  15
ENDBRANCH   2  13
ENDBRANCH   1   3
BRANCH   1  16
ATOM     16  C   LIG    1        1.458   8.362   0.252  0.00  0.00    +0.110 C 
BRANCH  16  17
ATOM     17  C   LIG    1        1.743   9.746   0.775  0.00  0.00    +0.540 C 
ATOM     18  N   LIG    1        1.320  10.826   0.089  0.00  0.00    -0.690 N 
ATOM     19  H   LIG    1        0.832  10.713  -0.741  0.00  0.00    +0.410 HD
ATOM     20  C   LIG    1        1.575  12.064   0.558  0.00  0.00    +0.690 C 
ATOM     21  N   LIG    1        1.152  13.145  -0.128  0.00  0.00    -0.730 N 
ATOM     22  H   LIG    1        0.664  13.031  -0.959  0.00  0.00    +0.400 HD
ATOM     23  O   LIG    1        2.186  12.206   1.599  0.00  0.00    -0.530 OA
ATOM     24  O   LIG    1        2.352   9.887   1.813  0.00  0.00    -0.450 OA
BRANCH  21  25
ATOM     25  C   LIG    1        1.429  14.490   0.381  0.00  0.00    +0.250 C 
ATOM     26  C   LIG    1        0.317  14.925   1.358  0.00  0.00    +0.000 C 
ATOM     27  C   LIG    1        0.133  16.437   1.074  0.00  0.00    +0.010 C 
ATOM     28  C   LIG    1        0.302  16.520  -0.464  0.00  0.00    +0.020 C 
ATOM     29  C   LIG    1        1.420  15.504  -0.776  0.00  0.00    +0.020 C 
ENDBRANCH  21  25
ENDBRANCH  16  17
ENDBRANCH   1  16
TORSDOF 7
