REMARK  Name = ZINCtV000002z288.0
REMARK                            x       y       z     vdW  Elec       q    Type
REMARK                         _______ _______ _______ _____ _____    ______ ____
ROOT
ATOM      1  N   LIG    1       -0.698   1.558   1.213  0.00  0.00    -0.460 N 
ATOM      2  C   LIG    1       -1.709   0.876   1.862  0.00  0.00    +0.090 A 
ATOM      3  C   LIG    1       -2.336  -0.341   1.615  0.00  0.00    +0.010 A 
ATOM      4  C   LIG    1       -3.338  -0.782   2.452  0.00  0.00    +0.030 A 
ATOM      5  C   LIG    1       -3.733  -0.023   3.543  0.00  0.00    +0.010 A 
ATOM      6  C   LIG    1       -3.124   1.186   3.805  0.00  0.00    +0.030 A 
ATOM      7  C   LIG    1       -2.110   1.643   2.968  0.00  0.00    -0.060 A 
ATOM      8  C   LIG    1       -1.268   2.855   2.955  0.00  0.00    -0.270 A 
ATOM      9  C   LIG    1       -0.424   2.728   1.854  0.00  0.00    +0.240 A 
ENDROOT
BRANCH   9  10
ATOM     10  C   LIG    1        0.601   3.708   1.445  0.00  0.00    -0.070 A 
ATOM     11  C   LIG    1        1.878   3.276   1.080  0.00  0.00    +0.020 A 
ATOM     12  C   LIG    1        2.829   4.196   0.693  0.00  0.00    +0.000 A 
ATOM     13  C   LIG    1        2.525   5.546   0.677  0.00  0.00    +0.030 A 
ATOM     14  C   LIG    1        1.263   5.982   1.042  0.00  0.00    +0.010 A 
ATOM     15  C   LIG    1        0.300   5.072   1.426  0.00  0.00    +0.090 A 
ENDBRANCH   9  10
BRANCH   1  17
ATOM     16  C   LIG    1       -0.753   1.593  -1.232  0.00  0.00    +0.030 C 
ATOM     17  C   LIG    1       -0.013   1.086   0.008  0.00  0.00    +0.290 C 
ENDBRANCH   1  17
BRANCH   8  18
ATOM     18  C   LIG    1       -1.307   3.925   3.876  0.00  0.00    +0.430 C 
ATOM     19  O   LIG    1       -0.552   4.867   3.745  0.00  0.00    -0.440 OA
BRANCH  18  20
ATOM     20  C   LIG    1       -2.285   3.897   5.023  0.00  0.00    +0.210 C 
BRANCH  20  21
ATOM     21  O   LIG    1       -2.132   5.081   5.808  0.00  0.00    -0.280 OA
BRANCH  21  22
ATOM     22  C   LIG    1       -2.945   5.214   6.889  0.00  0.00    +0.140 A 
ATOM     23  C   LIG    1       -2.850   6.339   7.695  0.00  0.00    +0.040 A 
ATOM     24  C   LIG    1       -3.677   6.474   8.794  0.00  0.00    +0.050 A 
ATOM     25  C   LIG    1       -4.601   5.487   9.090  0.00  0.00    +0.070 A 
ATOM     26  C   LIG    1       -4.698   4.362   8.286  0.00  0.00    -0.030 A 
ATOM     27 CL   LIG    1       -5.857   3.125   8.659  0.00  0.00    -0.040 Cl
ATOM     28  F   LIG    1       -5.409   5.620  10.165  0.00  0.00    -0.130 F 
ATOM     29  C   LIG    1       -3.875   4.228   7.184  0.00  0.00    -0.030 A 
ENDBRANCH  21  22
ENDBRANCH  20  21
ENDBRANCH  18  20
ENDBRANCH   8  18
TORSDOF 6
