REMARK  Name = ZINCrH00000tj0Tn.1
REMARK                            x       y       z     vdW  Elec       q    Type
REMARK                         _______ _______ _______ _____ _____    ______ ____
ROOT
ATOM      1  C   LIG    1       -1.176  -0.498   2.357  0.00  0.00    +0.600 C 
ATOM      2  N   LIG    1       -2.281  -1.066   1.834  0.00  0.00    -0.600 N 
ATOM      3  C   LIG    1       -3.369  -0.228   1.311  0.00  0.00    +0.270 C 
ATOM      4  C   LIG    1       -2.889   0.485   0.053  0.00  0.00    +0.030 C 
ATOM      5  C   LIG    1       -2.790  -0.531  -1.097  0.00  0.00    +0.010 C 
ATOM      6  C   LIG    1       -1.519  -1.357  -0.935  0.00  0.00    +0.020 C 
ATOM      7  C   LIG    1       -1.859  -2.829  -0.638  0.00  0.00    +0.030 C 
ATOM      8  C   LIG    1       -2.973  -2.899   0.407  0.00  0.00    +0.220 C 
ATOM      9  C   LIG    1       -2.406  -2.513   1.776  0.00  0.00    +0.260 C 
ATOM     10  O   LIG    1       -1.033   0.708   2.313  0.00  0.00    -0.520 OA
ENDROOT
BRANCH   1  17
ATOM     11  C   LIG    1        1.448  -1.581   0.937  0.00  0.00    +0.160 C 
ATOM     12  C   LIG    1        1.031  -1.830   2.364  0.00  0.00    +0.120 A 
ATOM     13  N   LIG    1        1.686  -2.539   3.242  0.00  0.00    -0.290 NA
ATOM     14  N   LIG    1        0.978  -2.532   4.449  0.00  0.00    -0.460 N 
ATOM     15  H   LIG    1        1.245  -2.983   5.265  0.00  0.00    +0.440 HD
ATOM     16  C   LIG    1       -0.134  -1.797   4.287  0.00  0.00    +0.140 A 
ATOM     17  C   LIG    1       -0.141  -1.341   2.984  0.00  0.00    -0.280 A 
BRANCH  16  18
ATOM     18  C   LIG    1       -1.184  -1.525   5.333  0.00  0.00    +0.060 C 
ATOM     19  C   LIG    1       -1.702  -2.852   5.892  0.00  0.00    +0.040 C 
ATOM     20  C   LIG    1       -0.573  -0.698   6.465  0.00  0.00    +0.050 C 
ENDBRANCH  16  18
ENDBRANCH   1  17
BRANCH   8  21
ATOM     21  N   LIG    1       -3.504  -4.263   0.464  0.00  0.00    -0.700 N 
ATOM     22  H   LIG    1       -2.951  -5.011   0.190  0.00  0.00    +0.410 HD
BRANCH  21  23
ATOM     23  C   LIG    1       -4.802  -4.486   0.910  0.00  0.00    +0.380 A 
ATOM     24  C   LIG    1       -5.596  -3.414   1.309  0.00  0.00    +0.160 A 
ATOM     25  N   LIG    1       -6.830  -3.628   1.726  0.00  0.00    -0.380 NA
ATOM     26  C   LIG    1       -7.308  -4.859   1.777  0.00  0.00    +0.180 A 
ATOM     27  C   LIG    1       -6.521  -5.928   1.387  0.00  0.00    +0.180 A 
ATOM     28 CL   LIG    1       -7.154  -7.543   1.455  0.00  0.00    -0.010 Cl
ATOM     29  N   LIG    1       -5.285  -5.721   0.962  0.00  0.00    -0.500 NA
ENDBRANCH  21  23
ENDBRANCH   8  21
TORSDOF 4
