REMARK  Name = ZINCrH00000tj0Tn.0
REMARK                            x       y       z     vdW  Elec       q    Type
REMARK                         _______ _______ _______ _____ _____    ______ ____
ROOT
ATOM      1  C   LIG    1        5.221   2.647   2.351  0.00  0.00    +0.590 C 
ATOM      2  N   LIG    1        4.709   3.868   2.096  0.00  0.00    -0.600 N 
ATOM      3  C   LIG    1        5.451   5.077   2.486  0.00  0.00    +0.280 C 
ATOM      4  C   LIG    1        5.992   5.722   1.201  0.00  0.00    +0.000 C 
ATOM      5  C   LIG    1        4.809   6.297   0.411  0.00  0.00    +0.010 C 
ATOM      6  C   LIG    1        4.660   5.527  -0.897  0.00  0.00    +0.020 C 
ATOM      7  C   LIG    1        4.806   4.027  -0.632  0.00  0.00    +0.020 C 
ATOM      8  C   LIG    1        3.509   3.491  -0.012  0.00  0.00    +0.240 C 
ATOM      9  C   LIG    1        3.414   3.998   1.433  0.00  0.00    +0.260 C 
ATOM     10  O   LIG    1        4.604   1.650   2.027  0.00  0.00    -0.510 OA
ENDROOT
BRANCH   1  13
ATOM     11  C   LIG    1        5.692   2.486   5.459  0.00  0.00    +0.160 C 
ATOM     12  C   LIG    1        6.747   2.450   4.383  0.00  0.00    +0.130 A 
ATOM     13  C   LIG    1        6.527   2.521   3.022  0.00  0.00    -0.280 A 
ATOM     14  C   LIG    1        7.790   2.456   2.392  0.00  0.00    +0.120 A 
ATOM     15  N   LIG    1        8.700   2.347   3.321  0.00  0.00    -0.280 NA
ATOM     16  N   LIG    1        8.071   2.338   4.571  0.00  0.00    -0.460 N 
ATOM     17  H   LIG    1        8.518   2.267   5.429  0.00  0.00    +0.440 HD
BRANCH  14  18
ATOM     18  C   LIG    1        8.043   2.504   0.907  0.00  0.00    +0.060 C 
ATOM     19  C   LIG    1        8.746   1.218   0.467  0.00  0.00    +0.030 C 
ATOM     20  C   LIG    1        8.930   3.707   0.579  0.00  0.00    +0.030 C 
ENDBRANCH  14  18
ENDBRANCH   1  13
BRANCH   8  21
ATOM     21  N   LIG    1        3.527   2.026  -0.020  0.00  0.00    -0.680 N 
ATOM     22  H   LIG    1        4.373   1.552  -0.031  0.00  0.00    +0.410 HD
BRANCH  21  23
ATOM     23  C   LIG    1        2.332   1.316  -0.013  0.00  0.00    +0.400 A 
ATOM     24  C   LIG    1        1.117   1.995   0.002  0.00  0.00    +0.150 A 
ATOM     25  N   LIG    1       -0.016   1.318   0.009  0.00  0.00    -0.380 NA
ATOM     26  C   LIG    1        0.002  -0.004   0.002  0.00  0.00    +0.160 A 
ATOM     27  C   LIG    1        1.208  -0.683  -0.013  0.00  0.00    +0.190 A 
ATOM     28 CL   LIG    1        1.225  -2.419  -0.023  0.00  0.00    -0.020 Cl
ATOM     29  N   LIG    1        2.347  -0.011  -0.020  0.00  0.00    -0.500 NA
ENDBRANCH  21  23
ENDBRANCH   8  21
TORSDOF 4
