REMARK  Name = ZINCrH000004vKsl.0
REMARK                            x       y       z     vdW  Elec       q    Type
REMARK                         _______ _______ _______ _____ _____    ______ ____
ROOT
ATOM      1  O   LIG    1       -4.588   4.123   0.431  0.00  0.00    -0.500 OA
ATOM      2  C   LIG    1       -3.629   3.381   0.461  0.00  0.00    +0.530 C 
ATOM      3  C   LIG    1       -3.825   1.982   0.977  0.00  0.00    +0.150 C 
ATOM      4  S   LIG    1       -2.749   0.852   0.044  0.00  0.00    -0.080 S 
ATOM      5  C   LIG    1       -1.229   1.747   0.005  0.00  0.00    -0.180 A 
ATOM      6  C   LIG    1       -0.023   1.067  -0.017  0.00  0.00    +0.130 A 
ATOM      7  C   LIG    1        1.168   1.770  -0.036  0.00  0.00    -0.070 A 
ATOM      8  C   LIG    1        1.151   3.159  -0.028  0.00  0.00    +0.250 A 
ATOM      9  C   LIG    1       -0.056   3.843  -0.003  0.00  0.00    -0.080 A 
ATOM     10  C   LIG    1       -1.256   3.142   0.015  0.00  0.00    +0.210 A 
ATOM     11  N   LIG    1       -2.457   3.848   0.035  0.00  0.00    -0.540 N 
ENDROOT
BRANCH   8  12
ATOM     12  N   LIG    1        2.356   3.871  -0.046  0.00  0.00    -0.740 N 
ATOM     13  H   LIG    1        2.346   4.841  -0.041  0.00  0.00    +0.400 HD
BRANCH  12  14
ATOM     14  C   LIG    1        3.631   3.151  -0.074  0.00  0.00    +0.360 C 
BRANCH  14  15
ATOM     15  C   LIG    1        4.767   4.142  -0.089  0.00  0.00    +0.070 A 
ATOM     16  C   LIG    1        5.451   4.589   0.990  0.00  0.00    -0.080 A 
ATOM     17  C   LIG    1        6.419   5.493   0.542  0.00  0.00    +0.240 A 
ATOM     18  N   LIG    1        6.320   5.586  -0.759  0.00  0.00    -0.280 NA
ATOM     19  N   LIG    1        5.288   4.739  -1.181  0.00  0.00    -0.340 N 
BRANCH  19  20
ATOM     20  C   LIG    1        4.849   4.538  -2.565  0.00  0.00    +0.250 C 
ATOM     21  C   LIG    1        5.437   5.461  -3.634  0.00  0.00    +0.120 C 
ATOM     22  C   LIG    1        5.876   3.998  -3.561  0.00  0.00    +0.200 C 
ATOM     23  F   LIG    1        5.415   3.134  -4.560  0.00  0.00    -0.150 F 
ATOM     24  F   LIG    1        7.164   3.732  -3.081  0.00  0.00    -0.150 F 
ENDBRANCH  19  20
ENDBRANCH  14  15
ENDBRANCH  12  14
ENDBRANCH   8  12
BRANCH  11  25
ATOM     25  C   LIG    1       -2.428   5.227  -0.457  0.00  0.00    +0.290 C 
BRANCH  25  26
ATOM     26  C   LIG    1       -2.575   5.229  -1.980  0.00  0.00    +0.370 C 
ATOM     27  F   LIG    1       -3.792   4.635  -2.331  0.00  0.00    -0.190 F 
ATOM     28  F   LIG    1       -1.521   4.509  -2.551  0.00  0.00    -0.200 F 
ENDBRANCH  25  26
ENDBRANCH  11  25
TORSDOF 6
