REMARK  Name = ZINCrH000004snPK.0
REMARK                            x       y       z     vdW  Elec       q    Type
REMARK                         _______ _______ _______ _____ _____    ______ ____
ROOT
ATOM      1  C   LIG    1        7.701  -0.799  -0.006  0.00  0.00    +0.600 C 
ATOM      2  N   LIG    1        6.458  -0.284   0.075  0.00  0.00    -0.610 N 
ATOM      3  C   LIG    1        5.885   0.483  -1.041  0.00  0.00    +0.280 C 
ATOM      4  C   LIG    1        5.353   1.813  -0.495  0.00  0.00    +0.190 C 
ATOM      5  N   LIG    1        4.429   1.547   0.616  0.00  0.00    -0.490 N 
ATOM      6  C   LIG    1        5.117   0.892   1.736  0.00  0.00    +0.180 C 
ATOM      7  C   LIG    1        5.639  -0.475   1.282  0.00  0.00    +0.300 C 
ATOM      8  O   LIG    1        8.200  -1.340   0.963  0.00  0.00    -0.520 OA
ENDROOT
BRANCH   1  11
ATOM      9  C   LIG    1       10.723  -0.397  -0.196  0.00  0.00    +0.170 C 
ATOM     10  C   LIG    1        9.804  -0.528  -1.383  0.00  0.00    +0.160 A 
ATOM     11  C   LIG    1        8.452  -0.707  -1.262  0.00  0.00    -0.320 A 
ATOM     12  S   LIG    1        7.777  -0.816  -2.886  0.00  0.00    +0.200 S 
ATOM     13  C   LIG    1        9.334  -0.607  -3.560  0.00  0.00    +0.090 A 
ATOM     14  N   LIG    1       10.226  -0.481  -2.618  0.00  0.00    -0.470 NA
BRANCH  13  15
ATOM     15  C   LIG    1        9.628  -0.578  -5.008  0.00  0.00    -0.040 A 
ATOM     16  C   LIG    1        8.596  -0.728  -5.936  0.00  0.00    +0.030 A 
ATOM     17  C   LIG    1        8.877  -0.695  -7.286  0.00  0.00    +0.010 A 
ATOM     18  C   LIG    1       10.180  -0.525  -7.721  0.00  0.00    +0.030 A 
ATOM     19  C   LIG    1       11.208  -0.381  -6.806  0.00  0.00    +0.010 A 
ATOM     20  C   LIG    1       10.940  -0.406  -5.453  0.00  0.00    +0.070 A 
ENDBRANCH  13  15
ENDBRANCH   1  11
BRANCH   5  21
ATOM     21  C   LIG    1        3.797   2.724   1.034  0.00  0.00    +0.060 A 
ATOM     22  C   LIG    1        4.550   3.789   1.504  0.00  0.00    -0.010 A 
ATOM     23  C   LIG    1        3.924   4.950   1.916  0.00  0.00    +0.010 A 
ATOM     24  C   LIG    1        2.546   5.053   1.862  0.00  0.00    +0.030 A 
ATOM     25  C   LIG    1        1.788   3.995   1.394  0.00  0.00    -0.010 A 
ATOM     26  C   LIG    1        2.408   2.828   0.980  0.00  0.00    +0.130 A 
BRANCH  26  27
ATOM     27  O   LIG    1        1.664   1.787   0.520  0.00  0.00    -0.480 OA
ATOM     28  H   LIG    1        1.505   1.808  -0.434  0.00  0.00    +0.390 HD
ENDBRANCH  26  27
ENDBRANCH   5  21
TORSDOF 4
