REMARK  Name = ZINCrH00000tj1ii.0
REMARK                            x       y       z     vdW  Elec       q    Type
REMARK                         _______ _______ _______ _____ _____    ______ ____
ROOT
ATOM      1  C   LIG    1       -1.309   3.411   0.113  0.00  0.00    +0.520 C 
ATOM      2  N   LIG    1       -1.239   2.068   0.019  0.00  0.00    -0.670 N 
ATOM      3  H   LIG    1       -2.053   1.544  -0.049  0.00  0.00    +0.410 HD
ATOM      4  O   LIG    1       -0.292   4.073   0.101  0.00  0.00    -0.500 OA
ENDROOT
BRANCH   2   5
ATOM      5  C   LIG    1        0.008   1.430   0.020  0.00  0.00    +0.120 A 
ATOM      6  C   LIG    1        0.192   0.265  -0.713  0.00  0.00    +0.010 A 
ATOM      7  C   LIG    1        1.419  -0.367  -0.708  0.00  0.00    +0.020 A 
ATOM      8  C   LIG    1        2.469   0.161   0.031  0.00  0.00    +0.150 A 
ATOM      9  C   LIG    1        2.285   1.326   0.765  0.00  0.00    -0.010 A 
ATOM     10  C   LIG    1        1.058   1.958   0.760  0.00  0.00    +0.050 A 
BRANCH   8  11
ATOM     11  N   LIG    1        3.714  -0.480   0.037  0.00  0.00    -0.560 N 
ATOM     12  C   LIG    1        4.850  -0.076   0.874  0.00  0.00    +0.260 C 
ATOM     13  C   LIG    1        6.087  -0.754   0.244  0.00  0.00    +0.060 C 
ATOM     14  C   LIG    1        5.452  -1.970  -0.470  0.00  0.00    +0.070 C 
ATOM     15  C   LIG    1        4.021  -1.548  -0.720  0.00  0.00    +0.510 C 
ATOM     16  O   LIG    1        3.261  -2.093  -1.492  0.00  0.00    -0.510 OA
ENDBRANCH   8  11
ENDBRANCH   2   5
BRANCH   1  17
ATOM     17  C   LIG    1       -2.649   4.090   0.232  0.00  0.00    +0.120 C 
BRANCH  17  21
ATOM     18  C   LIG    1       -2.085   8.322   0.489  0.00  0.00    +0.110 A 
ATOM     19  C   LIG    1       -1.907   7.527   1.610  0.00  0.00    +0.010 A 
ATOM     20  C   LIG    1       -2.095   6.159   1.525  0.00  0.00    -0.070 A 
ATOM     21  C   LIG    1       -2.451   5.581   0.320  0.00  0.00    -0.040 A 
ATOM     22  C   LIG    1       -2.630   6.369  -0.802  0.00  0.00    -0.020 A 
ATOM     23 BR   LIG    1       -1.858   5.077   3.058  0.00  0.00    -0.040 Br
ATOM     24  C   LIG    1       -2.449   7.740  -0.722  0.00  0.00    +0.120 A 
BRANCH  18  26
ATOM     25  C   LIG    1       -1.533  10.195   1.847  0.00  0.00    +0.240 C 
ATOM     26  O   LIG    1       -1.905   9.667   0.572  0.00  0.00    -0.300 OA
ENDBRANCH  18  26
BRANCH  24  27
ATOM     27  O   LIG    1       -2.625   8.516  -1.825  0.00  0.00    -0.300 OA
ATOM     28  C   LIG    1       -2.998   7.851  -3.033  0.00  0.00    +0.240 C 
ENDBRANCH  24  27
ENDBRANCH  17  21
ENDBRANCH   1  17
TORSDOF 6
