REMARK  Name = ZINCrH000004mT5Y.0
REMARK                            x       y       z     vdW  Elec       q    Type
REMARK                         _______ _______ _______ _____ _____    ______ ____
ROOT
ATOM      1  C   LIG    1       -3.908   7.482  -2.986  0.00  0.00    +0.520 C 
ATOM      2  N   LIG    1       -3.086   6.440  -2.753  0.00  0.00    -0.730 N 
ATOM      3  H   LIG    1       -2.645   5.995  -3.494  0.00  0.00    +0.400 HD
ATOM      4  O   LIG    1       -4.460   8.039  -2.061  0.00  0.00    -0.540 OA
ENDROOT
BRANCH   1   5
ATOM      5  C   LIG    1       -4.142   7.956  -4.398  0.00  0.00    +0.060 C 
BRANCH   5   6
ATOM      6  C   LIG    1       -5.108   9.142  -4.384  0.00  0.00    +0.120 C 
BRANCH   6  11
ATOM      7  C   LIG    1       -4.808  11.093  -7.607  0.00  0.00    +0.090 A 
ATOM      8  C   LIG    1       -5.777  10.485  -8.391  0.00  0.00    -0.040 A 
ATOM      9  C   LIG    1       -6.527   9.444  -7.878  0.00  0.00    -0.040 A 
ATOM     10  C   LIG    1       -6.311   9.007  -6.580  0.00  0.00    +0.100 A 
ATOM     11  C   LIG    1       -5.342   9.616  -5.795  0.00  0.00    -0.080 A 
ATOM     12  C   LIG    1       -4.596  10.660  -6.306  0.00  0.00    +0.030 A 
BRANCH   7  14
ATOM     13  C   LIG    1       -4.346  12.515  -9.456  0.00  0.00    +0.230 C 
ATOM     14  O   LIG    1       -4.070  12.117  -8.111  0.00  0.00    -0.320 OA
ENDBRANCH   7  14
BRANCH  10  15
ATOM     15  O   LIG    1       -7.049   7.983  -6.075  0.00  0.00    -0.310 OA
ATOM     16  C   LIG    1       -8.029   7.403  -6.938  0.00  0.00    +0.230 C 
ENDBRANCH  10  15
ENDBRANCH   6  11
ENDBRANCH   5   6
ENDBRANCH   1   5
BRANCH   2  17
ATOM     17  C   LIG    1       -2.859   5.980  -1.381  0.00  0.00    +0.260 C 
BRANCH  17  18
ATOM     18  C   LIG    1       -1.893   4.793  -1.395  0.00  0.00    +0.010 C 
BRANCH  18  19
ATOM     19  C   LIG    1       -1.655   4.312   0.038  0.00  0.00    +0.290 C 
BRANCH  19  20
ATOM     20  N   LIG    1       -0.730   3.176   0.025  0.00  0.00    -0.480 N 
ATOM     21  C   LIG    1       -1.102   1.859   0.017  0.00  0.00    +0.220 A 
ATOM     22  C   LIG    1       -0.013   1.076   0.008  0.00  0.00    -0.050 A 
ATOM     23  C   LIG    1        1.153   1.963   0.002  0.00  0.00    -0.110 A 
ATOM     24  C   LIG    1        2.533   1.752  -0.011  0.00  0.00    +0.050 A 
ATOM     25  C   LIG    1        3.383   2.822  -0.014  0.00  0.00    -0.030 A 
ATOM     26  C   LIG    1        2.885   4.118  -0.003  0.00  0.00    +0.020 A 
ATOM     27  C   LIG    1        1.527   4.349   0.010  0.00  0.00    -0.010 A 
ATOM     28  C   LIG    1        0.643   3.275   0.013  0.00  0.00    +0.100 A 
ENDBRANCH  19  20
ENDBRANCH  18  19
ENDBRANCH  17  18
ENDBRANCH   2  17
TORSDOF 9
