REMARK  Name = ZINCrH000004r05n.0
REMARK                            x       y       z     vdW  Elec       q    Type
REMARK                         _______ _______ _______ _____ _____    ______ ____
ROOT
ATOM      1  C   LIG    1        5.968   2.220  -0.042  0.00  0.00    +0.430 C 
ATOM      2  O   LIG    1        5.806   3.423  -0.034  0.00  0.00    -0.430 OA
ENDROOT
BRANCH   1   6
ATOM      3  N   LIG    1        9.525   1.481  -0.079  0.00  0.00    -0.390 N 
ATOM      4  C   LIG    1        9.039   0.203  -0.082  0.00  0.00    +0.020 A 
ATOM      5  C   LIG    1        7.696   0.243  -0.069  0.00  0.00    +0.000 A 
ATOM      6  C   LIG    1        7.323   1.664  -0.057  0.00  0.00    -0.260 A 
ATOM      7  C   LIG    1        9.876  -1.050  -0.097  0.00  0.00    +0.130 C 
ATOM      8  C   LIG    1        8.512   2.369  -0.070  0.00  0.00    +0.130 A 
ATOM      9  C   LIG    1        8.651   3.869  -0.070  0.00  0.00    +0.150 C 
BRANCH   3  14
ATOM     10  C   LIG    1       15.032   2.853  -0.126  0.00  0.00    +0.100 C 
ATOM     11  C   LIG    1       13.570   2.489  -0.113  0.00  0.00    -0.070 A 
ATOM     12  C   LIG    1       13.012   1.836  -1.197  0.00  0.00    +0.020 A 
ATOM     13  C   LIG    1       11.672   1.501  -1.189  0.00  0.00    +0.030 A 
ATOM     14  C   LIG    1       10.885   1.819  -0.090  0.00  0.00    +0.100 A 
ATOM     15  C   LIG    1       11.447   2.479   0.995  0.00  0.00    +0.030 A 
ATOM     16  C   LIG    1       12.789   2.807   0.983  0.00  0.00    +0.020 A 
ENDBRANCH   3  14
ENDBRANCH   1   6
BRANCH   1  17
ATOM     17  C   LIG    1        4.776   1.299  -0.036  0.00  0.00    +0.210 C 
BRANCH  17  18
ATOM     18  O   LIG    1        3.575   2.074  -0.021  0.00  0.00    -0.260 OA
BRANCH  18  19
ATOM     19  C   LIG    1        2.402   1.393  -0.013  0.00  0.00    +0.190 A 
ATOM     20  C   LIG    1        2.402   0.006  -0.021  0.00  0.00    -0.080 A 
ATOM     21  C   LIG    1        1.207  -0.686  -0.013  0.00  0.00    +0.080 A 
ATOM     22  C   LIG    1        0.002  -0.004   0.002  0.00  0.00    -0.040 A 
ATOM     23  C   LIG    1       -0.017   1.374   0.010  0.00  0.00    +0.080 A 
ATOM     24  C   LIG    1        1.185   2.087   0.002  0.00  0.00    -0.180 A 
BRANCH  24  25
ATOM     25  C   LIG    1        1.172   3.562   0.009  0.00  0.00    +0.560 C 
ATOM     26  O   LIG    1        2.219   4.179   0.003  0.00  0.00    -0.510 OA
ATOM     27  N   LIG    1       -0.001   4.226   0.024  0.00  0.00    -0.860 N 
ATOM     28  H   LIG    1       -0.009   5.196   0.029  0.00  0.00    +0.400 HD
ATOM     29  H   LIG    1       -0.837   3.734   0.029  0.00  0.00    +0.400 HD
ENDBRANCH  24  25
ENDBRANCH  18  19
ENDBRANCH  17  18
ENDBRANCH   1  17
TORSDOF 6
