REMARK  Name = ZINCrD000006V7UP.0
REMARK                            x       y       z     vdW  Elec       q    Type
REMARK                         _______ _______ _______ _____ _____    ______ ____
ROOT
ATOM      1  N   LIG    1        5.476  -1.538   6.737  0.00  0.00    -0.490 N 
ATOM      2  C   LIG    1        6.514  -1.287   5.727  0.00  0.00    +0.200 C 
ATOM      3  C   LIG    1        6.312   0.106   5.126  0.00  0.00    +0.200 C 
ATOM      4  N   LIG    1        4.971   0.190   4.531  0.00  0.00    -0.540 NA
ATOM      5  C   LIG    1        3.933  -0.061   5.540  0.00  0.00    +0.190 C 
ATOM      6  C   LIG    1        4.135  -1.454   6.141  0.00  0.00    +0.200 C 
ENDROOT
BRANCH   1  10
ATOM      7  C   LIG    1        6.058  -5.223   8.595  0.00  0.00    +0.100 A 
ATOM      8  C   LIG    1        4.988  -4.422   8.964  0.00  0.00    +0.000 A 
ATOM      9  C   LIG    1        4.794  -3.201   8.349  0.00  0.00    +0.030 A 
ATOM     10  C   LIG    1        5.671  -2.775   7.360  0.00  0.00    +0.070 A 
ATOM     11  C   LIG    1        6.739  -3.580   6.987  0.00  0.00    +0.000 A 
ATOM     12  C   LIG    1        6.935  -4.799   7.607  0.00  0.00    -0.050 A 
BRANCH   7  14
ATOM     13  C   LIG    1        7.370  -7.199   8.771  0.00  0.00    +0.230 C 
ATOM     14  O   LIG    1        6.248  -6.426   9.201  0.00  0.00    -0.320 OA
ENDBRANCH   7  14
ENDBRANCH   1  10
BRANCH   4  15
ATOM     15  C   LIG    1        4.766   1.488   3.876  0.00  0.00    +0.360 C 
BRANCH  15  16
ATOM     16  C   LIG    1        3.492   1.451   3.073  0.00  0.00    +0.200 A 
ATOM     17  N   LIG    1        2.294   1.769   3.498  0.00  0.00    -0.470 NA
ATOM     18  C   LIG    1        1.472   1.582   2.441  0.00  0.00    +0.220 A 
ATOM     19  N   LIG    1        2.210   1.160   1.448  0.00  0.00    -0.370 NA
ATOM     20  O   LIG    1        3.370   1.085   1.793  0.00  0.00    +0.090 OA
BRANCH  18  21
ATOM     21  C   LIG    1        0.005   1.808   2.415  0.00  0.00    -0.030 A 
ATOM     22  C   LIG    1       -0.653   2.257   3.558  0.00  0.00    +0.060 A 
ATOM     23  C   LIG    1       -2.017   2.466   3.528  0.00  0.00    +0.000 A 
ATOM     24  C   LIG    1       -2.730   2.229   2.367  0.00  0.00    +0.040 A 
ATOM     25  C   LIG    1       -2.081   1.789   1.228  0.00  0.00    +0.000 A 
ATOM     26  C   LIG    1       -0.718   1.572   1.248  0.00  0.00    -0.050 A 
ATOM     27  C   LIG    1       -0.013   1.086   0.008  0.00  0.00    +0.100 C 
ENDBRANCH  18  21
ENDBRANCH  15  16
ENDBRANCH   4  15
TORSDOF 5
