REMARK  Name = ZINCpk00000y6yMV.0
REMARK                            x       y       z     vdW  Elec       q    Type
REMARK                         _______ _______ _______ _____ _____    ______ ____
ROOT
ATOM      1  C   LIG    1       -2.185   1.447   0.813  0.00  0.00    +0.180 C 
ATOM      2  C   LIG    1       -2.235   1.858  -0.674  0.00  0.00    +0.060 C 
ATOM      3  C   LIG    1       -0.806   1.620  -1.204  0.00  0.00    +0.170 C 
ATOM      4  C   LIG    1       -0.013   1.086   0.008  0.00  0.00    +0.150 C 
ATOM      5  N   LIG    1       -0.753   1.587   1.194  0.00  0.00    -0.480 NA
ENDROOT
BRANCH   1  10
ATOM      6  C   LIG    1       -5.090   2.804   2.813  0.00  0.00    +0.120 A 
ATOM      7  C   LIG    1       -4.619   4.061   3.162  0.00  0.00    -0.080 A 
ATOM      8  C   LIG    1       -3.364   4.467   2.750  0.00  0.00    +0.050 A 
ATOM      9  C   LIG    1       -2.578   3.620   1.991  0.00  0.00    +0.020 A 
ATOM     10  C   LIG    1       -3.045   2.366   1.641  0.00  0.00    -0.040 A 
ATOM     11  C   LIG    1       -4.301   1.959   2.046  0.00  0.00    -0.020 A 
BRANCH   6  13
ATOM     12  C   LIG    1       -7.083   3.328   3.999  0.00  0.00    +0.250 C 
ATOM     13  O   LIG    1       -6.324   2.404   3.217  0.00  0.00    -0.320 OA
ENDBRANCH   6  13
ENDBRANCH   1  10
BRANCH   3  14
ATOM     14  O   LIG    1       -0.238   2.847  -1.667  0.00  0.00    -0.550 OA
ATOM     15  H   LIG    1        0.677   2.767  -1.970  0.00  0.00    +0.380 HD
ENDBRANCH   3  14
BRANCH   5  16
ATOM     16  C   LIG    1       -0.442   0.788   2.386  0.00  0.00    +0.210 C 
BRANCH  16  17
ATOM     17  C   LIG    1        0.978   1.056   2.814  0.00  0.00    +0.520 C 
ATOM     18  N   LIG    1        1.487   0.428   3.893  0.00  0.00    -0.650 N 
ATOM     19  H   LIG    1        0.939  -0.196   4.394  0.00  0.00    +0.410 HD
ATOM     20  O   LIG    1        1.663   1.836   2.187  0.00  0.00    -0.480 OA
BRANCH  18  21
ATOM     21  C   LIG    1        2.801   0.676   4.288  0.00  0.00    +0.310 A 
ATOM     22  C   LIG    1        3.680   1.518   3.678  0.00  0.00    -0.110 A 
ATOM     23  C   LIG    1        4.880   1.476   4.392  0.00  0.00    +0.090 A 
ATOM     24  N   LIG    1        4.737   0.638   5.387  0.00  0.00    -0.290 NA
ATOM     25  C   LIG    1        6.127   2.257   4.069  0.00  0.00    +0.160 C 
ATOM     26  N   LIG    1        3.437   0.119   5.345  0.00  0.00    -0.390 N 
ATOM     27  C   LIG    1        2.865  -0.854   6.279  0.00  0.00    +0.350 C 
ENDBRANCH  18  21
ENDBRANCH  16  17
ENDBRANCH   5  16
TORSDOF 6
