REMARK  Name = ZINCrD000000fRxD.1
REMARK                            x       y       z     vdW  Elec       q    Type
REMARK                         _______ _______ _______ _____ _____    ______ ____
ROOT
ATOM      1  C   LIG    1       -2.177   1.354   1.549  0.00  0.00    +0.120 A 
ATOM      2  C   LIG    1       -2.461   0.029   1.257  0.00  0.00    +0.000 A 
ATOM      3  C   LIG    1       -3.733  -0.468   1.471  0.00  0.00    +0.030 A 
ATOM      4  C   LIG    1       -4.725   0.353   1.975  0.00  0.00    +0.020 A 
ATOM      5  C   LIG    1       -4.450   1.676   2.269  0.00  0.00    +0.050 A 
ATOM      6  C   LIG    1       -3.175   2.181   2.063  0.00  0.00    +0.150 A 
ENDROOT
BRANCH   6   7
ATOM      7  N   LIG    1       -2.893   3.520   2.366  0.00  0.00    -0.680 N 
ATOM      8  H   LIG    1       -2.261   4.018   1.824  0.00  0.00    +0.400 HD
ATOM      9  C   LIG    1       -3.499   4.117   3.412  0.00  0.00    +0.720 C 
ATOM     10  N   LIG    1       -3.163   5.376   3.757  0.00  0.00    -0.630 N 
ATOM     11  C   LIG    1       -2.151   6.207   3.087  0.00  0.00    +0.230 C 
ATOM     12  C   LIG    1       -2.093   7.553   3.840  0.00  0.00    +0.040 C 
ATOM     13  C   LIG    1       -2.662   7.192   5.238  0.00  0.00    +0.040 C 
ATOM     14  C   LIG    1       -3.743   6.145   4.872  0.00  0.00    +0.270 C 
ATOM     15  O   LIG    1       -4.350   3.521   4.043  0.00  0.00    -0.570 OA
ENDBRANCH   6   7
BRANCH   1  16
ATOM     16  N   LIG    1       -0.890   1.860   1.333  0.00  0.00    -1.050 N 
ATOM     17  H   LIG    1       -0.520   2.520   1.940  0.00  0.00    +0.420 HD
BRANCH  16  18
ATOM     18  S   LIG    1        0.002   1.331   0.042  0.00  0.00    +2.690 S 
ATOM     19  O   LIG    1        1.182   2.123   0.018  0.00  0.00    -0.940 OA
ATOM     20  O   LIG    1        0.019  -0.088   0.120  0.00  0.00    -0.940 OA
BRANCH  18  25
ATOM     21  C   LIG    1       -1.413   3.274  -3.191  0.00  0.00    -0.190 A 
ATOM     22  C   LIG    1       -2.332   2.358  -3.712  0.00  0.00    +0.120 A 
ATOM     23  C   LIG    1       -2.525   1.146  -3.083  0.00  0.00    -0.010 A 
ATOM     24  C   LIG    1       -1.807   0.834  -1.941  0.00  0.00    +0.170 A 
ATOM     25  C   LIG    1       -0.900   1.738  -1.416  0.00  0.00    -0.690 A 
ATOM     26  C   LIG    1       -0.696   2.953  -2.034  0.00  0.00    +0.190 A 
BRANCH  21  28
ATOM     27  C   LIG    1       -1.976   4.911  -5.104  0.00  0.00    +0.080 C 
ATOM     28  C   LIG    1       -1.202   4.570  -3.857  0.00  0.00    +0.390 C 
ATOM     29  O   LIG    1       -0.405   5.362  -3.402  0.00  0.00    -0.450 OA
ENDBRANCH  21  28
ENDBRANCH  18  25
ENDBRANCH  16  18
ENDBRANCH   1  16
TORSDOF 5
