REMARK  Name = ZINCkj000005jtI0.1
REMARK                            x       y       z     vdW  Elec       q    Type
REMARK                         _______ _______ _______ _____ _____    ______ ____
ROOT
ATOM      1  C   LIG    1       -0.775  -0.489   1.810  0.00  0.00    +0.040 C 
ATOM      2  C   LIG    1       -0.155  -0.027   0.490  0.00  0.00    +0.240 C 
ATOM      3  C   LIG    1        1.302  -0.516   0.395  0.00  0.00    +0.040 C 
ATOM      4  C   LIG    1        2.154   0.772   0.323  0.00  0.00    +0.060 C 
ATOM      5  C   LIG    1        1.216   1.840   0.940  0.00  0.00    +0.260 C 
ATOM      6  N   LIG    1       -0.122   1.447   0.440  0.00  0.00    -0.590 N 
ATOM      7  C   LIG    1       -1.105   2.268   0.020  0.00  0.00    +0.520 C 
ATOM      8  O   LIG    1       -2.120   1.804  -0.456  0.00  0.00    -0.520 OA
ENDROOT
BRANCH   7   9
ATOM      9  C   LIG    1       -0.943   3.761   0.141  0.00  0.00    +0.140 C 
ATOM     10  C   LIG    1       -0.224   4.299  -1.099  0.00  0.00    +0.280 C 
ATOM     11  O   LIG    1       -0.122   5.723  -1.004  0.00  0.00    -0.350 OA
ATOM     12  C   LIG    1       -1.385   6.380  -0.874  0.00  0.00    +0.270 C 
ATOM     13  C   LIG    1       -2.107   5.846   0.366  0.00  0.00    +0.250 C 
ATOM     14  N   LIG    1       -2.266   4.390   0.248  0.00  0.00    -0.490 N 
ATOM     15  H   LIG    1       -2.742   4.037   1.065  0.00  0.00    +0.440 HD
ATOM     16  H   LIG    1       -2.808   4.177  -0.576  0.00  0.00    +0.440 HD
ENDBRANCH   7   9
BRANCH   3  17
ATOM     17  C   LIG    1        1.496  -1.343  -0.849  0.00  0.00    -0.090 A 
ATOM     18  C   LIG    1        1.257  -0.787  -2.092  0.00  0.00    +0.000 A 
ATOM     19  C   LIG    1        1.441  -1.544  -3.235  0.00  0.00    +0.000 A 
ATOM     20  C   LIG    1        1.852  -2.860  -3.133  0.00  0.00    +0.020 A 
ATOM     21  C   LIG    1        2.086  -3.417  -1.890  0.00  0.00    +0.020 A 
ATOM     22  C   LIG    1        1.908  -2.659  -0.748  0.00  0.00    +0.010 A 
ENDBRANCH   3  17
TORSDOF 2
