REMARK  Name = ZINCAx0000000dGa.0
REMARK                            x       y       z     vdW  Elec       q    Type
REMARK                         _______ _______ _______ _____ _____    ______ ____
ROOT
ATOM      1  C   LIG    1       -0.017   1.393   0.010  0.00  0.00    -0.120 A 
ATOM      2  C   LIG    1        0.002  -0.004   0.002  0.00  0.00    +0.210 A 
ATOM      3  C   LIG    1        1.205  -0.675  -0.013  0.00  0.00    -0.690 A 
ATOM      4  C   LIG    1        2.399   0.028  -0.020  0.00  0.00    +0.180 A 
ATOM      5  C   LIG    1        2.398   1.408  -0.013  0.00  0.00    -0.040 A 
ATOM      6  C   LIG    1        1.195   2.103   0.002  0.00  0.00    +0.210 A 
ENDROOT
BRANCH   6   7
ATOM      7  N   LIG    1        1.191   3.491   0.009  0.00  0.00    -0.490 N 
ATOM      8  C   LIG    1        1.787   4.026  -1.224  0.00  0.00    +0.170 C 
ATOM      9  C   LIG    1        1.708   5.555  -1.201  0.00  0.00    +0.240 C 
ATOM     10  O   LIG    1        2.362   6.044  -0.027  0.00  0.00    -0.380 OA
ATOM     11  C   LIG    1        1.807   5.543   1.192  0.00  0.00    +0.240 C 
ATOM     12  C   LIG    1        1.887   4.014   1.194  0.00  0.00    +0.160 C 
ENDBRANCH   6   7
BRANCH   3  13
ATOM     13  S   LIG    1        1.226  -2.437  -0.023  0.00  0.00    +2.690 S 
ATOM     14  O   LIG    1       -0.014  -2.856   0.531  0.00  0.00    -0.940 OA
ATOM     15  O   LIG    1        2.486  -2.826   0.508  0.00  0.00    -0.950 OA
BRANCH  13  16
ATOM     16  N   LIG    1        1.217  -2.918  -1.607  0.00  0.00    -0.990 NA
ATOM     17  C   LIG    1       -0.051  -3.157  -2.309  0.00  0.00    +0.290 C 
ATOM     18  C   LIG    1       -0.060  -2.323  -3.600  0.00  0.00    +0.010 C 
ATOM     19  C   LIG    1        1.187  -2.656  -4.423  0.00  0.00    +0.010 C 
ATOM     20  C   LIG    1        2.440  -2.293  -3.624  0.00  0.00    +0.010 C 
ATOM     21  C   LIG    1        2.477  -3.121  -2.335  0.00  0.00    +0.290 C 
ENDBRANCH  13  16
ENDBRANCH   3  13
BRANCH   1  22
ATOM     22  C   LIG    1       -1.300   2.117   0.020  0.00  0.00    +0.510 C 
ATOM     23  O   LIG    1       -1.312   3.332   0.026  0.00  0.00    -0.460 OA
BRANCH  22  24
ATOM     24  O   LIG    1       -2.460   1.432   0.021  0.00  0.00    -0.330 OA
BRANCH  24  25
ATOM     25  C   LIG    1       -3.686   2.211   0.032  0.00  0.00    +0.250 C 
BRANCH  25  28
ATOM     26  N   LIG    1       -6.122   1.784   0.041  0.00  0.00    -0.720 N 
ATOM     27  H   LIG    1       -6.258   2.744   0.047  0.00  0.00    +0.400 HD
ATOM     28  C   LIG    1       -4.872   1.281   0.032  0.00  0.00    +0.510 C 
ATOM     29  O   LIG    1       -4.701   0.080   0.025  0.00  0.00    -0.510 OA
BRANCH  26  35
ATOM     30  C   LIG    1      -10.901   1.371  -1.158  0.00  0.00    +0.020 C 
ATOM     31  C   LIG    1       -9.690   0.654  -0.558  0.00  0.00    -0.010 C 
ATOM     32  C   LIG    1      -10.007   0.232   0.878  0.00  0.00    +0.010 C 
ATOM     33  C   LIG    1       -8.796  -0.485   1.478  0.00  0.00    +0.010 C 
ATOM     34  C   LIG    1       -7.592   0.459   1.478  0.00  0.00    +0.010 C 
ATOM     35  C   LIG    1       -7.275   0.880   0.041  0.00  0.00    +0.240 C 
ATOM     36  C   LIG    1       -8.486   1.597  -0.559  0.00  0.00    -0.010 C 
ATOM     37  C   LIG    1       -8.809   2.838   0.277  0.00  0.00    +0.020 C 
ENDBRANCH  26  35
ENDBRANCH  25  28
ENDBRANCH  24  25
ENDBRANCH  22  24
ENDBRANCH   1  22
TORSDOF 8
