REMARK  Name = ZINCrD0000072GpC.0
REMARK                            x       y       z     vdW  Elec       q    Type
REMARK                         _______ _______ _______ _____ _____    ______ ____
ROOT
ATOM      1  C   LIG    1       -4.952  -2.978  -0.413  0.00  0.00    +0.530 C 
ATOM      2  N   LIG    1       -3.891  -2.152  -0.502  0.00  0.00    -0.620 N 
ATOM      3  C   LIG    1       -2.833  -2.220  -1.527  0.00  0.00    +0.270 C 
ATOM      4  C   LIG    1       -2.250  -0.786  -1.591  0.00  0.00    +0.020 C 
ATOM      5  C   LIG    1       -2.302  -0.362  -0.099  0.00  0.00    +0.170 C 
ATOM      6  C   LIG    1       -3.596  -1.034   0.406  0.00  0.00    +0.280 C 
ATOM      7  O   LIG    1       -5.764  -2.828   0.476  0.00  0.00    -0.530 OA
ENDROOT
BRANCH   1   8
ATOM      8  C   LIG    1       -5.130  -4.087  -1.417  0.00  0.00    +0.070 C 
BRANCH   8   9
ATOM      9  C   LIG    1       -6.404  -4.870  -1.092  0.00  0.00    +0.100 C 
BRANCH   9  14
ATOM     10  C   LIG    1       -6.199  -8.248  -2.786  0.00  0.00    -0.130 A 
ATOM     11  C   LIG    1       -6.921  -8.010  -3.956  0.00  0.00    +0.040 A 
ATOM     12  C   LIG    1       -7.466  -6.763  -4.185  0.00  0.00    +0.010 A 
ATOM     13  C   LIG    1       -7.302  -5.752  -3.256  0.00  0.00    +0.040 A 
ATOM     14  C   LIG    1       -6.582  -5.979  -2.096  0.00  0.00    -0.090 A 
ATOM     15  C   LIG    1       -6.032  -7.221  -1.855  0.00  0.00    +0.090 A 
BRANCH  10  19
ATOM     16  C   LIG    1       -5.194 -11.892  -3.184  0.00  0.00    +0.290 C 
ATOM     17  N   LIG    1       -5.775 -10.570  -3.434  0.00  0.00    -0.730 N 
ATOM     18  H   LIG    1       -6.276 -10.407  -4.249  0.00  0.00    +0.400 HD
ATOM     19  C   LIG    1       -5.612  -9.581  -2.534  0.00  0.00    +0.560 C 
ATOM     20  O   LIG    1       -4.984  -9.786  -1.513  0.00  0.00    -0.530 OA
ENDBRANCH  10  19
ENDBRANCH   9  14
ENDBRANCH   8   9
ENDBRANCH   1   8
BRANCH   5  21
ATOM     21  O   LIG    1       -2.391   1.059   0.020  0.00  0.00    -0.290 OA
BRANCH  21  22
ATOM     22  C   LIG    1       -1.224   1.755  -0.009  0.00  0.00    +0.140 A 
ATOM     23  C   LIG    1       -0.029   1.098  -0.259  0.00  0.00    -0.060 A 
ATOM     24  C   LIG    1        1.156   1.808  -0.293  0.00  0.00    +0.060 A 
ATOM     25  C   LIG    1        1.152   3.173  -0.073  0.00  0.00    +0.000 A 
ATOM     26  C   LIG    1       -0.038   3.831   0.182  0.00  0.00    +0.070 A 
ATOM     27  C   LIG    1       -1.226   3.125   0.217  0.00  0.00    -0.070 A 
ATOM     28 CL   LIG    1       -2.718   3.952   0.537  0.00  0.00    -0.050 Cl
ENDBRANCH  21  22
ENDBRANCH   5  21
TORSDOF 6
