REMARK  Name = ZINCvU0000000Fsb.0
REMARK                            x       y       z     vdW  Elec       q    Type
REMARK                         _______ _______ _______ _____ _____    ______ ____
ROOT
ATOM      1  C   LIG    1       -9.056   0.962   4.516  0.00  0.00    +0.280 A 
ATOM      2  N   LIG    1       -9.505   2.040   3.943  0.00  0.00    -0.480 NA
ATOM      3  C   LIG    1      -10.847   2.133   4.132  0.00  0.00    +0.050 A 
ATOM      4  C   LIG    1      -11.813   3.063   3.741  0.00  0.00    +0.070 A 
ATOM      5  C   LIG    1      -13.118   2.880   4.099  0.00  0.00    +0.000 A 
ATOM      6  C   LIG    1      -13.498   1.778   4.851  0.00  0.00    +0.030 A 
ATOM      7  C   LIG    1      -12.562   0.847   5.249  0.00  0.00    +0.010 A 
ATOM      8  C   LIG    1      -11.231   1.016   4.894  0.00  0.00    +0.050 A 
ATOM      9  N   LIG    1      -10.076   0.294   5.121  0.00  0.00    -0.480 N 
ENDROOT
BRANCH   1  12
ATOM     10  N   LIG    1       -5.666   0.886   3.168  0.00  0.00    -0.560 N 
ATOM     11  C   LIG    1       -7.062   0.444   3.075  0.00  0.00    +0.300 C 
ATOM     12  C   LIG    1       -7.615   0.521   4.517  0.00  0.00    +0.090 C 
ATOM     13  C   LIG    1       -6.705   1.602   5.144  0.00  0.00    +0.090 C 
ATOM     14  C   LIG    1       -5.440   1.547   4.316  0.00  0.00    +0.520 C 
ATOM     15  O   LIG    1       -4.375   2.030   4.642  0.00  0.00    -0.500 OA
BRANCH  10  20
ATOM     16  C   LIG    1       -2.476   0.985   1.333  0.00  0.00    -0.060 A 
ATOM     17  C   LIG    1       -2.783   0.188   0.235  0.00  0.00    -0.030 A 
ATOM     18  C   LIG    1       -4.040  -0.372   0.117  0.00  0.00    +0.060 A 
ATOM     19  C   LIG    1       -4.997  -0.142   1.088  0.00  0.00    -0.030 A 
ATOM     20  C   LIG    1       -4.697   0.654   2.187  0.00  0.00    +0.190 A 
ATOM     21  C   LIG    1       -3.433   1.212   2.312  0.00  0.00    +0.020 A 
BRANCH  16  23
ATOM     22  C   LIG    1       -0.021   1.108  -0.006  0.00  0.00    +0.130 C 
ATOM     23  S   LIG    1       -0.872   1.698   1.484  0.00  0.00    -0.110 S 
ENDBRANCH  16  23
ENDBRANCH  10  20
ENDBRANCH   1  12
BRANCH   9  24
ATOM     24  C   LIG    1       -9.968  -0.958   5.873  0.00  0.00    +0.310 C 
BRANCH  24  25
ATOM     25  C   LIG    1       -9.702  -0.647   7.347  0.00  0.00    +0.060 C 
BRANCH  25  26
ATOM     26  C   LIG    1       -9.591  -1.936   8.120  0.00  0.00    -0.090 A 
ATOM     27  C   LIG    1      -10.718  -2.500   8.688  0.00  0.00    +0.010 A 
ATOM     28  C   LIG    1      -10.618  -3.684   9.394  0.00  0.00    +0.000 A 
ATOM     29  C   LIG    1       -9.389  -4.299   9.540  0.00  0.00    +0.000 A 
ATOM     30  C   LIG    1       -8.261  -3.732   8.977  0.00  0.00    +0.000 A 
ATOM     31  C   LIG    1       -8.362  -2.550   8.267  0.00  0.00    +0.010 A 
ENDBRANCH  25  26
ENDBRANCH  24  25
ENDBRANCH   9  24
TORSDOF 6
