REMARK  Name = ZINCqH0000033FeM.0
REMARK                            x       y       z     vdW  Elec       q    Type
REMARK                         _______ _______ _______ _____ _____    ______ ____
ROOT
ATOM      1  C   LIG    1        0.001   1.502   0.022  0.00  0.00    +0.340 C 
ENDROOT
BRANCH   1   5
ATOM      2  C   LIG    1        0.095  -2.776   0.020  0.00  0.00    +0.040 A 
ATOM      3  C   LIG    1       -0.967  -2.103  -0.572  0.00  0.00    +0.150 A 
ATOM      4  C   LIG    1       -0.994  -0.716  -0.568  0.00  0.00    -0.070 A 
ATOM      5  C   LIG    1        0.034  -0.004   0.021  0.00  0.00    -0.040 A 
ATOM      6  C   LIG    1        1.095  -0.671   0.605  0.00  0.00    -0.070 A 
ATOM      7  C   LIG    1        1.126  -2.057   0.612  0.00  0.00    +0.150 A 
BRANCH   3   8
ATOM      8  O   LIG    1       -1.978  -2.802  -1.153  0.00  0.00    -0.300 OA
ATOM      9  C   LIG    1       -3.037  -2.043  -1.741  0.00  0.00    +0.240 C 
ENDBRANCH   3   8
BRANCH   7  10
ATOM     10  O   LIG    1        2.167  -2.712   1.192  0.00  0.00    -0.300 OA
ATOM     11  C   LIG    1        3.192  -1.909   1.782  0.00  0.00    +0.240 C 
ENDBRANCH   7  10
BRANCH   2  12
ATOM     12  O   LIG    1        0.125  -4.137   0.018  0.00  0.00    -0.310 OA
BRANCH  12  14
ATOM     13  C   LIG    1        0.701  -6.289  -0.918  0.00  0.00    +0.040 C 
ATOM     14  C   LIG    1        0.766  -4.771  -1.091  0.00  0.00    +0.160 C 
ENDBRANCH  12  14
ENDBRANCH   2  12
ENDBRANCH   1   5
BRANCH   1  15
ATOM     15  N   LIG    1       -0.689   1.975   1.225  0.00  0.00    -0.730 N 
ATOM     16  H   LIG    1       -1.038   1.337   1.866  0.00  0.00    +0.400 HD
ATOM     17  C   LIG    1       -0.839   3.297   1.440  0.00  0.00    +0.710 C 
ATOM     18  N   LIG    1       -1.474   3.732   2.546  0.00  0.00    -0.680 N 
ATOM     19  H   LIG    1       -1.894   3.096   3.146  0.00  0.00    +0.410 HD
ATOM     20  O   LIG    1       -0.402   4.097   0.635  0.00  0.00    -0.570 OA
BRANCH  18  21
ATOM     21  C   LIG    1       -1.527   5.104   2.830  0.00  0.00    +0.130 A 
ATOM     22  C   LIG    1       -0.556   5.956   2.325  0.00  0.00    +0.090 A 
ATOM     23  C   LIG    1       -0.613   7.309   2.602  0.00  0.00    +0.010 A 
ATOM     24  C   LIG    1       -1.631   7.813   3.392  0.00  0.00    +0.110 A 
ATOM     25  C   LIG    1       -2.600   6.965   3.902  0.00  0.00    -0.020 A 
ATOM     26  F   LIG    1       -1.681   9.136   3.665  0.00  0.00    -0.130 F 
ATOM     27  C   LIG    1       -2.551   5.612   3.623  0.00  0.00    +0.090 A 
ATOM     28  F   LIG    1       -3.495   4.784   4.121  0.00  0.00    -0.130 F 
ENDBRANCH  18  21
ENDBRANCH   1  15
TORSDOF 7
