REMARK  Name = ZINCkj000005f9m0.0
REMARK                            x       y       z     vdW  Elec       q    Type
REMARK                         _______ _______ _______ _____ _____    ______ ____
ROOT
ATOM      1  C   LIG    1        1.146   1.654  -0.018  0.00  0.00    +0.590 C 
ATOM      2  N   LIG    1       -0.012   0.964  -0.035  0.00  0.00    -0.750 N 
ATOM      3  H   LIG    1        0.002  -0.006  -0.052  0.00  0.00    +0.400 HD
ATOM      4  O   LIG    1        1.129   2.870   0.003  0.00  0.00    -0.530 OA
ENDROOT
BRANCH   1  10
ATOM      5  C   LIG    1        3.645   1.638  -0.135  0.00  0.00    +0.460 A 
ATOM      6  N   LIG    1        4.798   0.988  -0.137  0.00  0.00    -0.540 NA
ATOM      7  C   LIG    1        4.854  -0.327  -0.045  0.00  0.00    +0.370 A 
ATOM      8  C   LIG    1        3.704  -1.088   0.061  0.00  0.00    -0.110 A 
ATOM      9  C   LIG    1        2.470  -0.460   0.072  0.00  0.00    +0.130 A 
ATOM     10  C   LIG    1        2.433   0.935  -0.025  0.00  0.00    -0.290 A 
BRANCH   5  11
ATOM     11  N   LIG    1        3.633   3.017  -0.238  0.00  0.00    -0.690 N 
ATOM     12  H   LIG    1        2.797   3.502  -0.156  0.00  0.00    +0.420 HD
BRANCH  11  14
ATOM     13  C   LIG    1        4.575   5.083  -1.148  0.00  0.00    +0.040 C 
ATOM     14  C   LIG    1        4.883   3.745  -0.473  0.00  0.00    +0.230 C 
ATOM     15  C   LIG    1        5.584   3.997   0.864  0.00  0.00    +0.020 C 
ENDBRANCH  11  14
ENDBRANCH   5  11
ENDBRANCH   1  10
BRANCH   2  16
ATOM     16  C   LIG    1       -1.290   1.679  -0.034  0.00  0.00    +0.320 C 
BRANCH  16  17
ATOM     17  C   LIG    1       -2.439   0.668  -0.062  0.00  0.00    +0.180 C 
ATOM     18  C   LIG    1       -3.794   1.389   0.106  0.00  0.00    +0.090 C 
ATOM     19  C   LIG    1       -4.647   0.442   0.975  0.00  0.00    +0.220 C 
ATOM     20  C   LIG    1       -3.735  -0.771   1.260  0.00  0.00    +0.280 C 
ATOM     21  F   LIG    1       -5.005   1.072   2.172  0.00  0.00    -0.180 F 
ATOM     22  N   LIG    1       -2.352  -0.248   1.104  0.00  0.00    -0.520 N 
ATOM     23  H   LIG    1       -2.073   0.259   1.931  0.00  0.00    +0.440 HD
ATOM     24  H   LIG    1       -1.707  -1.000   0.915  0.00  0.00    +0.430 HD
ENDBRANCH  16  17
ENDBRANCH   2  16
TORSDOF 5
