REMARK  Name = ZINCrH000004nOIj.0
REMARK                            x       y       z     vdW  Elec       q    Type
REMARK                         _______ _______ _______ _____ _____    ______ ____
ROOT
ATOM      1  C   LIG    1       -4.013   2.018   0.052  0.00  0.00    +0.560 C 
ATOM      2  N   LIG    1       -2.676   2.167  -0.033  0.00  0.00    -0.610 N 
ATOM      3  C   LIG    1       -1.908   2.690   1.106  0.00  0.00    +0.270 C 
ATOM      4  C   LIG    1       -1.072   3.882   0.630  0.00  0.00    +0.020 C 
ATOM      5  C   LIG    1       -0.214   3.455  -0.563  0.00  0.00    +0.040 C 
ATOM      6  C   LIG    1       -1.122   3.013  -1.713  0.00  0.00    +0.070 C 
ATOM      7  C   LIG    1       -1.959   1.811  -1.264  0.00  0.00    +0.320 C 
ATOM      8  O   LIG    1       -4.650   1.682  -0.928  0.00  0.00    -0.530 OA
ENDROOT
BRANCH   6   9
ATOM      9  C   LIG    1       -0.278   2.623  -2.899  0.00  0.00    +0.100 A 
ATOM     10  N   LIG    1        0.599   1.692  -2.884  0.00  0.00    -0.460 NA
ATOM     11  C   LIG    1        1.279   1.449  -4.020  0.00  0.00    +0.080 A 
ATOM     12  C   LIG    1        2.282   0.494  -4.283  0.00  0.00    +0.080 A 
ATOM     13  C   LIG    1        2.854   0.416  -5.516  0.00  0.00    +0.030 A 
ATOM     14  C   LIG    1        2.462   1.271  -6.536  0.00  0.00    +0.040 A 
ATOM     15  C   LIG    1        1.483   2.213  -6.309  0.00  0.00    +0.060 A 
ATOM     16  C   LIG    1        0.888   2.308  -5.053  0.00  0.00    -0.180 A 
ATOM     17  S   LIG    1       -0.367   3.374  -4.429  0.00  0.00    +0.110 S 
ENDBRANCH   6   9
BRANCH   1  22
ATOM     18  C   LIG    1       -6.621   3.053   2.549  0.00  0.00    -0.670 A 
ATOM     19  C   LIG    1       -6.001   2.720   3.739  0.00  0.00    +0.150 A 
ATOM     20  C   LIG    1       -4.736   2.158   3.735  0.00  0.00    +0.000 A 
ATOM     21  C   LIG    1       -4.087   1.923   2.540  0.00  0.00    +0.100 A 
ATOM     22  C   LIG    1       -4.705   2.262   1.335  0.00  0.00    -0.150 A 
ATOM     23  C   LIG    1       -5.980   2.828   1.347  0.00  0.00    +0.180 A 
BRANCH  18  25
ATOM     24  C   LIG    1       -9.357   2.347   2.491  0.00  0.00    -0.250 C 
ATOM     25  S   LIG    1       -8.231   3.767   2.566  0.00  0.00    +2.500 S 
ATOM     26  O   LIG    1       -8.295   4.518   1.361  0.00  0.00    -0.930 OA
ATOM     27  O   LIG    1       -8.318   4.406   3.832  0.00  0.00    -0.930 OA
ENDBRANCH  18  25
ENDBRANCH   1  22
TORSDOF 3
