REMARK  Name = ZINCvU0000000B2j.0
REMARK                            x       y       z     vdW  Elec       q    Type
REMARK                         _______ _______ _______ _____ _____    ______ ____
ROOT
ATOM      1  C   LIG    1        2.363  -0.122  -2.476  0.00  0.00    -0.660 A 
ATOM      2  C   LIG    1        3.479   0.104  -3.220  0.00  0.00    +0.210 A 
ATOM      3  C   LIG    1        3.366   0.308  -4.608  0.00  0.00    +0.060 A 
ATOM      4  N   LIG    1        4.457   0.529  -5.349  0.00  0.00    -0.400 NA
ATOM      5  C   LIG    1        4.345   0.713  -6.649  0.00  0.00    +0.150 A 
ATOM      6  C   LIG    1        3.011   0.678  -7.275  0.00  0.00    +0.180 A 
ATOM      7  C   LIG    1        3.208   0.912  -8.719  0.00  0.00    -0.070 A 
ATOM      8  C   LIG    1        4.585   1.073  -8.914  0.00  0.00    -0.050 A 
ATOM      9  C   LIG    1        5.166   1.312 -10.165  0.00  0.00    -0.060 A 
ATOM     10  C   LIG    1        6.564   1.453 -10.217  0.00  0.00    +0.080 A 
ATOM     11  C   LIG    1        7.284   1.353  -9.059  0.00  0.00    +0.010 A 
ATOM     12  C   LIG    1        6.694   1.114  -7.820  0.00  0.00    +0.120 A 
ATOM     13  C   LIG    1        4.309   1.394 -11.276  0.00  0.00    +0.090 A 
ATOM     14  C   LIG    1        2.963   1.239 -11.089  0.00  0.00    +0.010 A 
ATOM     15  C   LIG    1        2.397   1.000  -9.838  0.00  0.00    +0.120 A 
ATOM     16  N   LIG    1        1.948   0.465  -6.527  0.00  0.00    -0.430 NA
ATOM     17  C   LIG    1        5.319   0.968  -7.727  0.00  0.00    -0.070 A 
ATOM     18  C   LIG    1        2.083   0.275  -5.211  0.00  0.00    +0.130 A 
ATOM     19  C   LIG    1        0.952   0.039  -4.407  0.00  0.00    +0.060 A 
ATOM     20  C   LIG    1        1.102  -0.161  -3.069  0.00  0.00    +0.120 A 
ENDROOT
BRANCH   1  22
ATOM     21  O   LIG    1        3.840  -0.834  -0.514  0.00  0.00    -0.940 OA
ATOM     22  S   LIG    1        2.513  -0.378  -0.739  0.00  0.00    +2.700 S 
ATOM     23  O   LIG    1        1.361  -1.108  -0.340  0.00  0.00    -0.940 OA
BRANCH  22  24
ATOM     24  N   LIG    1        2.401   1.107  -0.014  0.00  0.00    -1.050 N 
ATOM     25  H   LIG    1        3.138   1.444   0.519  0.00  0.00    +0.430 HD
BRANCH  24  26
ATOM     26  C   LIG    1        1.244   1.875  -0.170  0.00  0.00    +0.160 A 
ATOM     27  C   LIG    1        0.002   1.257  -0.237  0.00  0.00    +0.010 A 
ATOM     28  C   LIG    1       -1.139   2.019  -0.397  0.00  0.00    +0.060 A 
ATOM     29  C   LIG    1       -1.048   3.396  -0.478  0.00  0.00    +0.020 A 
ATOM     30  C   LIG    1        0.187   4.016  -0.413  0.00  0.00    +0.050 A 
ATOM     31  C   LIG    1        1.333   3.260  -0.259  0.00  0.00    -0.060 A 
ATOM     32 CL   LIG    1        2.883   4.038  -0.175  0.00  0.00    -0.060 Cl
ENDBRANCH  24  26
ENDBRANCH  22  24
ENDBRANCH   1  22
TORSDOF 3
