REMARK  Name = ZINCpe000000YTSD.0
REMARK                            x       y       z     vdW  Elec       q    Type
REMARK                         _______ _______ _______ _____ _____    ______ ____
ROOT
ATOM      1  N   LIG    1        3.793  -0.731  -3.611  0.00  0.00    -0.520 NA
ATOM      2  C   LIG    1        4.546   0.397  -3.046  0.00  0.00    +0.190 C 
ATOM      3  C   LIG    1        4.154   0.586  -1.579  0.00  0.00    +0.190 C 
ATOM      4  N   LIG    1        2.707   0.825  -1.488  0.00  0.00    -0.540 NA
ATOM      5  C   LIG    1        1.953  -0.304  -2.053  0.00  0.00    +0.190 C 
ATOM      6  C   LIG    1        2.345  -0.493  -3.520  0.00  0.00    +0.190 C 
ENDROOT
BRANCH   1   7
ATOM      7  C   LIG    1        4.197  -0.993  -4.998  0.00  0.00    +0.220 C 
BRANCH   7   9
ATOM      8  O   LIG    1        6.207  -1.699  -3.983  0.00  0.00    -0.510 OA
ATOM      9  C   LIG    1        5.625  -1.475  -5.023  0.00  0.00    +0.520 C 
ATOM     10  N   LIG    1        6.254  -1.658  -6.201  0.00  0.00    -0.730 N 
ATOM     11  H   LIG    1        5.788  -1.479  -7.033  0.00  0.00    +0.400 HD
BRANCH  10  12
ATOM     12  C   LIG    1        7.641  -2.127  -6.225  0.00  0.00    +0.270 C 
ATOM     13  C   LIG    1        7.668  -3.665  -6.171  0.00  0.00    +0.060 C 
ATOM     14  C   LIG    1        9.113  -4.097  -6.529  0.00  0.00    -0.300 C 
ATOM     15  S   LIG    1        9.522  -2.990  -7.931  0.00  0.00    +2.400 S 
ATOM     16  O   LIG    1       10.842  -2.491  -7.769  0.00  0.00    -0.930 OA
ATOM     17  O   LIG    1        9.145  -3.616  -9.150  0.00  0.00    -0.930 OA
ATOM     18  C   LIG    1        8.321  -1.669  -7.531  0.00  0.00    -0.320 C 
ENDBRANCH  10  12
ENDBRANCH   7   9
ENDBRANCH   1   7
BRANCH   4  19
ATOM     19  C   LIG    1        2.302   1.086  -0.100  0.00  0.00    +0.230 C 
BRANCH  19  20
ATOM     20  C   LIG    1        0.873   1.565  -0.075  0.00  0.00    -0.060 A 
ATOM     21  C   LIG    1       -0.159   0.652   0.040  0.00  0.00    +0.020 A 
ATOM     22  C   LIG    1       -1.470   1.091   0.057  0.00  0.00    +0.040 A 
ATOM     23  C   LIG    1       -1.748   2.443  -0.029  0.00  0.00    -0.090 A 
ATOM     24  C   LIG    1       -0.715   3.355  -0.145  0.00  0.00    +0.040 A 
ATOM     25 BR   LIG    1       -3.541   3.043   0.002  0.00  0.00    -0.050 Br
ATOM     26  C   LIG    1        0.596   2.916  -0.167  0.00  0.00    +0.040 A 
ENDBRANCH  19  20
ENDBRANCH   4  19
TORSDOF 5
