REMARK  Name = ZINCrD0000075Uee.0
REMARK                            x       y       z     vdW  Elec       q    Type
REMARK                         _______ _______ _______ _____ _____    ______ ____
ROOT
ATOM      1  C   LIG    1        0.715  -0.066  -1.704  0.00  0.00    -0.030 C 
ATOM      2  C   LIG    1       -0.061   0.207  -0.414  0.00  0.00    +0.040 C 
ATOM      3  C   LIG    1       -0.068   1.714  -0.136  0.00  0.00    +0.280 C 
ATOM      4  N   LIG    1        1.319   2.198  -0.120  0.00  0.00    -0.610 N 
ATOM      5  C   LIG    1        2.182   1.909  -1.274  0.00  0.00    +0.280 C 
ATOM      6  C   LIG    1        1.791   2.893   0.934  0.00  0.00    +0.560 C 
ATOM      7  O   LIG    1        1.048   3.191   1.848  0.00  0.00    -0.520 OA
ATOM      8  C   LIG    1        2.163   0.401  -1.538  0.00  0.00    +0.050 C 
ENDROOT
BRANCH   6   9
ATOM      9  C   LIG    1        3.212   3.293   0.978  0.00  0.00    -0.170 A 
ATOM     10  C   LIG    1        3.772   4.012  -0.081  0.00  0.00    +0.080 A 
ATOM     11  C   LIG    1        5.099   4.383  -0.034  0.00  0.00    +0.010 A 
ATOM     12  C   LIG    1        5.879   4.044   1.059  0.00  0.00    +0.070 A 
ATOM     13  C   LIG    1        5.334   3.333   2.111  0.00  0.00    -0.020 A 
ATOM     14  C   LIG    1        4.003   2.959   2.082  0.00  0.00    +0.150 A 
ATOM     15  F   LIG    1        3.470   2.269   3.113  0.00  0.00    -0.120 F 
ENDBRANCH   6   9
BRANCH   1  17
ATOM     16  O   LIG    1        0.543  -2.340  -1.096  0.00  0.00    -0.440 OA
ATOM     17  C   LIG    1        0.695  -1.544  -1.998  0.00  0.00    +0.410 C 
BRANCH  17  18
ATOM     18  C   LIG    1        0.860  -2.020  -3.378  0.00  0.00    -0.170 A 
ATOM     19  C   LIG    1        1.030  -1.104  -4.422  0.00  0.00    +0.070 A 
ATOM     20  C   LIG    1        1.188  -1.555  -5.713  0.00  0.00    +0.010 A 
ATOM     21  C   LIG    1        1.168  -2.918  -5.987  0.00  0.00    +0.090 A 
ATOM     22  O   LIG    1        1.317  -3.338  -7.271  0.00  0.00    -0.300 OA
ATOM     23  C   LIG    1        1.670  -4.712  -7.462  0.00  0.00    +0.230 C 
ATOM     24  C   LIG    1        0.766  -5.569  -6.566  0.00  0.00    +0.230 C 
ATOM     25  O   LIG    1        0.980  -5.174  -5.206  0.00  0.00    -0.300 OA
ATOM     26  C   LIG    1        0.996  -3.837  -4.953  0.00  0.00    +0.040 A 
ATOM     27  C   LIG    1        0.841  -3.393  -3.654  0.00  0.00    +0.100 A 
ENDBRANCH  17  18
ENDBRANCH   1  17
TORSDOF 3
