REMARK  Name = ZINCrH000004sm8i.0
REMARK                            x       y       z     vdW  Elec       q    Type
REMARK                         _______ _______ _______ _____ _____    ______ ____
ROOT
ATOM      1  C   LIG    1       -0.753   1.593  -1.232  0.00  0.00    +0.270 C 
ENDROOT
BRANCH   1   2
ATOM      2  N   LIG    1       -0.067   1.120  -2.437  0.00  0.00    -0.730 N 
ATOM      3  H   LIG    1        0.730   0.573  -2.358  0.00  0.00    +0.400 HD
ATOM      4  C   LIG    1       -0.543   1.446  -3.655  0.00  0.00    +0.510 C 
ATOM      5  O   LIG    1       -1.540   2.130  -3.753  0.00  0.00    -0.510 OA
BRANCH   4   6
ATOM      6  C   LIG    1        0.162   0.960  -4.895  0.00  0.00    +0.240 C 
BRANCH   6   7
ATOM      7  O   LIG    1       -0.529   1.433  -6.052  0.00  0.00    -0.280 OA
BRANCH   7   8
ATOM      8  C   LIG    1       -0.020   1.082  -7.261  0.00  0.00    +0.160 A 
ATOM      9  C   LIG    1        1.127   0.301  -7.329  0.00  0.00    -0.070 A 
ATOM     10  C   LIG    1        1.644  -0.062  -8.552  0.00  0.00    +0.110 A 
ATOM     11  C   LIG    1        1.020   0.365  -9.727  0.00  0.00    -0.070 A 
ATOM     12  C   LIG    1       -0.131   1.155  -9.654  0.00  0.00    +0.110 A 
ATOM     13  C   LIG    1       -0.644   1.510  -8.426  0.00  0.00    +0.000 A 
BRANCH  11  14
ATOM     14  C   LIG    1        1.557  -0.005 -11.002  0.00  0.00    +0.250 C 
ATOM     15  N   LIG    1        1.983  -0.298 -12.013  0.00  0.00    -0.420 NA
ENDBRANCH  11  14
ENDBRANCH   7   8
ENDBRANCH   6   7
ENDBRANCH   4   6
ENDBRANCH   1   2
BRANCH   1  16
ATOM     16  C   LIG    1       -0.013   1.086   0.008  0.00  0.00    +0.070 C 
BRANCH  16  20
ATOM     17  C   LIG    1       -2.013   2.464   3.526  0.00  0.00    -0.020 A 
ATOM     18  C   LIG    1       -2.369   1.245   2.952  0.00  0.00    +0.050 A 
ATOM     19  C   LIG    1       -1.720   0.805   1.816  0.00  0.00    +0.020 A 
ATOM     20  C   LIG    1       -0.718   1.572   1.248  0.00  0.00    -0.080 A 
ATOM     21  C   LIG    1       -0.357   2.780   1.817  0.00  0.00    +0.020 A 
ATOM     22  C   LIG    1       -1.003   3.232   2.950  0.00  0.00    +0.030 A 
BRANCH  17  26
ATOM     23  C   LIG    1       -5.304   2.151   7.205  0.00  0.00    +0.180 C 
ATOM     24  C   LIG    1       -4.198   2.778   6.397  0.00  0.00    +0.050 A 
ATOM     25  N   LIG    1       -3.677   2.260   5.340  0.00  0.00    -0.470 NA
ATOM     26  C   LIG    1       -2.706   2.942   4.748  0.00  0.00    +0.110 A 
ATOM     27  C   LIG    1       -2.409   4.111   5.351  0.00  0.00    -0.080 A 
ATOM     28  S   LIG    1       -3.464   4.281   6.751  0.00  0.00    +0.130 S 
ENDBRANCH  17  26
ENDBRANCH  16  20
ENDBRANCH   1  16
TORSDOF 8
