REMARK  Name = ZINCpe00000gM0KR.0
REMARK                            x       y       z     vdW  Elec       q    Type
REMARK                         _______ _______ _______ _____ _____    ______ ____
ROOT
ATOM      1  N   LIG    1       -4.124  -4.902   0.988  0.00  0.00    -0.530 NA
ATOM      2  C   LIG    1       -5.234  -3.951   1.138  0.00  0.00    +0.170 C 
ATOM      3  C   LIG    1       -5.170  -2.915   0.011  0.00  0.00    +0.300 C 
ATOM      4  N   LIG    1       -3.829  -2.310   0.008  0.00  0.00    -0.610 N 
ATOM      5  C   LIG    1       -2.662  -3.205  -0.009  0.00  0.00    +0.290 C 
ATOM      6  C   LIG    1       -3.675  -0.971   0.014  0.00  0.00    +0.520 C 
ATOM      7  O   LIG    1       -4.648  -0.248   0.023  0.00  0.00    -0.510 OA
ATOM      8  C   LIG    1       -2.825  -4.230   1.125  0.00  0.00    +0.170 C 
ENDROOT
BRANCH   1   9
ATOM      9  C   LIG    1       -4.247  -6.010   1.944  0.00  0.00    +0.140 C 
BRANCH   9  10
ATOM     10  C   LIG    1       -2.961  -6.838   1.933  0.00  0.00    +0.200 C 
BRANCH  10  12
ATOM     11  C   LIG    1       -1.760  -8.746   3.011  0.00  0.00    +0.010 C 
ATOM     12  C   LIG    1       -3.089  -7.992   2.930  0.00  0.00    -0.020 C 
ENDBRANCH  10  12
BRANCH  10  13
ATOM     13  O   LIG    1       -2.743  -7.363   0.622  0.00  0.00    -0.550 OA
ATOM     14  H   LIG    1       -3.454  -7.936   0.305  0.00  0.00    +0.380 HD
ENDBRANCH  10  13
ENDBRANCH   9  10
ENDBRANCH   1   9
BRANCH   6  15
ATOM     15  C   LIG    1       -2.292  -0.372   0.011  0.00  0.00    +0.240 C 
BRANCH  15  16
ATOM     16  O   LIG    1       -2.390   1.053   0.019  0.00  0.00    -0.270 OA
BRANCH  16  17
ATOM     17  C   LIG    1       -1.224   1.752   0.017  0.00  0.00    +0.130 A 
ATOM     18  C   LIG    1       -0.013   1.076   0.008  0.00  0.00    -0.030 A 
ATOM     19  C   LIG    1        1.173   1.780   0.000  0.00  0.00    +0.080 A 
ATOM     20  C   LIG    1        1.156   3.176   0.008  0.00  0.00    -0.030 A 
ATOM     21  C   LIG    1       -0.065   3.857   0.022  0.00  0.00    +0.020 A 
ATOM     22  C   LIG    1       -1.249   3.146   0.030  0.00  0.00    +0.110 A 
BRANCH  20  23
ATOM     23  C   LIG    1        2.386   3.909  -0.001  0.00  0.00    +0.250 C 
ATOM     24  N   LIG    1        3.362   4.491  -0.007  0.00  0.00    -0.410 NA
ENDBRANCH  20  23
BRANCH  22  25
ATOM     25  O   LIG    1       -2.438   3.804   0.044  0.00  0.00    -0.300 OA
ATOM     26  C   LIG    1       -2.389   5.233   0.051  0.00  0.00    +0.250 C 
ENDBRANCH  22  25
ENDBRANCH  16  17
ENDBRANCH  15  16
ENDBRANCH   6  15
TORSDOF 9
