REMARK  Name = ZINCpk000004ASnQ.0
REMARK                            x       y       z     vdW  Elec       q    Type
REMARK                         _______ _______ _______ _____ _____    ______ ____
ROOT
ATOM      1  C   LIG    1       -3.580  -2.078   4.850  0.00  0.00    +0.520 C 
ATOM      2  N   LIG    1       -3.506  -0.963   4.096  0.00  0.00    -0.610 N 
ATOM      3  C   LIG    1       -4.692  -0.451   3.397  0.00  0.00    +0.300 C 
ATOM      4  C   LIG    1       -4.354  -0.278   1.913  0.00  0.00    +0.060 C 
ATOM      5  C   LIG    1       -3.113   0.608   1.777  0.00  0.00    -0.420 C 
ATOM      6  C   LIG    1       -1.925  -0.065   2.468  0.00  0.00    +0.050 C 
ATOM      7  C   LIG    1       -2.236  -0.235   3.958  0.00  0.00    +0.290 C 
ATOM      8  O   LIG    1       -4.633  -2.669   4.955  0.00  0.00    -0.530 OA
ENDROOT
BRANCH   5   9
ATOM      9  S   LIG    1       -2.733   0.849   0.020  0.00  0.00    +2.490 S 
ATOM     10  O   LIG    1       -2.404  -0.390  -0.594  0.00  0.00    -0.930 OA
ATOM     11  O   LIG    1       -3.670   1.736  -0.576  0.00  0.00    -0.930 OA
BRANCH   9  12
ATOM     12  C   LIG    1       -1.219   1.751   0.017  0.00  0.00    -0.670 A 
ATOM     13  C   LIG    1       -0.013   1.076   0.008  0.00  0.00    +0.120 A 
ATOM     14  C   LIG    1        1.175   1.783   0.000  0.00  0.00    -0.010 A 
ATOM     15  C   LIG    1        1.156   3.165   0.008  0.00  0.00    -0.030 A 
ATOM     16  C   LIG    1       -0.050   3.840   0.023  0.00  0.00    -0.010 A 
ATOM     17  C   LIG    1        2.451   3.937  -0.001  0.00  0.00    +0.090 C 
ATOM     18  C   LIG    1       -1.238   3.133   0.030  0.00  0.00    +0.120 A 
ENDBRANCH   9  12
ENDBRANCH   5   9
BRANCH   1  19
ATOM     19  C   LIG    1       -2.354  -2.590   5.561  0.00  0.00    +0.050 C 
BRANCH  19  20
ATOM     20  C   LIG    1       -2.708  -3.858   6.340  0.00  0.00    +0.290 C 
BRANCH  20  22
ATOM     21  C   LIG    1       -1.590  -5.471   7.784  0.00  0.00    +0.540 C 
ATOM     22  N   LIG    1       -1.516  -4.356   7.031  0.00  0.00    -0.730 N 
ATOM     23  H   LIG    1       -0.674  -3.882   6.947  0.00  0.00    +0.400 HD
ATOM     24  O   LIG    1       -2.647  -6.064   7.890  0.00  0.00    -0.540 OA
BRANCH  21  26
ATOM     25  C   LIG    1       -0.467  -7.071   9.222  0.00  0.00    +0.150 C 
ATOM     26  C   LIG    1       -0.394  -5.970   8.479  0.00  0.00    -0.090 C 
ENDBRANCH  21  26
ENDBRANCH  20  22
ENDBRANCH  19  20
ENDBRANCH   1  19
TORSDOF 6
