REMARK  Name = ZINCvU00000008EG.0
REMARK                            x       y       z     vdW  Elec       q    Type
REMARK                         _______ _______ _______ _____ _____    ______ ____
ROOT
ATOM      1  C   LIG    1       -1.953  -0.616  -1.973  0.00  0.00    +0.160 C 
ATOM      2  C   LIG    1       -2.808  -0.066  -0.861  0.00  0.00    +0.100 A 
ATOM      3  N   LIG    1       -4.003  -0.477  -0.539  0.00  0.00    -0.280 NA
ATOM      4  N   LIG    1       -4.470   0.282   0.540  0.00  0.00    -0.350 N 
ATOM      5  C   LIG    1       -3.521   1.172   0.877  0.00  0.00    +0.120 A 
ATOM      6  C   LIG    1       -3.606   2.190   1.986  0.00  0.00    +0.150 C 
ATOM      7  C   LIG    1       -2.454   0.983   0.019  0.00  0.00    -0.240 A 
ENDROOT
BRANCH   7   8
ATOM      8  C   LIG    1       -1.191   1.735   0.017  0.00  0.00    +0.180 C 
ATOM      9  C   LIG    1       -0.013   1.076   0.008  0.00  0.00    -0.100 C 
BRANCH   9  10
ATOM     10  C   LIG    1        1.206   1.802   0.000  0.00  0.00    +0.570 C 
ATOM     11  N   LIG    1        2.382   1.144  -0.015  0.00  0.00    -0.620 N 
ATOM     12  C   LIG    1        2.547  -0.321  -0.018  0.00  0.00    +0.250 C 
ATOM     13  C   LIG    1        3.955  -0.565   0.575  0.00  0.00    +0.040 C 
ATOM     14  C   LIG    1        4.754   0.629  -0.012  0.00  0.00    +0.050 C 
ATOM     15  C   LIG    1        3.713   1.768  -0.024  0.00  0.00    +0.270 C 
ATOM     16  O   LIG    1        1.189   3.019   0.007  0.00  0.00    -0.540 OA
BRANCH  15  17
ATOM     17  C   LIG    1        3.878   2.604  -1.267  0.00  0.00    -0.140 A 
ATOM     18  C   LIG    1        4.544   3.819  -1.212  0.00  0.00    +0.070 A 
ATOM     19  C   LIG    1        4.672   4.554  -2.381  0.00  0.00    -0.030 A 
ATOM     20  C   LIG    1        4.136   4.055  -3.553  0.00  0.00    +0.240 A 
ATOM     21  N   LIG    1        3.510   2.895  -3.568  0.00  0.00    -0.480 NA
ATOM     22  C   LIG    1        3.373   2.167  -2.477  0.00  0.00    +0.270 A 
ENDBRANCH  15  17
ENDBRANCH   9  10
ENDBRANCH   7   8
BRANCH   4  23
ATOM     23  C   LIG    1       -5.773   0.132   1.192  0.00  0.00    +0.400 C 
BRANCH  23  24
ATOM     24  C   LIG    1       -6.781   1.021   0.511  0.00  0.00    -0.110 A 
ATOM     25  C   LIG    1       -6.973   2.317   0.956  0.00  0.00    -0.010 A 
ATOM     26  C   LIG    1       -7.894   3.135   0.326  0.00  0.00    +0.030 A 
ATOM     27  C   LIG    1       -8.632   2.654  -0.740  0.00  0.00    +0.070 A 
ATOM     28  C   LIG    1       -8.444   1.358  -1.181  0.00  0.00    +0.030 A 
ATOM     29 CL   LIG    1       -6.053   2.919   2.299  0.00  0.00    -0.040 Cl
ATOM     30  C   LIG    1       -7.519   0.541  -0.556  0.00  0.00    -0.000 A 
ATOM     31 CL   LIG    1       -7.283  -1.087  -1.111  0.00  0.00    -0.040 Cl
ENDBRANCH  23  24
ENDBRANCH   4  23
TORSDOF 5
