REMARK  Name = ZINCpk00000y6vBG.0
REMARK                            x       y       z     vdW  Elec       q    Type
REMARK                         _______ _______ _______ _____ _____    ______ ____
ROOT
ATOM      1  N   LIG    1        3.430   5.493  -0.840  0.00  0.00    -0.730 N 
ATOM      2  H   LIG    1        2.668   5.402  -1.433  0.00  0.00    +0.400 HD
ATOM      3  C   LIG    1        3.932   4.409  -0.217  0.00  0.00    +0.530 C 
ATOM      4  O   LIG    1        4.885   4.523   0.525  0.00  0.00    -0.520 OA
ENDROOT
BRANCH   3   5
ATOM      5  C   LIG    1        3.309   3.055  -0.441  0.00  0.00    -0.010 C 
ATOM      6  C   LIG    1        4.064   2.004   0.378  0.00  0.00    +0.070 C 
ATOM      7  C   LIG    1        3.580   0.605  -0.025  0.00  0.00    +0.170 C 
ATOM      8  C   LIG    1        2.071   0.606  -0.013  0.00  0.00    +0.280 A 
ATOM      9  N   LIG    1        1.270  -0.421  -0.012  0.00  0.00    -0.540 NA
ATOM     10  C   LIG    1        0.002  -0.004   0.002  0.00  0.00    +0.220 A 
ATOM     11  N   LIG    1       -0.016   1.306   0.009  0.00  0.00    -0.310 NA
ATOM     12  C   LIG    1       -1.213  -0.896   0.009  0.00  0.00    +0.190 C 
ATOM     13  N   LIG    1        1.318   1.723  -0.001  0.00  0.00    -0.380 N 
ATOM     14  C   LIG    1        1.841   3.089  -0.001  0.00  0.00    +0.340 C 
ENDBRANCH   3   5
BRANCH   1  15
ATOM     15  C   LIG    1        4.036   6.809  -0.622  0.00  0.00    +0.280 C 
BRANCH  15  16
ATOM     16  C   LIG    1        3.282   7.859  -1.441  0.00  0.00    +0.130 C 
BRANCH  16  24
ATOM     17  C   LIG    1        4.882  11.803   2.169  0.00  0.00    +0.120 C 
ATOM     18  C   LIG    1        5.076  11.983   0.686  0.00  0.00    -0.040 A 
ATOM     19  C   LIG    1        5.649  13.118   0.200  0.00  0.00    +0.030 A 
ATOM     20  C   LIG    1        5.823  13.272  -1.185  0.00  0.00    +0.020 A 
ATOM     21  C   LIG    1        5.426  12.300  -2.033  0.00  0.00    +0.200 A 
ATOM     22  N   LIG    1        4.850  11.157  -1.560  0.00  0.00    -0.360 N 
ATOM     23  C   LIG    1        4.371  10.036  -2.181  0.00  0.00    +0.090 A 
ATOM     24  C   LIG    1        3.905   9.213  -1.216  0.00  0.00    +0.060 A 
ATOM     25  N   LIG    1        4.094   9.797  -0.030  0.00  0.00    -0.480 NA
ATOM     26  C   LIG    1        4.666  10.978  -0.213  0.00  0.00    +0.230 A 
ENDBRANCH  16  24
ENDBRANCH  15  16
ENDBRANCH   1  15
TORSDOF 4
