REMARK  Name = ZINCkj000005l1BI.0
REMARK                            x       y       z     vdW  Elec       q    Type
REMARK                         _______ _______ _______ _____ _____    ______ ____
ROOT
ATOM      1  C   LIG    1        0.082   7.748   0.042  0.00  0.00    +0.300 C 
ENDROOT
BRANCH   1   2
ATOM      2  N   LIG    1        0.778   8.039  -1.218  0.00  0.00    -0.510 N 
ATOM      3  H   LIG    1        0.147   7.892  -1.992  0.00  0.00    +0.430 HD
ATOM      4  H   LIG    1        1.574   7.426  -1.312  0.00  0.00    +0.430 HD
BRANCH   2   5
ATOM      5  C   LIG    1        1.233   9.436  -1.216  0.00  0.00    +0.390 C 
BRANCH   5  11
ATOM      6  C   LIG    1        4.254   8.915  -1.875  0.00  0.00    +0.340 C 
ATOM      7  N   LIG    1        3.267   9.502  -2.784  0.00  0.00    -0.460 N 
ATOM      8  C   LIG    1        3.489   9.913  -4.051  0.00  0.00    +0.460 A 
ATOM      9  N   LIG    1        2.374  10.384  -4.540  0.00  0.00    -0.490 NA
ATOM     10  C   LIG    1        1.409  10.287  -3.613  0.00  0.00    +0.230 A 
ATOM     11  C   LIG    1        1.946   9.735  -2.509  0.00  0.00    -0.130 A 
ENDBRANCH   5  11
ENDBRANCH   2   5
ENDBRANCH   1   2
BRANCH   1  12
ATOM     12  C   LIG    1       -0.391   6.293   0.039  0.00  0.00    +0.220 C 
BRANCH  12  13
ATOM     13  O   LIG    1        0.743   5.423   0.024  0.00  0.00    -0.330 OA
BRANCH  13  14
ATOM     14  C   LIG    1        0.495   4.086   0.019  0.00  0.00    +0.130 A 
ATOM     15  C   LIG    1       -0.812   3.624   0.029  0.00  0.00    -0.050 A 
ATOM     16  C   LIG    1       -1.067   2.265   0.019  0.00  0.00    +0.090 A 
ATOM     17  C   LIG    1       -0.016   1.362   0.009  0.00  0.00    +0.010 A 
ATOM     18  O   LIG    1        0.002  -0.004   0.002  0.00  0.00    -0.300 OA
ATOM     19  C   LIG    1        1.336  -0.372   0.400  0.00  0.00    +0.440 C 
ATOM     20  O   LIG    1        2.138   0.749  -0.015  0.00  0.00    -0.300 OA
ATOM     21  C   LIG    1        1.298   1.824  -0.001  0.00  0.00    +0.080 A 
ATOM     22  C   LIG    1        1.550   3.186   0.004  0.00  0.00    +0.020 A 
ENDBRANCH  13  14
ENDBRANCH  12  13
ENDBRANCH   1  12
TORSDOF 6
