REMARK  Name = ZINCqH0000002XlO.0
REMARK                            x       y       z     vdW  Elec       q    Type
REMARK                         _______ _______ _______ _____ _____    ______ ____
ROOT
ATOM      1  C   LIG    1        0.056  -0.327  -0.274  0.00  0.00    -0.460 C 
ATOM      2  C   LIG    1       -0.161   1.182  -0.401  0.00  0.00    +0.120 C 
ENDROOT
BRANCH   1   4
ATOM      3  N   LIG    1        2.132  -0.431   1.068  0.00  0.00    -0.540 N 
ATOM      4  C   LIG    1        0.799  -0.622   1.004  0.00  0.00    +0.550 C 
ATOM      5  O   LIG    1        0.197  -1.030   1.975  0.00  0.00    -0.500 OA
BRANCH   3   6
ATOM      6  C   LIG    1        2.840  -0.823   2.210  0.00  0.00    +0.140 A 
ATOM      7  C   LIG    1        2.205  -1.550   3.208  0.00  0.00    +0.010 A 
ATOM      8  C   LIG    1        2.909  -1.939   4.331  0.00  0.00    +0.030 A 
ATOM      9  C   LIG    1        4.241  -1.596   4.467  0.00  0.00    -0.020 A 
ATOM     10  C   LIG    1        4.875  -0.866   3.478  0.00  0.00    +0.030 A 
ATOM     11  C   LIG    1        4.178  -0.479   2.350  0.00  0.00    -0.030 A 
ENDBRANCH   3   6
BRANCH   3  13
ATOM     12  C   LIG    1        2.991   1.686   0.196  0.00  0.00    +0.030 C 
ATOM     13  C   LIG    1        2.839   0.184  -0.058  0.00  0.00    +0.270 C 
ENDBRANCH   3  13
ENDBRANCH   1   4
BRANCH   1  14
ATOM     14  S   LIG    1       -1.550  -1.169  -0.247  0.00  0.00    +2.440 S 
ATOM     15  O   LIG    1       -2.342  -0.601   0.787  0.00  0.00    -0.890 OA
ATOM     16  O   LIG    1       -1.326  -2.572  -0.258  0.00  0.00    -0.920 OA
BRANCH  14  17
ATOM     17  C   LIG    1       -2.254  -0.684  -1.847  0.00  0.00    -0.260 C 
BRANCH  17  18
ATOM     18  C   LIG    1       -3.619  -1.304  -2.005  0.00  0.00    -0.120 A 
ATOM     19  C   LIG    1       -3.749  -2.547  -2.592  0.00  0.00    +0.100 A 
ATOM     20  C   LIG    1       -5.001  -3.119  -2.731  0.00  0.00    -0.070 A 
ATOM     21  C   LIG    1       -6.126  -2.442  -2.293  0.00  0.00    +0.090 A 
ATOM     22  C   LIG    1       -6.000  -1.196  -1.711  0.00  0.00    -0.050 A 
ATOM     23 CL   LIG    1       -5.162  -4.685  -3.463  0.00  0.00    -0.060 Cl
ATOM     24  C   LIG    1       -4.745  -0.623  -1.565  0.00  0.00    +0.160 A 
BRANCH  24  25
ATOM     25  O   LIG    1       -4.619   0.603  -0.992  0.00  0.00    -0.300 OA
ATOM     26  C   LIG    1       -5.821   1.245  -0.563  0.00  0.00    +0.250 C 
ENDBRANCH  24  25
ENDBRANCH  17  18
ENDBRANCH  14  17
ENDBRANCH   1  14
TORSDOF 7
