REMARK  Name = ZINCqH00000042dK.0
REMARK                            x       y       z     vdW  Elec       q    Type
REMARK                         _______ _______ _______ _____ _____    ______ ____
ROOT
ATOM      1  N   LIG    1        2.213   0.572   1.151  0.00  0.00    -0.720 N 
ATOM      2  H   LIG    1        1.695  -0.057   1.678  0.00  0.00    +0.400 HD
ATOM      3  C   LIG    1        3.555   0.610   1.274  0.00  0.00    +0.560 C 
ATOM      4  O   LIG    1        4.204   1.397   0.614  0.00  0.00    -0.530 OA
ENDROOT
BRANCH   3   5
ATOM      5  C   LIG    1        4.236  -0.306   2.211  0.00  0.00    -0.130 A 
ATOM      6  C   LIG    1        3.514  -1.302   2.868  0.00  0.00    +0.050 A 
ATOM      7  C   LIG    1        4.156  -2.155   3.742  0.00  0.00    +0.010 A 
ATOM      8  C   LIG    1        5.516  -2.030   3.973  0.00  0.00    +0.040 A 
ATOM      9  C   LIG    1        6.246  -1.050   3.331  0.00  0.00    +0.020 A 
ATOM     10  C   LIG    1        5.618  -0.184   2.441  0.00  0.00    +0.020 A 
BRANCH  10  11
ATOM     11  C   LIG    1        6.400   0.865   1.745  0.00  0.00    -0.150 A 
ATOM     12  C   LIG    1        7.498   0.532   0.946  0.00  0.00    +0.320 A 
ATOM     13  N   LIG    1        8.164   1.499   0.340  0.00  0.00    -0.520 NA
ATOM     14  C   LIG    1        7.813   2.761   0.488  0.00  0.00    +0.490 A 
ATOM     15  N   LIG    1        6.787   3.119   1.235  0.00  0.00    -0.520 NA
ATOM     16  C   LIG    1        6.063   2.216   1.873  0.00  0.00    +0.380 A 
ENDBRANCH  10  11
ENDBRANCH   3   5
BRANCH   1  17
ATOM     17  C   LIG    1        1.537   1.481   0.222  0.00  0.00    +0.290 C 
BRANCH  17  18
ATOM     18  C   LIG    1        0.028   1.235   0.275  0.00  0.00    +0.160 C 
BRANCH  18  20
ATOM     19  C   LIG    1       -2.158   1.757  -0.816  0.00  0.00    +0.020 C 
ATOM     20  C   LIG    1       -0.666   2.094  -0.783  0.00  0.00    +0.020 C 
ENDBRANCH  18  20
BRANCH  18  21
ATOM     21  O   LIG    1       -0.466   1.581   1.570  0.00  0.00    -0.300 OA
BRANCH  21  22
ATOM     22  C   LIG    1       -1.484   0.829   2.063  0.00  0.00    +0.130 A 
ATOM     23  C   LIG    1       -2.033   1.129   3.302  0.00  0.00    -0.020 A 
ATOM     24  C   LIG    1       -3.072   0.365   3.799  0.00  0.00    +0.050 A 
ATOM     25  C   LIG    1       -3.557  -0.703   3.068  0.00  0.00    -0.040 A 
ATOM     26  C   LIG    1       -3.008  -1.008   1.836  0.00  0.00    +0.040 A 
ATOM     27  C   LIG    1       -1.973  -0.244   1.332  0.00  0.00    -0.080 A 
ENDBRANCH  21  22
ENDBRANCH  18  21
ENDBRANCH  17  18
ENDBRANCH   1  17
TORSDOF 7
