REMARK  Name = ZINCrH00000No4vk.0
REMARK                            x       y       z     vdW  Elec       q    Type
REMARK                         _______ _______ _______ _____ _____    ______ ____
ROOT
ATOM      1  C   LIG    1       -0.155   5.441  -0.317  0.00  0.00    +0.480 C 
ATOM      2  C   LIG    1        0.052   4.079  -0.358  0.00  0.00    -0.350 C 
ATOM      3  C   LIG    1       -1.073   3.148  -0.504  0.00  0.00    +0.590 C 
ATOM      4  N   LIG    1       -0.863   1.823  -0.548  0.00  0.00    -0.510 N 
ATOM      5  C   LIG    1        0.359   1.274  -0.453  0.00  0.00    +0.580 C 
ATOM      6  C   LIG    1        1.557   2.111  -0.304  0.00  0.00    -0.170 A 
ATOM      7  C   LIG    1        2.829   1.548  -0.210  0.00  0.00    +0.120 A 
ATOM      8  C   LIG    1        3.929   2.367  -0.071  0.00  0.00    -0.030 A 
ATOM      9  C   LIG    1        3.784   3.746  -0.024  0.00  0.00    +0.070 A 
ATOM     10  C   LIG    1        2.534   4.323  -0.115  0.00  0.00    -0.050 A 
ATOM     11  O   LIG    1        0.476   0.064  -0.496  0.00  0.00    -0.500 OA
ATOM     12  O   LIG    1       -2.207   3.582  -0.592  0.00  0.00    -0.520 OA
ATOM     13  C   LIG    1        1.413   3.513  -0.256  0.00  0.00    +0.060 A 
ENDROOT
BRANCH   4  14
ATOM     14  C   LIG    1       -1.965   0.977  -0.694  0.00  0.00    +0.340 A 
ATOM     15  C   LIG    1       -2.432   0.668  -1.965  0.00  0.00    +0.000 A 
ATOM     16  C   LIG    1       -3.522  -0.176  -2.096  0.00  0.00    +0.080 A 
ATOM     17  C   LIG    1       -4.115  -0.673  -0.944  0.00  0.00    -0.020 A 
ATOM     18  C   LIG    1       -3.601  -0.320   0.288  0.00  0.00    +0.280 A 
ATOM     19  N   LIG    1       -2.558   0.482   0.381  0.00  0.00    -0.480 NA
ENDBRANCH   4  14
BRANCH   1  20
ATOM     20  N   LIG    1        0.722   6.241   0.343  0.00  0.00    -0.680 N 
ATOM     21  H   LIG    1        1.438   5.849   0.866  0.00  0.00    +0.410 HD
BRANCH  20  28
ATOM     22  C   LIG    1        0.515   7.824   2.760  0.00  0.00    +0.030 C 
ATOM     23  C   LIG    1        1.220   8.337   1.502  0.00  0.00    -0.010 C 
ATOM     24  C   LIG    1        2.703   7.966   1.562  0.00  0.00    +0.010 C 
ATOM     25  C   LIG    1        3.409   8.478   0.305  0.00  0.00    +0.020 C 
ATOM     26  C   LIG    1        2.773   7.840  -0.932  0.00  0.00    +0.010 C 
ATOM     27  C   LIG    1        1.290   8.210  -0.992  0.00  0.00    +0.010 C 
ATOM     28  C   LIG    1        0.585   7.698   0.265  0.00  0.00    +0.230 C 
ENDBRANCH  20  28
ENDBRANCH   1  20
TORSDOF 3
