REMARK  Name = ZINCrH00000No4Dt.0
REMARK                            x       y       z     vdW  Elec       q    Type
REMARK                         _______ _______ _______ _____ _____    ______ ____
ROOT
ATOM      1  N   LIG    1        3.743   6.866  -1.221  0.00  0.00    -0.570 N 
ATOM      2  C   LIG    1        2.820   7.958  -1.436  0.00  0.00    +0.290 C 
ATOM      3  C   LIG    1        3.536   9.304  -1.164  0.00  0.00    +0.020 C 
ATOM      4  C   LIG    1        3.782   9.470   0.276  0.00  0.00    +0.000 C 
ATOM      5  C   LIG    1        4.710   8.421   0.880  0.00  0.00    +0.010 C 
ATOM      6  C   LIG    1        3.906   7.201   1.252  0.00  0.00    +0.050 C 
ATOM      7  C   LIG    1        3.897   6.197   0.085  0.00  0.00    +0.280 C 
ENDROOT
BRANCH   1  15
ATOM      8  C   LIG    1        6.061   4.896  -3.254  0.00  0.00    +0.260 A 
ATOM      9  N   LIG    1        6.033   5.578  -4.379  0.00  0.00    -0.480 NA
ATOM     10  C   LIG    1        5.277   6.675  -4.507  0.00  0.00    +0.480 A 
ATOM     11  N   LIG    1        5.082   7.517  -5.516  0.00  0.00    -0.530 NA
ATOM     12  C   LIG    1        4.228   8.465  -5.151  0.00  0.00    +0.490 A 
ATOM     13  N   LIG    1        3.852   8.264  -3.911  0.00  0.00    -0.350 NA
ATOM     14  N   LIG    1        4.507   7.110  -3.465  0.00  0.00    -0.360 N 
ATOM     15  C   LIG    1        4.512   6.434  -2.279  0.00  0.00    +0.490 A 
ATOM     16  C   LIG    1        5.297   5.303  -2.163  0.00  0.00    -0.170 A 
BRANCH   8  17
ATOM     17  C   LIG    1        6.924   3.665  -3.146  0.00  0.00    +0.270 C 
BRANCH  17  19
ATOM     18  C   LIG    1        8.456   2.303  -4.388  0.00  0.00    +0.200 C 
ATOM     19  O   LIG    1        7.606   3.451  -4.383  0.00  0.00    -0.360 OA
ENDBRANCH  17  19
ENDBRANCH   8  17
ENDBRANCH   1  15
BRANCH   7  20
ATOM     20  C   LIG    1        2.754   5.233   0.278  0.00  0.00    -0.050 C 
ATOM     21  C   LIG    1        2.996   3.937   0.418  0.00  0.00    +0.030 C 
BRANCH  21  22
ATOM     22  C   LIG    1        1.876   2.992   0.608  0.00  0.00    -0.060 A 
ATOM     23  C   LIG    1        2.127   1.628   0.756  0.00  0.00    +0.030 A 
ATOM     24  C   LIG    1        1.077   0.751   0.932  0.00  0.00    +0.010 A 
ATOM     25  C   LIG    1       -0.224   1.221   0.958  0.00  0.00    +0.000 A 
ATOM     26  C   LIG    1       -0.480   2.573   0.817  0.00  0.00    +0.000 A 
ATOM     27  C   LIG    1        0.562   3.461   0.639  0.00  0.00    +0.010 A 
ENDBRANCH  21  22
ENDBRANCH   7  20
TORSDOF 5
