REMARK  Name = ZINCvU0000000HG2.0
REMARK                            x       y       z     vdW  Elec       q    Type
REMARK                         _______ _______ _______ _____ _____    ______ ____
ROOT
ATOM      1  C   LIG    1        2.047   0.586  -0.014  0.00  0.00    +0.230 A 
ATOM      2  N   LIG    1        1.218  -0.220  -0.638  0.00  0.00    -0.230 NA
ATOM      3  N   LIG    1        0.005   0.133  -0.406  0.00  0.00    -0.290 NA
ATOM      4  C   LIG    1       -0.018   1.189   0.380  0.00  0.00    +0.420 A 
ATOM      5  N   LIG    1       -1.066   1.920   0.904  0.00  0.00    -0.510 N 
ATOM      6  C   LIG    1       -0.840   2.987   1.699  0.00  0.00    +0.570 A 
ATOM      7  C   LIG    1        0.551   3.358   2.013  0.00  0.00    -0.160 A 
ATOM      8  C   LIG    1        0.844   4.447   2.832  0.00  0.00    +0.130 A 
ATOM      9  C   LIG    1        2.160   4.762   3.101  0.00  0.00    +0.020 A 
ATOM     10  C   LIG    1        3.187   4.003   2.562  0.00  0.00    +0.080 A 
ATOM     11  C   LIG    1        2.909   2.922   1.749  0.00  0.00    +0.010 A 
ATOM     12  C   LIG    1        1.593   2.589   1.467  0.00  0.00    +0.170 A 
ATOM     13  O   LIG    1       -1.769   3.628   2.152  0.00  0.00    -0.490 OA
ATOM     14  N   LIG    1        1.280   1.509   0.653  0.00  0.00    -0.430 N 
ENDROOT
BRANCH   1  18
ATOM     15  C   LIG    1        6.290   0.380  -0.058  0.00  0.00    -0.050 A 
ATOM     16  C   LIG    1        5.551  -0.715   0.354  0.00  0.00    +0.020 A 
ATOM     17  C   LIG    1        4.173  -0.654   0.371  0.00  0.00    +0.060 A 
ATOM     18  C   LIG    1        3.524   0.515  -0.029  0.00  0.00    -0.030 A 
ATOM     19  C   LIG    1        4.275   1.614  -0.449  0.00  0.00    +0.040 A 
ATOM     20  C   LIG    1        5.653   1.542  -0.455  0.00  0.00    +0.020 A 
BRANCH  15  22
ATOM     21  C   LIG    1        8.302   0.540  -1.497  0.00  0.00    +0.030 C 
ATOM     22  C   LIG    1        7.795   0.307  -0.073  0.00  0.00    +0.020 C 
ATOM     23  C   LIG    1        8.367   1.381   0.855  0.00  0.00    +0.030 C 
ENDBRANCH  15  22
ENDBRANCH   1  18
BRANCH   5  24
ATOM     24  C   LIG    1       -2.444   1.535   0.588  0.00  0.00    +0.330 C 
BRANCH  24  25
ATOM     25  C   LIG    1       -2.947   0.538   1.634  0.00  0.00    +0.070 C 
BRANCH  25  26
ATOM     26  C   LIG    1       -4.364   0.142   1.309  0.00  0.00    -0.080 A 
ATOM     27  C   LIG    1       -5.421   0.863   1.832  0.00  0.00    +0.010 A 
ATOM     28  C   LIG    1       -6.721   0.503   1.530  0.00  0.00    +0.000 A 
ATOM     29  C   LIG    1       -6.964  -0.586   0.713  0.00  0.00    +0.000 A 
ATOM     30  C   LIG    1       -5.907  -1.310   0.194  0.00  0.00    +0.000 A 
ATOM     31  C   LIG    1       -4.607  -0.946   0.492  0.00  0.00    +0.020 A 
ENDBRANCH  25  26
ENDBRANCH  24  25
ENDBRANCH   5  24
TORSDOF 5
