REMARK  Name = ZINCpk00000kOKqy.0
REMARK                            x       y       z     vdW  Elec       q    Type
REMARK                         _______ _______ _______ _____ _____    ______ ____
ROOT
ATOM      1  N   LIG    1        0.305   3.153  -4.244  0.00  0.00    -0.290 N 
ATOM      2  C   LIG    1        1.255   2.319  -3.761  0.00  0.00    +0.150 A 
ATOM      3  C   LIG    1        1.096   2.304  -2.417  0.00  0.00    -0.040 A 
ATOM      4  N   LIG    1        0.067   3.114  -2.147  0.00  0.00    -0.230 NA
ATOM      5  N   LIG    1       -0.376   3.606  -3.250  0.00  0.00    -0.070 NA
ENDROOT
BRANCH   3   6
ATOM      6  C   LIG    1        1.914   1.522  -1.421  0.00  0.00    +0.180 C 
ATOM      7  C   LIG    1        1.799   0.025  -1.725  0.00  0.00    +0.020 C 
ATOM      8  C   LIG    1        0.371  -0.445  -1.424  0.00  0.00    +0.020 C 
ATOM      9  C   LIG    1        0.002  -0.004   0.002  0.00  0.00    +0.170 C 
ATOM     10  C   LIG    1        1.202  -0.331   0.921  0.00  0.00    +0.200 C 
ATOM     11  O   LIG    1        2.024   0.851   0.892  0.00  0.00    -0.370 OA
ATOM     12  O   LIG    1       -0.018   1.445   0.010  0.00  0.00    -0.340 OA
ATOM     13  C   LIG    1        1.387   1.782  -0.002  0.00  0.00    +0.400 C 
BRANCH   6  14
ATOM     14  O   LIG    1        3.283   1.924  -1.505  0.00  0.00    -0.530 OA
ATOM     15  H   LIG    1        3.683   1.779  -2.373  0.00  0.00    +0.380 HD
ENDBRANCH   6  14
ENDBRANCH   3   6
BRANCH   1  16
ATOM     16  C   LIG    1        0.089   3.484  -5.655  0.00  0.00    +0.390 C 
BRANCH  16  24
ATOM     17  C   LIG    1       -4.020   7.191  -4.777  0.00  0.00    +0.240 C 
ATOM     18  C   LIG    1       -3.591   5.837  -5.282  0.00  0.00    +0.260 A 
ATOM     19  N   LIG    1       -4.387   4.950  -5.797  0.00  0.00    -0.480 NA
ATOM     20  C   LIG    1       -3.659   3.853  -6.140  0.00  0.00    +0.020 A 
ATOM     21  C   LIG    1       -3.977   2.624  -6.720  0.00  0.00    +0.100 A 
ATOM     22  C   LIG    1       -2.984   1.698  -6.945  0.00  0.00    +0.020 A 
ATOM     23  C   LIG    1       -1.669   1.981  -6.606  0.00  0.00    +0.070 A 
ATOM     24  C   LIG    1       -1.341   3.189  -6.027  0.00  0.00    -0.100 A 
ATOM     25  C   LIG    1       -2.328   4.133  -5.792  0.00  0.00    +0.040 A 
ATOM     26  O   LIG    1       -2.330   5.376  -5.262  0.00  0.00    -0.200 OA
ENDBRANCH  16  24
ENDBRANCH   1  16
TORSDOF 4
