REMARK  Name = ZINCrH000004sQYs.0
REMARK                            x       y       z     vdW  Elec       q    Type
REMARK                         _______ _______ _______ _____ _____    ______ ____
ROOT
ATOM      1  C   LIG    1       -1.216   2.211   0.018  0.00  0.00    +0.610 C 
ATOM      2  N   LIG    1       -2.443   1.654   0.025  0.00  0.00    -0.640 N 
ATOM      3  H   LIG    1       -2.539   0.692  -0.049  0.00  0.00    +0.440 HD
ATOM      4  O   LIG    1       -1.097   3.421   0.009  0.00  0.00    -0.510 OA
ENDROOT
BRANCH   1   7
ATOM      5  C   LIG    1        1.754   3.205  -0.006  0.00  0.00    +0.220 C 
ATOM      6  C   LIG    1        1.279   1.775   0.007  0.00  0.00    +0.060 A 
ATOM      7  C   LIG    1       -0.017   1.353   0.020  0.00  0.00    -0.080 A 
ATOM      8  N   LIG    1        0.002  -0.005   0.029  0.00  0.00    -0.440 NA
ATOM      9  C   LIG    1        1.249  -0.401   0.022  0.00  0.00    +0.240 A 
ATOM     10  O   LIG    1        2.052   0.677   0.009  0.00  0.00    -0.190 OA
BRANCH   9  11
ATOM     11  C   LIG    1        1.702  -1.809   0.029  0.00  0.00    -0.020 A 
ATOM     12  C   LIG    1        3.066  -2.106   0.015  0.00  0.00    +0.040 A 
ATOM     13  C   LIG    1        3.482  -3.421   0.028  0.00  0.00    +0.010 A 
ATOM     14  C   LIG    1        2.551  -4.445   0.041  0.00  0.00    +0.030 A 
ATOM     15  C   LIG    1        1.198  -4.157   0.048  0.00  0.00    +0.010 A 
ATOM     16  C   LIG    1        0.769  -2.846   0.042  0.00  0.00    +0.070 A 
ENDBRANCH   9  11
ENDBRANCH   1   7
BRANCH   2  17
ATOM     17  C   LIG    1       -3.572   2.460   0.139  0.00  0.00    +0.220 A 
ATOM     18  C   LIG    1       -3.483   3.703   0.751  0.00  0.00    +0.010 A 
ATOM     19  C   LIG    1       -4.604   4.501   0.862  0.00  0.00    +0.070 A 
ATOM     20  C   LIG    1       -5.824   4.069   0.367  0.00  0.00    -0.020 A 
ATOM     21  C   LIG    1       -5.931   2.838  -0.242  0.00  0.00    +0.070 A 
ATOM     22  C   LIG    1       -4.805   2.022  -0.368  0.00  0.00    -0.180 A 
BRANCH  22  23
ATOM     23  C   LIG    1       -4.912   0.705  -1.024  0.00  0.00    +0.570 C 
ATOM     24  N   LIG    1       -6.072   0.331  -1.598  0.00  0.00    -0.700 N 
ATOM     25  H   LIG    1       -6.837   0.927  -1.580  0.00  0.00    +0.400 HD
ATOM     26  O   LIG    1       -3.953  -0.042  -1.048  0.00  0.00    -0.540 OA
BRANCH  24  27
ATOM     27  C   LIG    1       -6.178  -0.977  -2.251  0.00  0.00    +0.220 C 
ATOM     28  C   LIG    1       -6.885  -1.035  -3.606  0.00  0.00    +0.010 C 
ATOM     29  C   LIG    1       -7.571  -1.601  -2.360  0.00  0.00    +0.020 C 
ENDBRANCH  24  27
ENDBRANCH  22  23
ENDBRANCH   2  17
TORSDOF 5
