REMARK  Name = ZINCpk000004ANeK.0
REMARK                            x       y       z     vdW  Elec       q    Type
REMARK                         _______ _______ _______ _____ _____    ______ ____
ROOT
ATOM      1  N   LIG    1       -4.741   4.396  -2.373  0.00  0.00    -0.720 N 
ATOM      2  H   LIG    1       -5.106   3.517  -2.557  0.00  0.00    +0.390 HD
ATOM      3  C   LIG    1       -4.517   5.258  -3.385  0.00  0.00    +0.590 C 
ATOM      4  O   LIG    1       -4.060   6.361  -3.155  0.00  0.00    -0.510 OA
ENDROOT
BRANCH   3   5
ATOM      5  C   LIG    1       -4.826   4.864  -4.769  0.00  0.00    -0.040 A 
ATOM      6  C   LIG    1       -4.654   5.630  -5.909  0.00  0.00    +0.030 A 
ATOM      7  C   LIG    1       -5.088   4.824  -6.965  0.00  0.00    +0.040 A 
ATOM      8  N   LIG    1       -5.479   3.681  -6.463  0.00  0.00    -0.260 NA
ATOM      9  N   LIG    1       -5.335   3.667  -5.186  0.00  0.00    -0.380 N 
ATOM     10  H   LIG    1       -5.556   2.921  -4.607  0.00  0.00    +0.440 HD
BRANCH   7  11
ATOM     11  C   LIG    1       -5.103   5.205  -8.423  0.00  0.00    +0.090 C 
ATOM     12  C   LIG    1       -3.902   6.105  -8.730  0.00  0.00    +0.010 C 
ATOM     13  C   LIG    1       -3.969   6.550 -10.193  0.00  0.00    +0.210 C 
ATOM     14  O   LIG    1       -5.207   7.225 -10.428  0.00  0.00    -0.380 OA
ATOM     15  C   LIG    1       -6.364   6.418 -10.203  0.00  0.00    +0.210 C 
ATOM     16  C   LIG    1       -6.393   5.967  -8.740  0.00  0.00    +0.010 C 
ENDBRANCH   7  11
ENDBRANCH   3   5
BRANCH   1  17
ATOM     17  C   LIG    1       -4.433   4.789  -0.996  0.00  0.00    +0.240 C 
ATOM     18  C   LIG    1       -5.618   5.558  -0.408  0.00  0.00    +0.020 C 
BRANCH  17  19
ATOM     19  C   LIG    1       -4.170   3.537  -0.155  0.00  0.00    +0.050 C 
BRANCH  19  23
ATOM     20  C   LIG    1       -0.014   1.212   0.009  0.00  0.00    +0.570 C 
ATOM     21  N   LIG    1       -1.191   1.870   0.018  0.00  0.00    -0.650 N 
ATOM     22  C   LIG    1       -1.617   3.277   0.034  0.00  0.00    +0.270 C 
ATOM     23  C   LIG    1       -2.911   2.835  -0.667  0.00  0.00    -0.020 C 
ATOM     24  C   LIG    1       -2.613   1.496   0.023  0.00  0.00    +0.280 C 
ATOM     25  O   LIG    1        0.002  -0.004   0.002  0.00  0.00    -0.540 OA
BRANCH  20  27
ATOM     26  C   LIG    1        2.410   1.315  -0.014  0.00  0.00    +0.150 C 
ATOM     27  C   LIG    1        1.249   1.965   0.001  0.00  0.00    -0.080 C 
ENDBRANCH  20  27
ENDBRANCH  19  23
ENDBRANCH  17  19
ENDBRANCH   1  17
TORSDOF 6
