REMARK  Name = ZINCvU0000000GNN.0
REMARK                            x       y       z     vdW  Elec       q    Type
REMARK                         _______ _______ _______ _____ _____    ______ ____
ROOT
ATOM      1  C   LIG    1        3.217  -2.280  -2.062  0.00  0.00    +0.140 A 
ATOM      2  C   LIG    1        3.738  -0.992  -2.076  0.00  0.00    +0.000 A 
ATOM      3  C   LIG    1        5.105  -0.801  -2.126  0.00  0.00    +0.050 A 
ATOM      4  C   LIG    1        5.958  -1.896  -2.175  0.00  0.00    +0.140 A 
ATOM      5  C   LIG    1        5.437  -3.183  -2.168  0.00  0.00    +0.000 A 
ATOM      6  C   LIG    1        4.071  -3.375  -2.112  0.00  0.00    +0.040 A 
ENDROOT
BRANCH   4   7
ATOM      7  N   LIG    1        7.344  -1.702  -2.233  0.00  0.00    -0.550 N 
ATOM      8  C   LIG    1        7.858  -0.465  -2.080  0.00  0.00    +0.560 C 
ATOM      9  O   LIG    1        7.131   0.463  -1.782  0.00  0.00    -0.500 OA
ATOM     10  C   LIG    1        8.234  -2.842  -2.459  0.00  0.00    +0.310 C 
BRANCH   8  11
ATOM     11  C   LIG    1        9.305  -0.237  -2.275  0.00  0.00    -0.140 A 
ATOM     12  C   LIG    1       10.056  -1.125  -3.047  0.00  0.00    +0.070 A 
ATOM     13  C   LIG    1       11.405  -0.905  -3.230  0.00  0.00    +0.020 A 
ATOM     14  C   LIG    1       12.016   0.190  -2.641  0.00  0.00    -0.010 A 
ATOM     15  C   LIG    1       11.277   1.071  -1.870  0.00  0.00    +0.020 A 
ATOM     16 CL   LIG    1       13.716   0.458  -2.870  0.00  0.00    -0.060 Cl
ATOM     17  C   LIG    1        9.927   0.864  -1.684  0.00  0.00    +0.110 A 
ENDBRANCH   8  11
ENDBRANCH   4   7
BRANCH   1  18
ATOM     18  N   LIG    1        1.833  -2.474  -2.005  0.00  0.00    -1.060 N 
ATOM     19  H   LIG    1        1.409  -3.119  -2.592  0.00  0.00    +0.430 HD
BRANCH  18  20
ATOM     20  S   LIG    1        0.918  -1.601  -0.935  0.00  0.00    +2.700 S 
ATOM     21  O   LIG    1       -0.424  -2.031  -1.112  0.00  0.00    -0.950 OA
ATOM     22  O   LIG    1        1.595  -1.660   0.313  0.00  0.00    -0.940 OA
BRANCH  20  26
ATOM     23  C   LIG    1        1.063   2.725  -2.266  0.00  0.00    +0.190 A 
ATOM     24  C   LIG    1        0.467   1.769  -3.075  0.00  0.00    -0.090 A 
ATOM     25  C   LIG    1        0.425   0.449  -2.667  0.00  0.00    +0.060 A 
ATOM     26  C   LIG    1        0.975   0.082  -1.453  0.00  0.00    -0.720 A 
ATOM     27  C   LIG    1        1.569   1.034  -0.644  0.00  0.00    +0.170 A 
ATOM     28  C   LIG    1       -0.222  -0.590  -3.546  0.00  0.00    +0.110 C 
ATOM     29  C   LIG    1        1.614   2.354  -1.048  0.00  0.00    -0.140 A 
ATOM     30  C   LIG    1        2.256   3.391  -0.163  0.00  0.00    +0.100 C 
BRANCH  23  32
ATOM     31  C   LIG    1        0.520   4.332  -3.931  0.00  0.00    +0.250 C 
ATOM     32  O   LIG    1        1.107   4.023  -2.665  0.00  0.00    -0.310 OA
ENDBRANCH  23  32
ENDBRANCH  20  26
ENDBRANCH  18  20
ENDBRANCH   1  18
TORSDOF 6
