REMARK  Name = ZINCvU00000003PP.2
REMARK                            x       y       z     vdW  Elec       q    Type
REMARK                         _______ _______ _______ _____ _____    ______ ____
ROOT
ATOM      1  C   LIG    1        0.674   3.444   1.993  0.00  0.00    +0.560 C 
ATOM      2  N   LIG    1        0.939   3.475   0.672  0.00  0.00    -0.470 N 
ATOM      3  N   LIG    1        0.539   4.470  -0.228  0.00  0.00    -0.210 NA
ATOM      4  C   LIG    1        1.103   4.373  -1.384  0.00  0.00    +0.120 C 
ATOM      5  C   LIG    1        0.790   5.042  -2.590  0.00  0.00    -0.060 C 
ATOM      6  C   LIG    1        1.310   4.543  -3.904  0.00  0.00    +0.090 C 
ATOM      7  C   LIG    1        2.296   3.398  -3.787  0.00  0.00    +0.020 C 
ATOM      8  C   LIG    1        2.008   2.468  -2.610  0.00  0.00    +0.050 C 
ATOM      9  C   LIG    1        0.009   6.147  -2.557  0.00  0.00    +0.110 C 
ATOM     10  C   LIG    1        2.155   3.273  -1.318  0.00  0.00    +0.020 C 
ATOM     11  C   LIG    1        1.707   2.464  -0.089  0.00  0.00    +0.300 C 
ATOM     12  O   LIG    1        1.078   2.523   2.672  0.00  0.00    -0.500 OA
ENDROOT
BRANCH   9  13
ATOM     13  C   LIG    1       -0.339   6.759  -1.275  0.00  0.00    -0.170 A 
ATOM     14  C   LIG    1       -1.561   7.277  -0.952  0.00  0.00    +0.030 A 
ATOM     15  C   LIG    1       -1.639   7.795   0.321  0.00  0.00    +0.000 A 
ATOM     16  C   LIG    1       -0.512   7.721   1.037  0.00  0.00    -0.060 A 
ATOM     17  S   LIG    1        0.753   6.950   0.091  0.00  0.00    +0.170 S 
ENDBRANCH   9  13
BRANCH  11  18
ATOM     18  C   LIG    1        0.826   1.310  -0.494  0.00  0.00    -0.180 A 
ATOM     19  C   LIG    1        1.226   0.043  -0.617  0.00  0.00    +0.020 A 
ATOM     20  C   LIG    1        0.238  -0.846  -1.003  0.00  0.00    +0.010 A 
ATOM     21  C   LIG    1       -0.965  -0.301  -1.193  0.00  0.00    -0.050 A 
ATOM     22  S   LIG    1       -0.886   1.428  -0.878  0.00  0.00    +0.120 S 
ENDBRANCH  11  18
BRANCH   1  23
ATOM     23  C   LIG    1       -0.125   4.554   2.627  0.00  0.00    +0.220 C 
BRANCH  23  29
ATOM     24  C   LIG    1       -1.453   6.403   6.988  0.00  0.00    +0.020 C 
ATOM     25  C   LIG    1       -0.846   5.197   6.267  0.00  0.00    -0.010 C 
ATOM     26  C   LIG    1       -1.683   3.950   6.563  0.00  0.00    +0.010 C 
ATOM     27  C   LIG    1       -1.104   2.761   5.791  0.00  0.00    -0.010 C 
ATOM     28  C   LIG    1       -1.090   3.089   4.296  0.00  0.00    +0.180 C 
ATOM     29  N   LIG    1       -0.276   4.289   4.064  0.00  0.00    -0.520 NA
ATOM     30  C   LIG    1       -1.970   1.523   6.034  0.00  0.00    +0.020 C 
ATOM     31  C   LIG    1       -0.839   5.454   4.758  0.00  0.00    +0.170 C 
ENDBRANCH  23  29
ENDBRANCH   1  23
TORSDOF 4
