REMARK  Name = ZINCqH0000004Sjz.0
REMARK                            x       y       z     vdW  Elec       q    Type
REMARK                         _______ _______ _______ _____ _____    ______ ____
ROOT
ATOM      1  N   LIG    1       -0.137   0.834  -1.263  0.00  0.00    -0.450 N 
ATOM      2  C   LIG    1       -1.249   0.429  -1.944  0.00  0.00    +0.130 A 
ATOM      3  N   LIG    1       -1.671   1.457  -2.647  0.00  0.00    -0.260 NA
ATOM      4  N   LIG    1       -0.898   2.466  -2.461  0.00  0.00    -0.260 NA
ATOM      5  C   LIG    1        0.061   2.148  -1.623  0.00  0.00    +0.230 A 
ENDROOT
BRANCH   5   6
ATOM      6  C   LIG    1        1.148   3.033  -1.153  0.00  0.00    -0.030 A 
ATOM      7  C   LIG    1        2.474   2.598  -1.196  0.00  0.00    +0.030 A 
ATOM      8  C   LIG    1        3.484   3.429  -0.757  0.00  0.00    +0.010 A 
ATOM      9  C   LIG    1        3.185   4.691  -0.275  0.00  0.00    +0.030 A 
ATOM     10  C   LIG    1        1.873   5.128  -0.231  0.00  0.00    +0.010 A 
ATOM     11  C   LIG    1        0.854   4.309  -0.671  0.00  0.00    -0.040 A 
ATOM     12  C   LIG    1       -0.574   4.790  -0.628  0.00  0.00    +0.100 C 
ENDBRANCH   5   6
BRANCH   1  14
ATOM     13  C   LIG    1        0.219   0.281   1.093  0.00  0.00    +0.060 C 
ATOM     14  C   LIG    1        0.679   0.035  -0.346  0.00  0.00    +0.300 C 
ENDBRANCH   1  14
BRANCH   2  15
ATOM     15  S   LIG    1       -1.985  -1.170  -1.887  0.00  0.00    +0.040 S 
BRANCH  15  16
ATOM     16  C   LIG    1       -3.372  -0.920  -3.023  0.00  0.00    +0.080 C 
BRANCH  16  17
ATOM     17  C   LIG    1       -4.094  -2.226  -3.229  0.00  0.00    -0.090 A 
ATOM     18  C   LIG    1       -4.469  -2.988  -2.139  0.00  0.00    +0.060 A 
ATOM     19  C   LIG    1       -5.136  -4.184  -2.327  0.00  0.00    +0.000 A 
ATOM     20  C   LIG    1       -5.420  -4.623  -3.609  0.00  0.00    +0.110 A 
ATOM     21  C   LIG    1       -5.040  -3.861  -4.701  0.00  0.00    -0.010 A 
ATOM     22  F   LIG    1       -6.068  -5.794  -3.794  0.00  0.00    -0.130 F 
ATOM     23  C   LIG    1       -4.377  -2.663  -4.510  0.00  0.00    +0.080 A 
ENDBRANCH  16  17
BRANCH  16  24
ATOM     24  C   LIG    1       -4.322   0.094  -2.439  0.00  0.00    +0.530 C 
ATOM     25  O   LIG    1       -4.421   1.193  -2.943  0.00  0.00    -0.490 OA
ATOM     26  N   LIG    1       -5.062  -0.221  -1.358  0.00  0.00    -0.850 N 
ATOM     27  H   LIG    1       -5.725   0.404  -1.025  0.00  0.00    +0.410 HD
ATOM     28  H   LIG    1       -4.933  -1.073  -0.913  0.00  0.00    +0.400 HD
ENDBRANCH  16  24
ENDBRANCH  15  16
ENDBRANCH   2  15
TORSDOF 6
