REMARK  Name = ZINCnE000001TDzW.0
REMARK                            x       y       z     vdW  Elec       q    Type
REMARK                         _______ _______ _______ _____ _____    ______ ____
ROOT
ATOM      1  N   LIG    1       -3.079   3.930   1.413  0.00  0.00    -0.710 N 
ATOM      2  H   LIG    1       -2.588   3.502   2.133  0.00  0.00    +0.390 HD
ATOM      3  C   LIG    1       -4.249   4.548   1.671  0.00  0.00    +0.730 C 
ATOM      4  N   LIG    1       -4.736   4.572   2.927  0.00  0.00    -0.640 N 
ATOM      5  C   LIG    1       -4.096   3.966   4.109  0.00  0.00    +0.240 C 
ATOM      6  C   LIG    1       -5.258   3.713   5.103  0.00  0.00    +0.030 C 
ATOM      7  C   LIG    1       -6.151   4.959   4.861  0.00  0.00    +0.050 C 
ATOM      8  C   LIG    1       -5.991   5.213   3.347  0.00  0.00    +0.320 C 
ATOM      9  O   LIG    1       -4.864   5.083   0.769  0.00  0.00    -0.590 OA
ENDROOT
BRANCH   8  10
ATOM     10  C   LIG    1       -5.926   6.694   3.076  0.00  0.00    -0.160 A 
ATOM     11  C   LIG    1       -6.938   7.439   2.628  0.00  0.00    +0.000 A 
ATOM     12  C   LIG    1       -6.643   8.780   2.457  0.00  0.00    +0.010 A 
ATOM     13  C   LIG    1       -5.389   9.123   2.758  0.00  0.00    -0.070 A 
ATOM     14  S   LIG    1       -4.502   7.703   3.297  0.00  0.00    +0.110 S 
ENDBRANCH   8  10
BRANCH   1  15
ATOM     15  C   LIG    1       -2.549   3.903   0.048  0.00  0.00    +0.340 C 
BRANCH  15  21
ATOM     16  C   LIG    1       -1.231   1.760   0.017  0.00  0.00    -0.120 A 
ATOM     17  C   LIG    1       -0.013   1.076   0.008  0.00  0.00    +0.040 A 
ATOM     18  C   LIG    1        1.171   1.783   0.001  0.00  0.00    -0.020 A 
ATOM     19  C   LIG    1        1.155   3.167   0.008  0.00  0.00    -0.020 A 
ATOM     20  C   LIG    1       -0.049   3.851   0.024  0.00  0.00    -0.010 A 
ATOM     21  C   LIG    1       -1.240   3.157   0.031  0.00  0.00    -0.080 A 
BRANCH  16  23
ATOM     22  O   LIG    1       -2.490  -0.213   0.013  0.00  0.00    -0.690 OA
ATOM     23  C   LIG    1       -2.502   1.010   0.019  0.00  0.00    +0.520 C 
ATOM     24  O   LIG    1       -3.566   1.611   0.028  0.00  0.00    -0.660 OA
ENDBRANCH  16  23
ENDBRANCH  15  21
ENDBRANCH   1  15
TORSDOF 4
