REMARK  Name = ZINCpk00000xIcyx.0
REMARK                            x       y       z     vdW  Elec       q    Type
REMARK                         _______ _______ _______ _____ _____    ______ ____
ROOT
ATOM      1  C   LIG    1       -6.076  -2.970   0.074  0.00  0.00    +0.310 C 
ATOM      2  N   LIG    1       -6.313  -1.525   0.085  0.00  0.00    -0.590 N 
ATOM      3  C   LIG    1       -5.271  -0.670   0.075  0.00  0.00    +0.540 C 
ATOM      4  O   LIG    1       -5.467   0.526   0.085  0.00  0.00    -0.520 OA
ENDROOT
BRANCH   3   5
ATOM      5  C   LIG    1       -3.861  -1.202   0.051  0.00  0.00    +0.110 C 
BRANCH   5   6
ATOM      6  S   LIG    1       -2.694   0.181   0.042  0.00  0.00    +0.090 S 
BRANCH   6   7
ATOM      7  C   LIG    1       -1.171  -0.704   0.015  0.00  0.00    +0.350 A 
ATOM      8  N   LIG    1       -1.196  -2.011   0.003  0.00  0.00    -0.520 NA
ATOM      9  C   LIG    1       -0.050  -2.748  -0.012  0.00  0.00    +0.180 A 
ATOM     10  C   LIG    1        1.169  -2.076  -0.020  0.00  0.00    -0.340 A 
ATOM     11  C   LIG    1        1.179  -0.663  -0.013  0.00  0.00    +0.580 A 
ATOM     12  O   LIG    1        2.233  -0.050  -0.019  0.00  0.00    -0.520 OA
ATOM     13  S   LIG    1        2.485  -3.243  -0.039  0.00  0.00    +0.220 S 
ATOM     14  C   LIG    1        1.353  -4.585  -0.036  0.00  0.00    +0.010 A 
ATOM     15  C   LIG    1        0.102  -4.140  -0.021  0.00  0.00    +0.030 A 
ATOM     16  N   LIG    1        0.002  -0.004   0.002  0.00  0.00    -0.520 N 
ATOM     17  C   LIG    1       -0.018   1.461   0.010  0.00  0.00    +0.340 C 
ENDBRANCH   6   7
ENDBRANCH   5   6
ENDBRANCH   3   5
BRANCH   2  18
ATOM     18  C   LIG    1       -7.684  -1.007   0.108  0.00  0.00    +0.330 C 
BRANCH  18  19
ATOM     19  C   LIG    1       -8.174  -0.822  -1.305  0.00  0.00    +0.500 C 
ATOM     20  N   LIG    1       -9.418  -0.353  -1.530  0.00  0.00    -0.720 N 
ATOM     21  H   LIG    1       -9.996  -0.135  -0.783  0.00  0.00    +0.400 HD
ATOM     22  O   LIG    1       -7.450  -1.095  -2.239  0.00  0.00    -0.520 OA
BRANCH  20  23
ATOM     23  C   LIG    1       -9.894  -0.173  -2.904  0.00  0.00    +0.170 C 
ATOM     24  C   LIG    1       -8.987   0.820  -3.633  0.00  0.00    +0.030 C 
ATOM     25  C   LIG    1      -11.326   0.367  -2.880  0.00  0.00    +0.030 C 
ATOM     26  C   LIG    1       -9.869  -1.517  -3.633  0.00  0.00    +0.030 C 
ENDBRANCH  20  23
ENDBRANCH  18  19
ENDBRANCH   2  18
TORSDOF 6
