REMARK  Name = ZINCtV00000L6jKg.0
REMARK                            x       y       z     vdW  Elec       q    Type
REMARK                         _______ _______ _______ _____ _____    ______ ____
ROOT
ATOM      1  C   LIG    1       -0.113   2.163  -0.048  0.00  0.00    +0.550 C 
ENDROOT
BRANCH   1   2
ATOM      2  C   LIG    1       -0.867   2.774   1.135  0.00  0.00    +0.110 C 
ATOM      3 CL   LIG    1        0.090   2.537   2.645  0.00  0.00    -0.050 Cl
ATOM      4 CL   LIG    1       -2.470   1.967   1.308  0.00  0.00    -0.060 Cl
ATOM      5 CL   LIG    1       -1.109   4.537   0.847  0.00  0.00    -0.080 Cl
ENDBRANCH   1   2
BRANCH   1   6
ATOM      6  N   LIG    1       -0.891   2.355  -1.274  0.00  0.00    -0.720 N 
ATOM      7  H   LIG    1       -1.296   3.216  -1.462  0.00  0.00    +0.410 HD
ATOM      8  C   LIG    1       -1.044   1.335  -2.142  0.00  0.00    +0.660 C 
ATOM      9  O   LIG    1       -0.537   0.256  -1.907  0.00  0.00    -0.560 OA
BRANCH   8  10
ATOM     10  O   LIG    1       -1.758   1.511  -3.269  0.00  0.00    -0.360 OA
BRANCH  10  11
ATOM     11  C   LIG    1       -1.882   0.369  -4.157  0.00  0.00    +0.200 C 
ATOM     12  C   LIG    1       -0.729   0.379  -5.163  0.00  0.00    +0.010 C 
ATOM     13  C   LIG    1       -0.859  -0.825  -6.099  0.00  0.00    -0.020 C 
ATOM     14  C   LIG    1       -2.190  -0.747  -6.848  0.00  0.00    +0.010 C 
ATOM     15  C   LIG    1       -3.343  -0.756  -5.842  0.00  0.00    +0.030 C 
ATOM     16  C   LIG    1        0.294  -0.815  -7.105  0.00  0.00    +0.030 C 
ATOM     17  C   LIG    1       -3.213   0.447  -4.907  0.00  0.00    +0.000 C 
BRANCH  17  18
ATOM     18  C   LIG    1       -4.366   0.437  -3.901  0.00  0.00    -0.020 C 
ATOM     19  C   LIG    1       -4.398  -0.909  -3.175  0.00  0.00    +0.010 C 
ATOM     20  C   LIG    1       -5.689   0.651  -4.639  0.00  0.00    +0.010 C 
ENDBRANCH  17  18
ENDBRANCH  10  11
ENDBRANCH   8  10
ENDBRANCH   1   6
BRANCH   1  21
ATOM     21  N   LIG    1        1.190   2.818  -0.188  0.00  0.00    -0.740 N 
ATOM     22  H   LIG    1        1.255   3.784  -0.134  0.00  0.00    +0.400 HD
BRANCH  21  26
ATOM     23  C   LIG    1        4.617   0.530  -0.815  0.00  0.00    +0.090 A 
ATOM     24  C   LIG    1        3.369  -0.075  -0.820  0.00  0.00    +0.020 A 
ATOM     25  C   LIG    1        2.233   0.682  -0.612  0.00  0.00    +0.000 A 
ATOM     26  C   LIG    1        2.340   2.050  -0.399  0.00  0.00    +0.170 A 
ATOM     27  C   LIG    1        3.590   2.656  -0.400  0.00  0.00    -0.020 A 
ATOM     28  C   LIG    1        4.725   1.897  -0.603  0.00  0.00    -0.040 A 
BRANCH  23  29
ATOM     29  O   LIG    1        5.735  -0.216  -1.020  0.00  0.00    -0.320 OA
BRANCH  29  31
ATOM     30  C   LIG    1        8.121  -0.524  -1.249  0.00  0.00    +0.070 C 
ATOM     31  C   LIG    1        6.987   0.473  -1.003  0.00  0.00    +0.180 C 
ENDBRANCH  29  31
ENDBRANCH  23  29
ENDBRANCH  21  26
ENDBRANCH   1  21
TORSDOF 9
