REMARK  Name = ZINCvU00000009cW.0
REMARK                            x       y       z     vdW  Elec       q    Type
REMARK                         _______ _______ _______ _____ _____    ______ ____
ROOT
ATOM      1  C   LIG    1        0.737   7.325  -1.406  0.00  0.00    +0.220 C 
ENDROOT
BRANCH   1   5
ATOM      2  C   LIG    1        0.043  10.847  -1.377  0.00  0.00    +0.160 A 
ATOM      3  N   LIG    1       -1.145  10.322  -1.369  0.00  0.00    -0.350 NA
ATOM      4  O   LIG    1       -1.069   9.111  -1.383  0.00  0.00    +0.100 OA
ATOM      5  C   LIG    1        0.214   8.738  -1.392  0.00  0.00    +0.180 A 
ATOM      6  N   LIG    1        0.930   9.836  -1.392  0.00  0.00    -0.450 NA
BRANCH   2   7
ATOM      7  C   LIG    1        0.368  12.319  -1.372  0.00  0.00    +0.360 C 
BRANCH   7   8
ATOM      8  O   LIG    1        0.457  12.792  -2.717  0.00  0.00    -0.300 OA
BRANCH   8  12
ATOM      9  F   LIG    1        1.240  16.489  -5.590  0.00  0.00    -0.120 F 
ATOM     10  C   LIG    1        1.141  15.975  -4.344  0.00  0.00    +0.150 A 
ATOM     11  C   LIG    1        0.847  14.634  -4.170  0.00  0.00    -0.010 A 
ATOM     12  C   LIG    1        0.746  14.109  -2.891  0.00  0.00    +0.170 A 
ATOM     13  C   LIG    1        0.933  14.929  -1.788  0.00  0.00    -0.060 A 
ATOM     14  C   LIG    1        1.233  16.267  -1.965  0.00  0.00    +0.110 A 
ATOM     15  C   LIG    1        1.334  16.791  -3.241  0.00  0.00    -0.110 A 
ATOM     16 CL   LIG    1        1.702  18.473  -3.460  0.00  0.00    -0.040 Cl
ENDBRANCH   8  12
ENDBRANCH   7   8
ENDBRANCH   2   7
ENDBRANCH   1   5
BRANCH   1  17
ATOM     17  C   LIG    1        0.928   6.838   0.032  0.00  0.00    +0.220 C 
BRANCH  17  18
ATOM     18  C   LIG    1        1.452   5.425   0.018  0.00  0.00    +0.170 A 
ATOM     19  N   LIG    1        2.707   5.069   0.004  0.00  0.00    -0.260 NA
ATOM     20  N   LIG    1        2.790   3.785   0.001  0.00  0.00    -0.250 NA
ATOM     21  C   LIG    1        1.579   3.272   0.005  0.00  0.00    +0.240 A 
ATOM     22  O   LIG    1        0.710   4.304   0.019  0.00  0.00    -0.210 OA
BRANCH  21  23
ATOM     23  C   LIG    1        1.237   1.842   0.000  0.00  0.00    +0.080 A 
ATOM     24  C   LIG    1        2.135   0.824  -0.014  0.00  0.00    +0.080 A 
ATOM     25  C   LIG    1        1.349  -0.410  -0.013  0.00  0.00    -0.140 A 
ATOM     26  C   LIG    1        1.671  -1.769  -0.024  0.00  0.00    +0.080 A 
ATOM     27  C   LIG    1        0.671  -2.702  -0.019  0.00  0.00    +0.010 A 
ATOM     28  C   LIG    1       -0.659  -2.307  -0.004  0.00  0.00    +0.060 A 
ATOM     29  C   LIG    1       -0.996  -0.969   0.006  0.00  0.00    +0.030 A 
ATOM     30  C   LIG    1        0.002  -0.004   0.002  0.00  0.00    +0.080 A 
ATOM     31  O   LIG    1       -0.016   1.344   0.009  0.00  0.00    -0.180 OA
ENDBRANCH  21  23
ENDBRANCH  17  18
ENDBRANCH   1  17
TORSDOF 7
