REMARK  Name = ZINCkj00000GeNGU.0
REMARK                            x       y       z     vdW  Elec       q    Type
REMARK                         _______ _______ _______ _____ _____    ______ ____
ROOT
ATOM      1  C   LIG    1       -2.964   1.520   0.174  0.00  0.00    +0.170 C 
ATOM      2  C   LIG    1       -2.543   1.161   1.601  0.00  0.00    +0.060 C 
ATOM      3  C   LIG    1       -1.161   1.757   1.886  0.00  0.00    +0.040 C 
ATOM      4  C   LIG    1       -0.169   1.240   0.840  0.00  0.00    +0.060 C 
ATOM      5  C   LIG    1       -0.677   1.596  -0.558  0.00  0.00    +0.240 C 
ATOM      6  N   LIG    1       -1.989   0.975  -0.778  0.00  0.00    -0.380 N 
ATOM      7  H   LIG    1       -1.915  -0.022  -0.647  0.00  0.00    +0.430 HD
ENDROOT
BRANCH   1   8
ATOM      8  C   LIG    1       -4.344   0.926  -0.114  0.00  0.00    +0.360 C 
BRANCH   8  12
ATOM      9  C   LIG    1       -5.296  -3.735   1.462  0.00  0.00    +0.120 C 
ATOM     10  C   LIG    1       -4.702  -2.562   0.727  0.00  0.00    -0.220 A 
ATOM     11  C   LIG    1       -5.051  -1.264   0.884  0.00  0.00    +0.260 A 
ATOM     12  N   LIG    1       -4.293  -0.529   0.044  0.00  0.00    -0.400 N 
ATOM     13  N   LIG    1       -3.442  -1.403  -0.645  0.00  0.00    -0.350 NA
ATOM     14  C   LIG    1       -3.689  -2.621  -0.236  0.00  0.00    +0.280 A 
ENDBRANCH   8  12
ENDBRANCH   1   8
BRANCH   6  15
ATOM     15  C   LIG    1       -2.438   1.255  -2.149  0.00  0.00    +0.250 C 
BRANCH  15  16
ATOM     16  C   LIG    1       -1.498   0.569  -3.143  0.00  0.00    +0.350 C 
BRANCH  16  17
ATOM     17  N   LIG    1       -1.945   0.848  -4.510  0.00  0.00    -0.400 N 
ATOM     18  C   LIG    1       -1.218   1.392  -5.500  0.00  0.00    +0.500 A 
ATOM     19  N   LIG    1       -1.976   1.474  -6.564  0.00  0.00    -0.530 NA
ATOM     20  C   LIG    1       -3.191   1.001  -6.290  0.00  0.00    +0.450 A 
ATOM     21  N   LIG    1       -3.221   0.606  -5.044  0.00  0.00    -0.320 NA
ENDBRANCH  16  17
ENDBRANCH  15  16
ENDBRANCH   6  15
TORSDOF 5
