REMARK  Name = ZINCkj00000GeNGU.1
REMARK                            x       y       z     vdW  Elec       q    Type
REMARK                         _______ _______ _______ _____ _____    ______ ____
ROOT
ATOM      1  C   LIG    1       -0.018   1.464   0.010  0.00  0.00    +0.180 C 
ATOM      2  C   LIG    1        1.416   1.997  -0.001  0.00  0.00    +0.070 C 
ATOM      3  C   LIG    1        2.130   1.502  -1.262  0.00  0.00    +0.060 C 
ATOM      4  C   LIG    1        2.079  -0.029  -1.297  0.00  0.00    +0.060 C 
ATOM      5  C   LIG    1        0.621  -0.487  -1.238  0.00  0.00    +0.260 C 
ATOM      6  N   LIG    1        0.002  -0.004   0.002  0.00  0.00    -0.380 N 
ATOM      7  H   LIG    1       -0.943  -0.353   0.063  0.00  0.00    +0.420 HD
ENDROOT
BRANCH   1   8
ATOM      8  C   LIG    1       -0.735   1.956   1.268  0.00  0.00    +0.370 C 
BRANCH   8  12
ATOM      9  C   LIG    1       -5.161  -0.058   2.484  0.00  0.00    +0.120 C 
ATOM     10  C   LIG    1       -4.072   0.675   1.743  0.00  0.00    -0.210 A 
ATOM     11  C   LIG    1       -2.796   0.841   2.163  0.00  0.00    +0.220 A 
ATOM     12  N   LIG    1       -2.142   1.550   1.220  0.00  0.00    -0.410 N 
ATOM     13  N   LIG    1       -3.046   1.833   0.188  0.00  0.00    -0.290 NA
ATOM     14  C   LIG    1       -4.201   1.303   0.501  0.00  0.00    +0.260 A 
ENDBRANCH   8  12
ENDBRANCH   1   8
BRANCH   6  15
ATOM     15  C   LIG    1        0.776  -0.488   1.153  0.00  0.00    +0.250 C 
BRANCH  15  16
ATOM     16  C   LIG    1        0.694  -2.015   1.217  0.00  0.00    +0.350 C 
BRANCH  16  17
ATOM     17  N   LIG    1        1.466  -2.497   2.364  0.00  0.00    -0.400 N 
ATOM     18  C   LIG    1        1.022  -3.280   3.363  0.00  0.00    +0.500 A 
ATOM     19  N   LIG    1        2.015  -3.488   4.189  0.00  0.00    -0.530 NA
ATOM     20  C   LIG    1        3.103  -2.851   3.757  0.00  0.00    +0.460 A 
ATOM     21  N   LIG    1        2.817  -2.230   2.643  0.00  0.00    -0.320 NA
ENDBRANCH  16  17
ENDBRANCH  15  16
ENDBRANCH   6  15
TORSDOF 5
