REMARK  Name = ZINCrD000000BEGk.0
REMARK                            x       y       z     vdW  Elec       q    Type
REMARK                         _______ _______ _______ _____ _____    ______ ____
ROOT
ATOM      1  O   LIG    1        1.936  -0.285  -1.158  0.00  0.00    -0.560 OA
ATOM      2  C   LIG    1        2.304   0.704  -0.553  0.00  0.00    +0.590 C 
ATOM      3  N   LIG    1        1.398   1.506   0.041  0.00  0.00    -0.700 N 
ATOM      4  H   LIG    1        1.683   2.335   0.456  0.00  0.00    +0.420 HD
ENDROOT
BRANCH   2   5
ATOM      5  C   LIG    1        3.737   1.025  -0.470  0.00  0.00    -0.350 A 
ATOM      6  C   LIG    1        4.681   0.156  -0.976  0.00  0.00    +0.430 A 
ATOM      7  N   LIG    1        5.994   0.417  -0.922  0.00  0.00    -0.590 N 
ATOM      8  H   LIG    1        6.612  -0.230  -1.298  0.00  0.00    +0.430 HD
ATOM      9  C   LIG    1        6.505   1.562  -0.351  0.00  0.00    +0.180 A 
ATOM     10  C   LIG    1        7.879   1.783  -0.316  0.00  0.00    -0.030 A 
ATOM     11  C   LIG    1        8.377   2.932   0.258  0.00  0.00    +0.080 A 
ATOM     12  C   LIG    1        7.523   3.878   0.806  0.00  0.00    -0.010 A 
ATOM     13  C   LIG    1        6.160   3.680   0.783  0.00  0.00    +0.110 A 
ATOM     14  C   LIG    1        5.642   2.522   0.205  0.00  0.00    -0.180 A 
ATOM     15  C   LIG    1        4.188   2.276   0.161  0.00  0.00    +0.440 A 
ATOM     16  O   LIG    1        3.394   3.074   0.627  0.00  0.00    -0.480 OA
ENDBRANCH   2   5
BRANCH   3  17
ATOM     17  C   LIG    1       -0.016   1.125   0.060  0.00  0.00    +0.310 C 
BRANCH  17  18
ATOM     18  C   LIG    1       -0.606   1.451   1.409  0.00  0.00    -0.110 A 
ATOM     19  C   LIG    1       -0.252   2.622   2.052  0.00  0.00    +0.080 A 
ATOM     20  C   LIG    1       -0.795   2.924   3.286  0.00  0.00    -0.010 A 
ATOM     21  C   LIG    1       -1.687   2.049   3.883  0.00  0.00    +0.100 A 
ATOM     22  C   LIG    1       -2.038   0.874   3.239  0.00  0.00    -0.020 A 
ATOM     23  F   LIG    1       -2.216   2.341   5.091  0.00  0.00    -0.140 F 
ATOM     24  C   LIG    1       -1.496   0.576   2.003  0.00  0.00    +0.050 A 
ENDBRANCH  17  18
BRANCH  17  25
ATOM     25  C   LIG    1       -0.768   1.898  -1.025  0.00  0.00    +0.150 C 
ATOM     26  C   LIG    1       -0.196   1.559  -2.420  0.00  0.00    +0.020 C 
ATOM     27  C   LIG    1       -0.255   2.900  -3.186  0.00  0.00    -0.010 C 
ATOM     28  C   LIG    1       -0.856   3.890  -2.163  0.00  0.00    +0.200 C 
ATOM     29  O   LIG    1       -0.552   3.318  -0.873  0.00  0.00    -0.360 OA
ENDBRANCH  17  25
ENDBRANCH   3  17
TORSDOF 4
