REMARK  Name = ZINCqH0000007sHa.0
REMARK                            x       y       z     vdW  Elec       q    Type
REMARK                         _______ _______ _______ _____ _____    ______ ____
ROOT
ATOM      1  N   LIG    1        6.161   1.023  -0.051  0.00  0.00    -0.720 N 
ATOM      2  H   LIG    1        6.325   1.979  -0.048  0.00  0.00    +0.400 HD
ATOM      3  C   LIG    1        4.897   0.557  -0.042  0.00  0.00    +0.510 C 
ATOM      4  O   LIG    1        4.691  -0.639  -0.046  0.00  0.00    -0.530 OA
ENDROOT
BRANCH   1   5
ATOM      5  C   LIG    1        7.287   0.086  -0.067  0.00  0.00    +0.300 C 
BRANCH   5   9
ATOM      6  C   LIG    1       10.701   1.992  -1.792  0.00  0.00    +0.130 A 
ATOM      7  C   LIG    1       10.421   0.666  -2.090  0.00  0.00    -0.020 A 
ATOM      8  C   LIG    1        9.317   0.052  -1.531  0.00  0.00    +0.060 A 
ATOM      9  C   LIG    1        8.491   0.758  -0.675  0.00  0.00    -0.130 A 
ATOM     10  C   LIG    1        8.765   2.082  -0.382  0.00  0.00    +0.050 A 
ATOM     11  C   LIG    1        9.871   2.698  -0.934  0.00  0.00    -0.080 A 
BRANCH   6  13
ATOM     12  C   LIG    1       12.014   3.965  -1.990  0.00  0.00    +0.250 C 
ATOM     13  O   LIG    1       11.787   2.598  -2.341  0.00  0.00    -0.320 OA
ENDBRANCH   6  13
ENDBRANCH   5   9
BRANCH   5  14
ATOM     14  C   LIG    1        7.613  -0.344   1.365  0.00  0.00    -0.020 C 
ATOM     15  C   LIG    1        6.436  -1.135   1.939  0.00  0.00    +0.030 C 
ATOM     16  C   LIG    1        7.863   0.896   2.226  0.00  0.00    +0.020 C 
ENDBRANCH   5  14
ENDBRANCH   1   5
BRANCH   3  17
ATOM     17  C   LIG    1        3.738   1.520  -0.025  0.00  0.00    +0.060 C 
BRANCH  17  18
ATOM     18  C   LIG    1        2.424   0.737  -0.017  0.00  0.00    +0.040 C 
BRANCH  18  19
ATOM     19  C   LIG    1        1.248   1.716  -0.001  0.00  0.00    +0.260 C 
BRANCH  19  20
ATOM     20  N   LIG    1       -0.011   0.966   0.007  0.00  0.00    -0.730 N 
ATOM     21  H   LIG    1        0.002  -0.004   0.002  0.00  0.00    +0.400 HD
ATOM     22  C   LIG    1       -1.187   1.624   0.017  0.00  0.00    +0.580 C 
ATOM     23  O   LIG    1       -1.204   2.840   0.023  0.00  0.00    -0.530 OA
BRANCH  22  24
ATOM     24  C   LIG    1       -2.452   0.871   0.018  0.00  0.00    -0.160 A 
ATOM     25  C   LIG    1       -2.516  -0.488   0.012  0.00  0.00    -0.040 A 
ATOM     26  S   LIG    1       -4.135  -1.018   0.017  0.00  0.00    +0.190 S 
ATOM     27  C   LIG    1       -4.752   0.625   0.029  0.00  0.00    -0.060 A 
ATOM     28  C   LIG    1       -3.752   1.498   0.034  0.00  0.00    +0.070 A 
ENDBRANCH  22  24
ENDBRANCH  19  20
ENDBRANCH  18  19
ENDBRANCH  17  18
ENDBRANCH   3  17
TORSDOF 9
