REMARK  Name = ZINCpk00000l5Hed.0
REMARK                            x       y       z     vdW  Elec       q    Type
REMARK                         _______ _______ _______ _____ _____    ______ ____
ROOT
ATOM      1  O   LIG    1        0.002  -0.004   0.002  0.00  0.00    -0.510 OA
ATOM      2  C   LIG    1       -0.014   1.212   0.009  0.00  0.00    +0.580 C 
ATOM      3  N   LIG    1        1.143   1.902   0.001  0.00  0.00    -0.710 N 
ATOM      4  H   LIG    1        1.130   2.872   0.007  0.00  0.00    +0.400 HD
ENDROOT
BRANCH   2   5
ATOM      5  C   LIG    1       -1.299   1.931   0.019  0.00  0.00    -0.120 A 
ATOM      6  C   LIG    1       -1.915   2.272   1.242  0.00  0.00    +0.110 A 
ATOM      7  N   LIG    1       -1.581   2.082   2.534  0.00  0.00    -0.490 NA
ATOM      8  C   LIG    1       -2.498   2.592   3.307  0.00  0.00    +0.500 A 
ATOM      9  N   LIG    1       -3.484   3.146   2.554  0.00  0.00    -0.590 N 
ATOM     10  H   LIG    1       -4.280   3.590   2.885  0.00  0.00    +0.430 HD
ATOM     11  C   LIG    1       -3.140   2.957   1.229  0.00  0.00    +0.030 A 
ATOM     12  C   LIG    1       -3.736   3.294   0.022  0.00  0.00    +0.080 A 
ATOM     13  C   LIG    1       -3.128   2.958  -1.171  0.00  0.00    +0.010 A 
ATOM     14  C   LIG    1       -1.917   2.286  -1.181  0.00  0.00    +0.130 A 
ATOM     15  F   LIG    1       -1.333   1.969  -2.358  0.00  0.00    -0.130 F 
ENDBRANCH   2   5
BRANCH   3  16
ATOM     16  C   LIG    1        2.422   1.187  -0.015  0.00  0.00    +0.260 C 
ATOM     17  C   LIG    1        3.534   2.078   0.576  0.00  0.00    +0.050 C 
ATOM     18  C   LIG    1        4.194   2.733  -0.662  0.00  0.00    -0.020 C 
ATOM     19  C   LIG    1        4.180   1.587  -1.704  0.00  0.00    +0.000 C 
ATOM     20  C   LIG    1        2.832   0.873  -1.464  0.00  0.00    +0.150 C 
BRANCH  20  21
ATOM     21  O   LIG    1        2.987  -0.537  -1.635  0.00  0.00    -0.550 OA
ATOM     22  H   LIG    1        3.246  -0.799  -2.529  0.00  0.00    +0.380 HD
ENDBRANCH  20  21
BRANCH  18  23
ATOM     23  C   LIG    1        5.628   3.164  -0.349  0.00  0.00    +0.310 C 
BRANCH  23  24
ATOM     24  N   LIG    1        6.184   3.885  -1.496  0.00  0.00    -0.460 N 
ATOM     25  C   LIG    1        6.872   3.336  -2.545  0.00  0.00    +0.120 A 
ATOM     26  C   LIG    1        7.194   4.348  -3.372  0.00  0.00    +0.140 A 
ATOM     27  N   LIG    1        6.724   5.486  -2.839  0.00  0.00    -0.500 NA
ATOM     28  C   LIG    1        6.117   5.216  -1.715  0.00  0.00    +0.380 A 
ENDBRANCH  23  24
ENDBRANCH  18  23
ENDBRANCH   3  16
TORSDOF 5
