REMARK  Name = ZINCvU00000006S3.0
REMARK                            x       y       z     vdW  Elec       q    Type
REMARK                         _______ _______ _______ _____ _____    ______ ____
ROOT
ATOM      1  C   LIG    1       -0.534  -1.888  -4.470  0.00  0.00    +0.340 C 
ENDROOT
BRANCH   1   4
ATOM      2  N   LIG    1        0.617  -0.403  -1.310  0.00  0.00    -0.620 N 
ATOM      3  C   LIG    1       -0.168  -0.988  -2.236  0.00  0.00    +0.710 C 
ATOM      4  N   LIG    1        0.320  -1.252  -3.464  0.00  0.00    -0.740 N 
ATOM      5  H   LIG    1        1.237  -1.021  -3.681  0.00  0.00    +0.400 HD
ATOM      6  O   LIG    1       -1.317  -1.278  -1.963  0.00  0.00    -0.590 OA
ATOM      7  C   LIG    1        2.002  -0.054  -1.638  0.00  0.00    +0.280 C 
BRANCH   2   8
ATOM      8  C   LIG    1        0.087  -0.117   0.026  0.00  0.00    +0.300 C 
ATOM      9  C   LIG    1        0.302   1.362   0.353  0.00  0.00    +0.030 C 
BRANCH   8  14
ATOM     10  C   LIG    1        2.832  -3.374   3.930  0.00  0.00    +0.090 C 
ATOM     11  C   LIG    1        2.116  -2.524   2.912  0.00  0.00    -0.080 A 
ATOM     12  C   LIG    1        2.838  -1.702   2.067  0.00  0.00    +0.000 A 
ATOM     13  C   LIG    1        2.181  -0.923   1.133  0.00  0.00    +0.010 A 
ATOM     14  C   LIG    1        0.803  -0.966   1.044  0.00  0.00    -0.100 A 
ATOM     15  C   LIG    1        0.080  -1.784   1.893  0.00  0.00    +0.020 A 
ATOM     16  C   LIG    1        0.737  -2.566   2.824  0.00  0.00    +0.000 A 
ENDBRANCH   8  14
ENDBRANCH   2   8
ENDBRANCH   1   4
BRANCH   1  17
ATOM     17  C   LIG    1        0.246  -2.071  -5.747  0.00  0.00    -0.110 A 
ATOM     18  C   LIG    1        0.964  -3.233  -5.957  0.00  0.00    +0.040 A 
ATOM     19  C   LIG    1        1.679  -3.401  -7.129  0.00  0.00    +0.010 A 
ATOM     20  C   LIG    1        1.676  -2.407  -8.089  0.00  0.00    +0.040 A 
ATOM     21  C   LIG    1        0.957  -1.245  -7.879  0.00  0.00    -0.120 A 
ATOM     22  C   LIG    1        0.238  -1.079  -6.710  0.00  0.00    +0.040 A 
BRANCH  21  23
ATOM     23  C   LIG    1        0.953  -0.161  -8.926  0.00  0.00    +0.360 C 
BRANCH  23  24
ATOM     24  N   LIG    1       -0.155  -0.387  -9.858  0.00  0.00    -0.490 N 
ATOM     25  C   LIG    1       -0.085  -1.035 -11.052  0.00  0.00    +0.470 A 
ATOM     26  N   LIG    1       -1.257  -1.057 -11.618  0.00  0.00    -0.490 NA
ATOM     27  C   LIG    1       -2.157  -0.415 -10.829  0.00  0.00    +0.040 A 
ATOM     28  C   LIG    1       -3.522  -0.145 -10.949  0.00  0.00    +0.070 A 
ATOM     29  C   LIG    1       -4.170   0.542  -9.961  0.00  0.00    +0.000 A 
ATOM     30  C   LIG    1       -3.485   0.975  -8.835  0.00  0.00    +0.030 A 
ATOM     31  C   LIG    1       -2.137   0.719  -8.695  0.00  0.00    +0.010 A 
ATOM     32  C   LIG    1       -1.463   0.023  -9.689  0.00  0.00    +0.050 A 
ENDBRANCH  23  24
ENDBRANCH  21  23
ENDBRANCH   1  17
TORSDOF 6
