REMARK  Name = ZINCrH000004jTzq.0
REMARK                            x       y       z     vdW  Elec       q    Type
REMARK                         _______ _______ _______ _____ _____    ______ ____
ROOT
ATOM      1  C   LIG    1        6.012   1.586   0.770  0.00  0.00    -0.270 A 
ATOM      2  C   LIG    1        6.336   2.773   1.396  0.00  0.00    +0.270 A 
ATOM      3  N   LIG    1        7.677   2.880   1.385  0.00  0.00    -0.310 N 
ATOM      4  N   LIG    1        8.206   1.757   0.739  0.00  0.00    -0.280 NA
ATOM      5  C   LIG    1        7.224   0.981   0.369  0.00  0.00    +0.150 A 
ENDROOT
BRANCH   3   6
ATOM      6  C   LIG    1        8.419   3.940   1.924  0.00  0.00    +0.150 A 
ATOM      7  C   LIG    1        7.769   5.002   2.538  0.00  0.00    -0.010 A 
ATOM      8  C   LIG    1        8.503   6.043   3.073  0.00  0.00    +0.050 A 
ATOM      9  C   LIG    1        9.883   6.032   2.988  0.00  0.00    +0.010 A 
ATOM     10  C   LIG    1       10.533   4.978   2.373  0.00  0.00    +0.040 A 
ATOM     11  C   LIG    1        9.805   3.932   1.841  0.00  0.00    +0.030 A 
ENDBRANCH   3   6
BRANCH   1  14
ATOM     12  C   LIG    1        3.981   3.247  -0.265  0.00  0.00    +0.270 C 
ATOM     13  N   LIG    1        3.674   1.865   0.113  0.00  0.00    -0.610 N 
ATOM     14  C   LIG    1        4.654   1.053   0.554  0.00  0.00    +0.600 C 
ATOM     15  O   LIG    1        4.420  -0.120   0.775  0.00  0.00    -0.520 OA
BRANCH  13  16
ATOM     16  C   LIG    1        2.300   1.366   0.010  0.00  0.00    +0.300 C 
BRANCH  16  17
ATOM     17  C   LIG    1        2.078   0.765  -1.380  0.00  0.00    +0.000 C 
ATOM     18  C   LIG    1        2.188   1.868  -2.435  0.00  0.00    +0.020 C 
ATOM     19  C   LIG    1        1.966   1.267  -3.825  0.00  0.00    +0.000 C 
ATOM     20  C   LIG    1        0.575   0.635  -3.891  0.00  0.00    +0.020 C 
ATOM     21  C   LIG    1        0.465  -0.467  -2.835  0.00  0.00    -0.020 C 
ATOM     22  C   LIG    1        0.687   0.133  -1.446  0.00  0.00    +0.170 C 
BRANCH  22  23
ATOM     23  O   LIG    1       -0.303   1.133  -1.195  0.00  0.00    -0.560 OA
ATOM     24  H   LIG    1       -1.212   0.802  -1.222  0.00  0.00    +0.380 HD
ENDBRANCH  22  23
ENDBRANCH  16  17
ENDBRANCH  13  16
ENDBRANCH   1  14
BRANCH   5  25
ATOM     25  C   LIG    1        7.360  -0.332  -0.358  0.00  0.00    +0.010 C 
ATOM     26  C   LIG    1        6.939  -1.475   0.569  0.00  0.00    +0.060 C 
ATOM     27  C   LIG    1        8.816  -0.531  -0.784  0.00  0.00    +0.040 C 
ATOM     28  C   LIG    1        6.463  -0.324  -1.597  0.00  0.00    +0.040 C 
ENDBRANCH   5  25
TORSDOF 6
