REMARK  Name = ZINCpe00000VVGZJ.0
REMARK                            x       y       z     vdW  Elec       q    Type
REMARK                         _______ _______ _______ _____ _____    ______ ____
ROOT
ATOM      1  C   LIG    1        0.861  -6.917  -0.209  0.00  0.00    +0.160 C 
ATOM      2  C   LIG    1       -0.291  -5.952  -0.101  0.00  0.00    +0.300 C 
ATOM      3  C   LIG    1       -1.540  -6.439   0.166  0.00  0.00    -0.390 C 
ATOM      4  C   LIG    1       -2.670  -5.429   0.266  0.00  0.00    +0.360 C 
ATOM      5  N   LIG    1       -2.300  -4.025   0.064  0.00  0.00    -0.440 N 
ATOM      6  N   LIG    1       -3.005  -2.819   0.076  0.00  0.00    -0.470 N 
ATOM      7  H   LIG    1       -3.955  -2.704   0.237  0.00  0.00    +0.450 HD
ATOM      8  C   LIG    1       -2.103  -1.844  -0.183  0.00  0.00    +0.400 A 
ATOM      9  N   LIG    1       -0.919  -2.377  -0.339  0.00  0.00    -0.500 NA
ATOM     10  C   LIG    1       -0.987  -3.714  -0.198  0.00  0.00    +0.600 A 
ATOM     11  N   LIG    1       -0.064  -4.657  -0.268  0.00  0.00    -0.590 NA
ENDROOT
BRANCH   4  12
ATOM     12  C   LIG    1       -3.296  -5.559   1.631  0.00  0.00    -0.100 A 
ATOM     13  C   LIG    1       -2.599  -5.140   2.750  0.00  0.00    +0.040 A 
ATOM     14  C   LIG    1       -3.168  -5.250   4.002  0.00  0.00    +0.080 A 
ATOM     15  C   LIG    1       -4.445  -5.797   4.139  0.00  0.00    -0.020 A 
ATOM     16  C   LIG    1       -5.141  -6.223   3.005  0.00  0.00    +0.080 A 
ATOM     17  C   LIG    1       -4.562  -6.101   1.759  0.00  0.00    +0.030 A 
BRANCH  15  18
ATOM     18  C   LIG    1       -5.040  -5.920   5.436  0.00  0.00    +0.250 C 
ATOM     19  N   LIG    1       -5.511  -6.018   6.465  0.00  0.00    -0.400 NA
ENDBRANCH  15  18
ENDBRANCH   4  12
BRANCH   3  20
ATOM     20  C   LIG    1       -1.768  -7.816   0.341  0.00  0.00    +0.600 C 
ATOM     21  O   LIG    1       -0.828  -8.591   0.371  0.00  0.00    -0.550 OA
ATOM     22  N   LIG    1       -3.027  -8.279   0.475  0.00  0.00    -0.870 N 
ATOM     23  H   LIG    1       -3.181  -9.216   0.673  0.00  0.00    +0.400 HD
ATOM     24  H   LIG    1       -3.779  -7.674   0.375  0.00  0.00    +0.390 HD
ENDBRANCH   3  20
BRANCH   8  25
ATOM     25  C   LIG    1       -2.413  -0.372  -0.271  0.00  0.00    +0.170 C 
BRANCH  25  26
ATOM     26  C   LIG    1       -1.129   0.403  -0.573  0.00  0.00    +0.070 C 
BRANCH  26  27
ATOM     27  C   LIG    1       -1.444   1.898  -0.662  0.00  0.00    +0.180 C 
BRANCH  27  28
ATOM     28  O   LIG    1       -0.245   2.621  -0.944  0.00  0.00    -0.570 OA
ATOM     29  H   LIG    1       -0.370   3.578  -1.014  0.00  0.00    +0.380 HD
ENDBRANCH  27  28
ENDBRANCH  26  27
ENDBRANCH  25  26
ENDBRANCH   8  25
TORSDOF 7
