REMARK  Name = ZINCvU00000007UA.0
REMARK                            x       y       z     vdW  Elec       q    Type
REMARK                         _______ _______ _______ _____ _____    ______ ____
ROOT
ATOM      1  C   LIG    1       -0.719   3.828   1.271  0.00  0.00    +0.210 A 
ATOM      2  N   LIG    1       -0.106   4.297   0.190  0.00  0.00    -0.290 NA
ATOM      3  N   LIG    1        0.013   5.560  -0.025  0.00  0.00    -0.160 NA
ATOM      4  C   LIG    1       -0.480   6.439   0.841  0.00  0.00    +0.060 A 
ATOM      5  C   LIG    1       -1.135   5.966   1.996  0.00  0.00    +0.230 A 
ATOM      6  N   LIG    1       -1.238   4.651   2.174  0.00  0.00    -0.440 NA
ENDROOT
BRANCH   5   7
ATOM      7  C   LIG    1       -1.699   6.911   2.988  0.00  0.00    -0.080 A 
ATOM      8  C   LIG    1       -1.051   8.117   3.254  0.00  0.00    +0.070 A 
ATOM      9  C   LIG    1       -1.584   8.995   4.175  0.00  0.00    +0.000 A 
ATOM     10  C   LIG    1       -2.753   8.676   4.842  0.00  0.00    +0.040 A 
ATOM     11  C   LIG    1       -3.398   7.479   4.587  0.00  0.00    +0.000 A 
ATOM     12  C   LIG    1       -2.877   6.595   3.664  0.00  0.00    +0.070 A 
ENDBRANCH   5   7
BRANCH   4  13
ATOM     13  C   LIG    1       -0.344   7.894   0.597  0.00  0.00    -0.060 A 
ATOM     14  C   LIG    1       -1.362   8.767   0.978  0.00  0.00    +0.050 A 
ATOM     15  C   LIG    1       -1.227  10.121   0.752  0.00  0.00    +0.010 A 
ATOM     16  C   LIG    1       -0.089  10.613   0.139  0.00  0.00    +0.030 A 
ATOM     17  C   LIG    1        0.923   9.752  -0.246  0.00  0.00    +0.000 A 
ATOM     18  C   LIG    1        0.802   8.396  -0.021  0.00  0.00    +0.060 A 
ENDBRANCH   4  13
BRANCH   1  19
ATOM     19  S   LIG    1       -0.851   2.087   1.507  0.00  0.00    +0.130 S 
BRANCH  19  20
ATOM     20  C   LIG    1       -0.005   1.503   0.017  0.00  0.00    +0.090 C 
BRANCH  20  23
ATOM     21  N   LIG    1        0.585  -0.664  -1.018  0.00  0.00    -0.660 N 
ATOM     22  H   LIG    1        0.925  -0.174  -1.782  0.00  0.00    +0.420 HD
ATOM     23  C   LIG    1        0.005  -0.004   0.004  0.00  0.00    +0.530 C 
ATOM     24  O   LIG    1       -0.509  -0.622   0.912  0.00  0.00    -0.500 OA
BRANCH  21  32
ATOM     25  C   LIG    1        0.770  -2.073  -3.484  0.00  0.00    +0.110 C 
ATOM     26  C   LIG    1        0.790  -2.785  -2.156  0.00  0.00    -0.110 A 
ATOM     27  C   LIG    1        0.905  -4.161  -2.111  0.00  0.00    +0.050 A 
ATOM     28  C   LIG    1        0.918  -4.816  -0.894  0.00  0.00    +0.020 A 
ATOM     29  C   LIG    1        0.820  -4.096   0.284  0.00  0.00    -0.020 A 
ATOM     30  C   LIG    1        0.710  -2.719   0.246  0.00  0.00    +0.040 A 
ATOM     31 CL   LIG    1        0.836  -4.923   1.810  0.00  0.00    -0.060 Cl
ATOM     32  C   LIG    1        0.697  -2.059  -0.976  0.00  0.00    +0.160 A 
ENDBRANCH  21  32
ENDBRANCH  20  23
ENDBRANCH  19  20
ENDBRANCH   1  19
TORSDOF 6
