REMARK  Name = ZINCkj000005mbbD.1
REMARK                            x       y       z     vdW  Elec       q    Type
REMARK                         _______ _______ _______ _____ _____    ______ ____
ROOT
ATOM      1  N   LIG    1        1.133   4.007   1.449  0.00  0.00    -0.370 N 
ATOM      2  C   LIG    1        0.575   5.340   1.721  0.00  0.00    +0.270 C 
ATOM      3  C   LIG    1        0.867   5.704   3.177  0.00  0.00    +0.130 C 
ATOM      4  C   LIG    1        2.332   5.503   3.469  0.00  0.00    -0.090 A 
ATOM      5  C   LIG    1        2.869   6.087   4.605  0.00  0.00    +0.040 A 
ATOM      6  C   LIG    1        4.206   5.920   4.909  0.00  0.00    +0.050 A 
ATOM      7  C   LIG    1        5.011   5.167   4.075  0.00  0.00    +0.040 A 
ATOM      8  C   LIG    1        4.477   4.586   2.942  0.00  0.00    +0.050 A 
ATOM      9  C   LIG    1        3.135   4.753   2.635  0.00  0.00    -0.140 A 
ATOM     10  C   LIG    1        2.595   4.104   1.389  0.00  0.00    +0.330 C 
ATOM     11  H   LIG    1        0.868   3.372   2.187  0.00  0.00    +0.430 HD
ENDROOT
BRANCH   1  15
ATOM     12  O   LIG    1       -0.017   0.038  -0.439  0.00  0.00    -0.430 OA
ATOM     13  C   LIG    1       -0.024   1.229  -0.212  0.00  0.00    +0.520 C 
ATOM     14  C   LIG    1        1.200   2.117  -0.149  0.00  0.00    +0.130 C 
ATOM     15  C   LIG    1        0.620   3.511   0.166  0.00  0.00    +0.180 C 
ATOM     16  C   LIG    1       -0.871   3.264   0.247  0.00  0.00    +0.520 C 
ATOM     17  O   LIG    1       -1.710   4.108   0.480  0.00  0.00    -0.430 OA
ATOM     18  N   LIG    1       -1.116   1.969   0.017  0.00  0.00    -0.530 N 
BRANCH  18  19
ATOM     19  C   LIG    1       -2.468   1.405   0.021  0.00  0.00    +0.180 C 
ATOM     20  C   LIG    1       -2.599  -0.117   0.100  0.00  0.00    +0.070 C 
ATOM     21  C   LIG    1       -2.905   0.610  -1.212  0.00  0.00    +0.050 C 
ENDBRANCH  18  19
ENDBRANCH   1  15
TORSDOF 2
