REMARK  Name = ZINCkj000005mbbD.2
REMARK                            x       y       z     vdW  Elec       q    Type
REMARK                         _______ _______ _______ _____ _____    ______ ____
ROOT
ATOM      1  N   LIG    1        4.188   2.309  -1.609  0.00  0.00    -0.370 N 
ATOM      2  C   LIG    1        5.309   3.251  -1.471  0.00  0.00    +0.270 C 
ATOM      3  C   LIG    1        5.719   3.729  -2.865  0.00  0.00    +0.130 C 
ATOM      4  C   LIG    1        5.930   2.542  -3.769  0.00  0.00    -0.100 A 
ATOM      5  C   LIG    1        6.625   2.724  -4.954  0.00  0.00    +0.040 A 
ATOM      6  C   LIG    1        6.833   1.661  -5.811  0.00  0.00    +0.050 A 
ATOM      7  C   LIG    1        6.346   0.409  -5.483  0.00  0.00    +0.040 A 
ATOM      8  C   LIG    1        5.655   0.227  -4.302  0.00  0.00    +0.050 A 
ATOM      9  C   LIG    1        5.446   1.293  -3.441  0.00  0.00    -0.130 A 
ATOM     10  C   LIG    1        4.690   1.048  -2.161  0.00  0.00    +0.330 C 
ATOM     11  H   LIG    1        3.494   2.697  -2.231  0.00  0.00    +0.430 HD
ENDROOT
BRANCH   1  15
ATOM     12  O   LIG    1        0.616   3.745   0.797  0.00  0.00    -0.430 OA
ATOM     13  C   LIG    1        1.485   3.001   0.395  0.00  0.00    +0.520 C 
ATOM     14  C   LIG    1        2.950   3.355   0.263  0.00  0.00    +0.130 C 
ATOM     15  C   LIG    1        3.586   2.064  -0.292  0.00  0.00    +0.180 C 
ATOM     16  C   LIG    1        2.413   1.115  -0.411  0.00  0.00    +0.520 C 
ATOM     17  O   LIG    1        2.472  -0.027  -0.814  0.00  0.00    -0.430 OA
ATOM     18  N   LIG    1        1.300   1.736  -0.001  0.00  0.00    -0.530 N 
BRANCH  18  19
ATOM     19  C   LIG    1       -0.013   1.086   0.008  0.00  0.00    +0.180 C 
ATOM     20  C   LIG    1       -1.128   1.758   0.811  0.00  0.00    +0.080 C 
ATOM     21  C   LIG    1       -1.157   1.795  -0.719  0.00  0.00    +0.050 C 
ENDBRANCH  18  19
ENDBRANCH   1  15
TORSDOF 2
