REMARK  Name = ZINCvU0000000BY9.0
REMARK                            x       y       z     vdW  Elec       q    Type
REMARK                         _______ _______ _______ _____ _____    ______ ____
ROOT
ATOM      1  C   LIG    1       -0.718   1.572   1.248  0.00  0.00    +0.520 C 
ATOM      2  N   LIG    1       -0.242   1.246   2.466  0.00  0.00    -0.620 N 
ATOM      3  H   LIG    1        0.555   0.699   2.544  0.00  0.00    +0.430 HD
ATOM      4  O   LIG    1       -1.714   2.256   1.150  0.00  0.00    -0.470 OA
ENDROOT
BRANCH   2   5
ATOM      5  C   LIG    1       -0.892   1.694   3.609  0.00  0.00    +0.270 A 
ATOM      6  N   LIG    1       -0.525   1.443   4.827  0.00  0.00    -0.500 NA
ATOM      7  C   LIG    1       -1.268   1.955   5.798  0.00  0.00    +0.130 A 
ATOM      8  C   LIG    1       -2.326   2.681   5.391  0.00  0.00    -0.110 A 
ATOM      9  S   LIG    1       -2.339   2.697   3.629  0.00  0.00    +0.210 S 
BRANCH   7  10
ATOM     10  C   LIG    1       -0.956   1.743   7.231  0.00  0.00    -0.020 A 
ATOM     11  C   LIG    1        0.145   0.987   7.588  0.00  0.00    +0.070 A 
ATOM     12  C   LIG    1        0.436   0.790   8.947  0.00  0.00    -0.050 A 
ATOM     13  C   LIG    1        1.546   0.027   9.350  0.00  0.00    +0.030 A 
ATOM     14  C   LIG    1        1.799  -0.145  10.676  0.00  0.00    +0.000 A 
ATOM     15  C   LIG    1        0.974   0.424  11.644  0.00  0.00    +0.010 A 
ATOM     16  C   LIG    1       -0.110   1.169  11.291  0.00  0.00    +0.020 A 
ATOM     17  C   LIG    1       -0.405   1.369   9.932  0.00  0.00    -0.050 A 
ATOM     18  C   LIG    1       -1.517   2.133   9.535  0.00  0.00    +0.030 A 
ATOM     19  C   LIG    1       -1.778   2.317   8.215  0.00  0.00    +0.030 A 
ENDBRANCH   7  10
ENDBRANCH   2   5
BRANCH   1  20
ATOM     20  C   LIG    1       -0.013   1.086   0.008  0.00  0.00    +0.270 C 
BRANCH  20  21
ATOM     21  O   LIG    1       -0.704   1.559  -1.150  0.00  0.00    -0.270 OA
BRANCH  21  27
ATOM     22  C   LIG    1       -0.821   1.637  -3.528  0.00  0.00    +0.100 A 
ATOM     23  C   LIG    1       -0.306   1.282  -4.758  0.00  0.00    +0.030 A 
ATOM     24  C   LIG    1        0.848   0.490  -4.827  0.00  0.00    -0.170 A 
ATOM     25  C   LIG    1        1.471   0.064  -3.648  0.00  0.00    +0.080 A 
ATOM     26  C   LIG    1        0.952   0.427  -2.426  0.00  0.00    -0.050 A 
ATOM     27  C   LIG    1       -0.195   1.208  -2.358  0.00  0.00    +0.130 A 
BRANCH  24  28
ATOM     28  C   LIG    1        1.402   0.108  -6.133  0.00  0.00    +0.400 C 
ATOM     29  O   LIG    1        0.860   0.478  -7.153  0.00  0.00    -0.460 OA
ATOM     30  C   LIG    1        2.643  -0.744  -6.205  0.00  0.00    +0.080 C 
ENDBRANCH  24  28
BRANCH  22  32
ATOM     31  C   LIG    1       -2.531   2.809  -4.695  0.00  0.00    +0.250 C 
ATOM     32  O   LIG    1       -1.941   2.405  -3.457  0.00  0.00    -0.300 OA
ENDBRANCH  22  32
ENDBRANCH  21  27
ENDBRANCH  20  21
ENDBRANCH   1  20
TORSDOF 7
