REMARK  Name = ZINC650000002rPV.0
REMARK                            x       y       z     vdW  Elec       q    Type
REMARK                         _______ _______ _______ _____ _____    ______ ____
ROOT
ATOM      1  C   LIG    1        2.396   5.244   0.133  0.00  0.00    +0.010 C 
ATOM      2  C   LIG    1        2.534   3.726  -0.002  0.00  0.00    +0.200 C 
ENDROOT
BRANCH   2   3
ATOM      3  O   LIG    1        3.193   3.416  -1.231  0.00  0.00    -0.560 OA
ATOM      4  H   LIG    1        2.728   3.731  -2.018  0.00  0.00    +0.380 HD
ENDBRANCH   2   3
BRANCH   2   5
ATOM      5  C   LIG    1        1.145   3.085   0.008  0.00  0.00    +0.000 C 
BRANCH   5   6
ATOM      6  C   LIG    1        1.286   1.562  -0.002  0.00  0.00    +0.180 C 
BRANCH   6   7
ATOM      7  O   LIG    1       -0.011   0.963   0.007  0.00  0.00    -0.580 OA
ATOM      8  H   LIG    1        0.002  -0.004   0.002  0.00  0.00    +0.380 HD
ENDBRANCH   6   7
ENDBRANCH   5   6
ENDBRANCH   2   5
TORSDOF 4
