REMARK  Name = ZINCrH000004lZeR.0
REMARK                            x       y       z     vdW  Elec       q    Type
REMARK                         _______ _______ _______ _____ _____    ______ ____
ROOT
ATOM      1  C   LIG    1        3.616   3.442   0.715  0.00  0.00    +0.560 C 
ATOM      2  N   LIG    1        2.491   4.119   0.409  0.00  0.00    -0.670 N 
ATOM      3  H   LIG    1        2.512   5.085   0.332  0.00  0.00    +0.410 HD
ATOM      4  O   LIG    1        3.612   2.226   0.720  0.00  0.00    -0.500 OA
ENDROOT
BRANCH   2   5
ATOM      5  C   LIG    1        1.293   3.427   0.204  0.00  0.00    +0.180 A 
ATOM      6  C   LIG    1        0.088   3.989   0.607  0.00  0.00    -0.040 A 
ATOM      7  C   LIG    1       -1.098   3.305   0.403  0.00  0.00    +0.130 A 
ATOM      8  C   LIG    1       -1.086   2.058  -0.197  0.00  0.00    -0.060 A 
ATOM      9  C   LIG    1        0.117   1.495  -0.607  0.00  0.00    +0.130 A 
ATOM     10  F   LIG    1       -2.268   3.853   0.796  0.00  0.00    -0.130 F 
ATOM     11  C   LIG    1        1.307   2.179  -0.403  0.00  0.00    +0.050 A 
BRANCH   9  12
ATOM     12  N   LIG    1        0.128   0.239  -1.218  0.00  0.00    -0.480 N 
ATOM     13  C   LIG    1       -0.389  -0.805  -0.297  0.00  0.00    +0.180 C 
ATOM     14  C   LIG    1       -0.796  -1.953  -1.256  0.00  0.00    +0.040 C 
ATOM     15  C   LIG    1       -1.373  -1.197  -2.474  0.00  0.00    +0.020 C 
ATOM     16  C   LIG    1       -0.765   0.216  -2.397  0.00  0.00    +0.170 C 
ENDBRANCH   9  12
ENDBRANCH   2   5
BRANCH   1  19
ATOM     17  C   LIG    1        7.177   4.168   1.666  0.00  0.00    +0.140 A 
ATOM     18  C   LIG    1        6.020   3.477   1.359  0.00  0.00    -0.020 A 
ATOM     19  C   LIG    1        4.853   4.177   1.043  0.00  0.00    -0.060 A 
ATOM     20  C   LIG    1        4.861   5.574   1.032  0.00  0.00    -0.060 A 
ATOM     21  C   LIG    1        6.019   6.260   1.345  0.00  0.00    +0.150 A 
ATOM     22  C   LIG    1        7.181   5.560   1.660  0.00  0.00    +0.060 A 
BRANCH  17  24
ATOM     23  C   LIG    1        8.238   2.060   1.961  0.00  0.00    +0.250 C 
ATOM     24  O   LIG    1        8.313   3.487   1.974  0.00  0.00    -0.300 OA
ENDBRANCH  17  24
BRANCH  21  25
ATOM     25  O   LIG    1        6.026   7.620   1.340  0.00  0.00    -0.300 OA
ATOM     26  C   LIG    1        4.799   8.274   1.008  0.00  0.00    +0.250 C 
ENDBRANCH  21  25
BRANCH  22  27
ATOM     27  O   LIG    1        8.320   6.237   1.962  0.00  0.00    -0.310 OA
ATOM     28  C   LIG    1        9.193   6.554   0.876  0.00  0.00    +0.240 C 
ENDBRANCH  22  27
ENDBRANCH   1  19
TORSDOF 6
