REMARK  Name = ZINCvU0000000A4Q.0
REMARK                            x       y       z     vdW  Elec       q    Type
REMARK                         _______ _______ _______ _____ _____    ______ ____
ROOT
ATOM      1  N   LIG    1       -2.386   7.929   4.310  0.00  0.00    -0.730 N 
ATOM      2  H   LIG    1       -3.164   7.823   4.880  0.00  0.00    +0.400 HD
ATOM      3  C   LIG    1       -2.388   7.413   3.065  0.00  0.00    +0.510 C 
ATOM      4  O   LIG    1       -1.416   7.545   2.353  0.00  0.00    -0.520 OA
ENDROOT
BRANCH   1   5
ATOM      5  C   LIG    1       -1.210   8.649   4.803  0.00  0.00    +0.290 C 
BRANCH   5   6
ATOM      6  C   LIG    1       -1.628   9.614   5.883  0.00  0.00    -0.080 A 
ATOM      7  C   LIG    1       -2.582   9.239   6.810  0.00  0.00    +0.020 A 
ATOM      8  C   LIG    1       -2.966  10.117   7.808  0.00  0.00    +0.030 A 
ATOM      9  C   LIG    1       -2.399  11.379   7.868  0.00  0.00    +0.070 A 
ATOM     10  O   LIG    1       -2.773  12.256   8.844  0.00  0.00    -0.320 OA
ATOM     11  C   LIG    1       -1.779  12.560   9.825  0.00  0.00    +0.230 C 
ATOM     12  C   LIG    1       -0.859  13.668   9.336  0.00  0.00    -0.010 C 
ATOM     13  C   LIG    1       -0.043  13.250   8.123  0.00  0.00    +0.230 C 
ATOM     14  O   LIG    1       -0.892  13.003   7.001  0.00  0.00    -0.320 OA
ATOM     15  C   LIG    1       -1.445  11.757   6.934  0.00  0.00    +0.070 A 
ATOM     16  C   LIG    1       -1.058  10.874   5.940  0.00  0.00    +0.040 A 
ENDBRANCH   5   6
BRANCH   5  18
ATOM     17  C   LIG    1        0.222   6.671   4.277  0.00  0.00    +0.020 C 
ATOM     18  C   LIG    1       -0.202   7.650   5.374  0.00  0.00    -0.030 C 
ATOM     19  C   LIG    1        1.027   8.403   5.888  0.00  0.00    +0.030 C 
ENDBRANCH   5  18
ENDBRANCH   1   5
BRANCH   3  20
ATOM     20  C   LIG    1       -3.598   6.671   2.558  0.00  0.00    +0.140 C 
BRANCH  20  21
ATOM     21  C   LIG    1       -3.345   6.200   1.150  0.00  0.00    -0.160 A 
ATOM     22  C   LIG    1       -3.697   6.824   0.017  0.00  0.00    +0.230 A 
ATOM     23  O   LIG    1       -3.305   6.104  -1.049  0.00  0.00    -0.190 OA
ATOM     24  C   LIG    1       -2.677   4.975  -0.663  0.00  0.00    +0.050 A 
ATOM     25  C   LIG    1       -2.096   3.921  -1.353  0.00  0.00    +0.030 A 
ATOM     26  C   LIG    1       -1.512   2.875  -0.665  0.00  0.00    -0.070 A 
ATOM     27  C   LIG    1       -1.501   2.866   0.723  0.00  0.00    -0.110 A 
ATOM     28  C   LIG    1       -0.802   1.617   1.223  0.00  0.00    +0.080 C 
ATOM     29  C   LIG    1       -0.013   1.086   0.008  0.00  0.00    +0.030 C 
ATOM     30  C   LIG    1       -2.074   3.906   1.427  0.00  0.00    +0.060 A 
ATOM     31  C   LIG    1       -0.825   1.630  -1.186  0.00  0.00    +0.080 C 
ATOM     32  C   LIG    1       -2.664   4.965   0.742  0.00  0.00    -0.110 A 
ENDBRANCH  20  21
ENDBRANCH   3  20
TORSDOF 5
