REMARK  Name = ZINCqH0000051mOw.0
REMARK                            x       y       z     vdW  Elec       q    Type
REMARK                         _______ _______ _______ _____ _____    ______ ____
ROOT
ATOM      1  C   LIG    1       -3.303  -1.939  -2.993  0.00  0.00    -0.210 A 
ATOM      2  C   LIG    1       -2.596  -1.383  -4.058  0.00  0.00    +0.130 A 
ATOM      3  C   LIG    1       -2.996  -1.609  -5.362  0.00  0.00    -0.040 A 
ATOM      4  C   LIG    1       -4.102  -2.390  -5.630  0.00  0.00    +0.160 A 
ATOM      5  C   LIG    1       -4.825  -2.957  -4.581  0.00  0.00    -0.220 A 
ATOM      6  C   LIG    1       -6.007  -3.801  -4.842  0.00  0.00    +0.440 A 
ATOM      7  O   LIG    1       -6.526  -3.848  -5.943  0.00  0.00    -0.450 OA
ATOM      8  C   LIG    1       -6.531  -4.584  -3.706  0.00  0.00    -0.190 A 
ATOM      9  C   LIG    1       -7.466  -5.600  -3.904  0.00  0.00    +0.120 A 
ATOM     10  C   LIG    1       -7.932  -6.316  -2.823  0.00  0.00    +0.010 A 
ATOM     11  C   LIG    1       -7.476  -6.031  -1.544  0.00  0.00    +0.070 A 
ATOM     12  C   LIG    1       -6.553  -5.027  -1.333  0.00  0.00    +0.040 A 
ATOM     13  F   LIG    1       -6.118  -4.761  -0.082  0.00  0.00    -0.130 F 
ATOM     14  C   LIG    1       -6.069  -4.289  -2.412  0.00  0.00    +0.180 A 
ATOM     15  N   LIG    1       -5.149  -3.279  -2.211  0.00  0.00    -0.620 N 
ATOM     16  H   LIG    1       -5.003  -2.946  -1.312  0.00  0.00    +0.440 HD
ATOM     17  C   LIG    1       -4.431  -2.738  -3.249  0.00  0.00    +0.280 A 
ENDROOT
BRANCH   1  19
ATOM     18  O   LIG    1       -3.417  -2.268  -0.686  0.00  0.00    -0.540 OA
ATOM     19  C   LIG    1       -2.867  -1.694  -1.606  0.00  0.00    +0.570 C 
ATOM     20  N   LIG    1       -1.859  -0.835  -1.358  0.00  0.00    -0.720 N 
ATOM     21  H   LIG    1       -1.420  -0.377  -2.092  0.00  0.00    +0.400 HD
BRANCH  20  22
ATOM     22  C   LIG    1       -1.425  -0.593   0.020  0.00  0.00    +0.320 C 
BRANCH  22  23
ATOM     23  C   LIG    1       -0.292   0.401   0.023  0.00  0.00    -0.120 A 
ATOM     24  C   LIG    1       -0.559   1.754   0.114  0.00  0.00    +0.020 A 
ATOM     25  C   LIG    1        0.480   2.665   0.117  0.00  0.00    +0.010 A 
ATOM     26  C   LIG    1        1.787   2.223   0.028  0.00  0.00    +0.020 A 
ATOM     27  C   LIG    1        2.054   0.870  -0.062  0.00  0.00    +0.010 A 
ATOM     28  C   LIG    1        1.015  -0.041  -0.065  0.00  0.00    +0.020 A 
ENDBRANCH  22  23
ENDBRANCH  20  22
ENDBRANCH   1  19
TORSDOF 3
