REMARK  Name = ZINCb70000002mvK.1
REMARK                            x       y       z     vdW  Elec       q    Type
REMARK                         _______ _______ _______ _____ _____    ______ ____
ROOT
ATOM      1  C   LIG    1       -2.164   1.050   1.278  0.00  0.00    +0.170 C 
ATOM      2  C   LIG    1       -2.877   1.528   2.544  0.00  0.00    +0.310 C 
ATOM      3  N   LIG    1       -4.166   0.852   2.674  0.00  0.00    -0.720 N 
ATOM      4  H   LIG    1       -4.832   1.229   3.270  0.00  0.00    +0.430 HD
ATOM      5  C   LIG    1       -4.464  -0.267   2.003  0.00  0.00    +0.500 C 
ATOM      6  C   LIG    1       -3.511  -0.911   1.037  0.00  0.00    +0.320 C 
ATOM      7  O   LIG    1       -5.548  -0.782   2.183  0.00  0.00    -0.490 OA
ATOM      8  N   LIG    1       -2.147  -0.421   1.270  0.00  0.00    -0.510 N 
ATOM      9  H   LIG    1       -1.812  -0.760   2.159  0.00  0.00    +0.430 HD
ATOM     10  H   LIG    1       -1.540  -0.748   0.533  0.00  0.00    +0.440 HD
ENDROOT
BRANCH   1  12
ATOM     11  C   LIG    1       -0.013   1.086   0.008  0.00  0.00    +0.050 C 
ATOM     12  C   LIG    1       -0.729   1.579   1.267  0.00  0.00    -0.080 C 
ATOM     13  C   LIG    1       -0.750   3.109   1.275  0.00  0.00    +0.070 C 
ATOM     14  C   LIG    1        0.011   1.072   2.506  0.00  0.00    +0.050 C 
ENDBRANCH   1  12
TORSDOF 1
