REMARK  Name = ZINCpk00000jZpfy.0
REMARK                            x       y       z     vdW  Elec       q    Type
REMARK                         _______ _______ _______ _____ _____    ______ ____
ROOT
ATOM      1  N   LIG    1       -3.808   0.413  -0.280  0.00  0.00    -0.720 N 
ATOM      2  H   LIG    1       -3.382   1.245  -0.540  0.00  0.00    +0.400 HD
ATOM      3  C   LIG    1       -3.075  -0.712  -0.165  0.00  0.00    +0.560 C 
ATOM      4  O   LIG    1       -3.608  -1.754   0.161  0.00  0.00    -0.530 OA
ENDROOT
BRANCH   3   5
ATOM      5  C   LIG    1       -1.623  -0.677  -0.434  0.00  0.00    -0.140 A 
ATOM      6  C   LIG    1       -0.861  -1.843  -0.315  0.00  0.00    +0.120 A 
ATOM      7  C   LIG    1        0.491  -1.808  -0.572  0.00  0.00    +0.030 A 
ATOM      8  C   LIG    1        1.100  -0.615  -0.946  0.00  0.00    +0.180 A 
ATOM      9  C   LIG    1        0.345   0.548  -1.060  0.00  0.00    +0.000 A 
ATOM     10  C   LIG    1       -1.007   0.521  -0.803  0.00  0.00    +0.080 A 
BRANCH   8  11
ATOM     11  N   LIG    1        2.474  -0.584  -1.206  0.00  0.00    -0.340 N 
ATOM     12  C   LIG    1        3.201   0.488  -1.580  0.00  0.00    +0.500 A 
ATOM     13  N   LIG    1        4.444   0.104  -1.720  0.00  0.00    -0.530 NA
ATOM     14  C   LIG    1        4.548  -1.198  -1.455  0.00  0.00    +0.440 A 
ATOM     15  N   LIG    1        3.369  -1.663  -1.136  0.00  0.00    -0.310 NA
ENDBRANCH   8  11
ENDBRANCH   3   5
BRANCH   1  16
ATOM     16  C   LIG    1       -5.248   0.379  -0.013  0.00  0.00    +0.250 C 
BRANCH  16  17
ATOM     17  C   LIG    1       -5.837   1.777  -0.214  0.00  0.00    +0.280 C 
BRANCH  17  19
ATOM     18  C   LIG    1       -7.777   1.995   1.407  0.00  0.00    +0.300 C 
ATOM     19  N   LIG    1       -7.277   1.743   0.053  0.00  0.00    -0.620 N 
ATOM     20  C   LIG    1       -8.142   1.480  -0.947  0.00  0.00    +0.530 C 
ATOM     21  O   LIG    1       -7.726   1.183  -2.046  0.00  0.00    -0.530 OA
BRANCH  20  22
ATOM     22  C   LIG    1       -9.627   1.556  -0.698  0.00  0.00    -0.020 C 
ATOM     23  C   LIG    1      -10.209   0.159  -0.383  0.00  0.00    +0.080 C 
ATOM     24  C   LIG    1      -11.563   0.146  -1.053  0.00  0.00    -0.040 C 
ATOM     25  C   LIG    1      -11.661   1.107  -1.932  0.00  0.00    -0.030 C 
ATOM     26  C   LIG    1      -10.389   1.920  -1.993  0.00  0.00    +0.090 C 
ENDBRANCH  20  22
ENDBRANCH  17  19
ENDBRANCH  16  17
ENDBRANCH   1  16
TORSDOF 6
