REMARK  Name = ZINCah0000006lcC.0
REMARK                            x       y       z     vdW  Elec       q    Type
REMARK                         _______ _______ _______ _____ _____    ______ ____
ROOT
ATOM      1  C   LIG    1       -0.299   4.066   0.038  0.00  0.00    +0.140 C 
ATOM      2  C   LIG    1       -1.407   3.045   0.031  0.00  0.00    +0.030 A 
ATOM      3  N   LIG    1       -2.689   3.307   0.034  0.00  0.00    -0.270 NA
ATOM      4  N   LIG    1       -3.387   2.092   0.031  0.00  0.00    -0.350 N 
ATOM      5  C   LIG    1       -2.473   1.086   0.020  0.00  0.00    +0.140 A 
ATOM      6  C   LIG    1       -1.240   1.653   0.017  0.00  0.00    +0.060 A 
ENDROOT
BRANCH   4   7
ATOM      7  C   LIG    1       -4.843   1.934   0.037  0.00  0.00    +0.230 C 
ATOM      8  C   LIG    1       -5.407   0.565  -0.348  0.00  0.00    +0.050 C 
ATOM      9  C   LIG    1       -5.540   1.746  -1.313  0.00  0.00    +0.030 C 
ENDBRANCH   4   7
BRANCH   6  10
ATOM     10  N   LIG    1       -0.011   0.966   0.007  0.00  0.00    -0.880 N 
ATOM     11  H   LIG    1        0.822   1.462   0.002  0.00  0.00    +0.400 HD
ATOM     12  H   LIG    1        0.002  -0.004   0.002  0.00  0.00    +0.400 HD
ENDBRANCH   6  10
TORSDOF 2
