REMARK  Name = ZINCkj00000GeSSB.1
REMARK                            x       y       z     vdW  Elec       q    Type
REMARK                         _______ _______ _______ _____ _____    ______ ____
ROOT
ATOM      1  C   LIG    1        5.678  -3.650  -0.959  0.00  0.00    +0.220 C 
ENDROOT
BRANCH   1   2
ATOM      2  O   LIG    1        5.941  -3.093   0.331  0.00  0.00    -0.540 OA
ATOM      3  H   LIG    1        6.204  -2.163   0.311  0.00  0.00    +0.380 HD
ENDBRANCH   1   2
BRANCH   1   4
ATOM      4  C   LIG    1        4.542  -2.873  -1.627  0.00  0.00    +0.250 C 
BRANCH   4   5
ATOM      5  N   LIG    1        3.332  -2.964  -0.798  0.00  0.00    -0.400 N 
ATOM      6  C   LIG    1        2.150  -2.338  -1.430  0.00  0.00    +0.310 C 
ATOM      7  C   LIG    1        1.806  -1.812  -0.025  0.00  0.00    +0.290 C 
ATOM      8  C   LIG    1        3.304  -1.964   0.295  0.00  0.00    +0.310 C 
ATOM      9  H   LIG    1        3.154  -3.904  -0.475  0.00  0.00    +0.440 HD
BRANCH   7  10
ATOM     10  N   LIG    1        1.339  -0.424  -0.013  0.00  0.00    -0.390 N 
ATOM     11  C   LIG    1        2.119   0.677  -0.015  0.00  0.00    +0.210 A 
ATOM     12  C   LIG    1        1.307   1.759  -0.001  0.00  0.00    -0.080 A 
ATOM     13  C   LIG    1       -0.016   1.304   0.009  0.00  0.00    +0.270 A 
ATOM     14  N   LIG    1        0.002  -0.004   0.002  0.00  0.00    -0.280 NA
ENDBRANCH   7  10
ENDBRANCH   4   5
ENDBRANCH   1   4
BRANCH   1  15
ATOM     15  C   LIG    1        6.937  -3.554  -1.823  0.00  0.00    +0.160 C 
BRANCH  15  16
ATOM     16  O   LIG    1        7.964  -4.374  -1.260  0.00  0.00    -0.370 OA
BRANCH  16  17
ATOM     17  C   LIG    1        9.190  -4.356  -1.994  0.00  0.00    +0.280 C 
BRANCH  17  18
ATOM     18  C   LIG    1       10.195  -5.250  -1.315  0.00  0.00    -0.210 A 
ATOM     19  C   LIG    1       10.362  -6.549  -1.566  0.00  0.00    +0.040 A 
ATOM     20  C   LIG    1       11.350  -7.165  -0.816  0.00  0.00    +0.010 A 
ATOM     21  C   LIG    1       11.984  -6.367   0.043  0.00  0.00    -0.030 A 
ATOM     22  S   LIG    1       11.333  -4.737  -0.075  0.00  0.00    +0.120 S 
ENDBRANCH  17  18
ENDBRANCH  16  17
ENDBRANCH  15  16
ENDBRANCH   1  15
TORSDOF 8
