REMARK  Name = ZINCqH0000000gL8.0
REMARK                            x       y       z     vdW  Elec       q    Type
REMARK                         _______ _______ _______ _____ _____    ______ ____
ROOT
ATOM      1  C   LIG    1        5.772   2.549   0.592  0.00  0.00    +0.240 A 
ATOM      2  N   LIG    1        4.724   1.792   0.671  0.00  0.00    -0.490 NA
ATOM      3  C   LIG    1        3.666   2.150  -0.038  0.00  0.00    +0.180 A 
ATOM      4  C   LIG    1        3.850   3.308  -0.756  0.00  0.00    -0.220 A 
ATOM      5  S   LIG    1        5.488   3.877  -0.445  0.00  0.00    +0.280 S 
ENDROOT
BRANCH   4   6
ATOM      6  C   LIG    1        2.860   3.954  -1.627  0.00  0.00    +0.280 A 
ATOM      7  N   LIG    1        1.603   3.585  -1.774  0.00  0.00    -0.450 NA
ATOM      8  C   LIG    1        1.002   4.405  -2.644  0.00  0.00    +0.160 A 
ATOM      9  C   LIG    1        1.902   5.314  -3.068  0.00  0.00    +0.140 A 
ATOM     10  N   LIG    1        3.085   5.037  -2.430  0.00  0.00    -0.460 N 
ATOM     11  C   LIG    1        4.348   5.765  -2.580  0.00  0.00    +0.340 C 
ENDBRANCH   4   6
BRANCH   3  12
ATOM     12  C   LIG    1        2.401   1.380  -0.051  0.00  0.00    -0.030 A 
ATOM     13  C   LIG    1        1.855   0.910   1.144  0.00  0.00    +0.040 A 
ATOM     14  C   LIG    1        0.676   0.193   1.125  0.00  0.00    -0.020 A 
ATOM     15  C   LIG    1        0.035  -0.058  -0.075  0.00  0.00    +0.010 A 
ATOM     16  C   LIG    1        0.571   0.406  -1.263  0.00  0.00    -0.010 A 
ATOM     17  C   LIG    1        1.750   1.123  -1.258  0.00  0.00    +0.090 A 
ENDBRANCH   3  12
BRANCH   1  19
ATOM     18  C   LIG    1        7.996   3.169   1.120  0.00  0.00    +0.510 C 
ATOM     19  N   LIG    1        6.963   2.316   1.264  0.00  0.00    -0.620 N 
ATOM     20  H   LIG    1        7.052   1.539   1.839  0.00  0.00    +0.430 HD
ATOM     21  O   LIG    1        7.885   4.140   0.402  0.00  0.00    -0.480 OA
BRANCH  18  22
ATOM     22  C   LIG    1        9.290   2.916   1.850  0.00  0.00    +0.180 C 
ATOM     23  C   LIG    1        9.030   2.902   3.358  0.00  0.00    +0.060 C 
BRANCH  22  24
ATOM     24  O   LIG    1       10.224   3.951   1.537  0.00  0.00    -0.350 OA
BRANCH  24  25
ATOM     25  C   LIG    1       11.590   3.531   1.572  0.00  0.00    +0.210 C 
BRANCH  25  27
ATOM     26  C   LIG    1       13.556   4.931   1.941  0.00  0.00    +0.040 C 
ATOM     27  C   LIG    1       12.482   4.696   1.228  0.00  0.00    -0.040 C 
ENDBRANCH  25  27
ENDBRANCH  24  25
ENDBRANCH  22  24
ENDBRANCH  18  22
ENDBRANCH   1  19
TORSDOF 7
