REMARK  Name = ZINCqH00000098sT.0
REMARK                            x       y       z     vdW  Elec       q    Type
REMARK                         _______ _______ _______ _____ _____    ______ ____
ROOT
ATOM      1  N   LIG    1       -0.621   2.009   1.256  0.00  0.00    -0.730 N 
ATOM      2  H   LIG    1       -1.574   2.185   1.297  0.00  0.00    +0.400 HD
ATOM      3  C   LIG    1        0.149   2.208   2.344  0.00  0.00    +0.520 C 
ATOM      4  O   LIG    1        1.340   1.988   2.292  0.00  0.00    -0.530 OA
ENDROOT
BRANCH   1   6
ATOM      5  C   LIG    1        0.021  -0.004   0.022  0.00  0.00    +0.040 C 
ATOM      6  C   LIG    1       -0.019   1.526   0.010  0.00  0.00    +0.300 C 
BRANCH   6   7
ATOM      7  C   LIG    1       -0.841   1.998  -1.161  0.00  0.00    -0.140 A 
ATOM      8  C   LIG    1       -2.190   2.248  -1.002  0.00  0.00    +0.080 A 
ATOM      9  C   LIG    1       -2.944   2.686  -2.075  0.00  0.00    -0.010 A 
ATOM     10  C   LIG    1       -2.350   2.864  -3.313  0.00  0.00    +0.130 A 
ATOM     11  C   LIG    1       -0.999   2.607  -3.475  0.00  0.00    -0.040 A 
ATOM     12  F   LIG    1       -3.088   3.287  -4.362  0.00  0.00    -0.130 F 
ATOM     13  C   LIG    1       -0.244   2.175  -2.399  0.00  0.00    +0.140 A 
ATOM     14  F   LIG    1        1.074   1.925  -2.555  0.00  0.00    -0.120 F 
ENDBRANCH   6   7
ENDBRANCH   1   6
BRANCH   3  15
ATOM     15  C   LIG    1       -0.471   2.704   3.624  0.00  0.00    +0.050 C 
BRANCH  15  16
ATOM     16  C   LIG    1        0.613   2.844   4.695  0.00  0.00    +0.080 C 
BRANCH  16  17
ATOM     17  C   LIG    1       -0.016   3.349   5.995  0.00  0.00    +0.010 C 
ATOM     18  C   LIG    1        1.084   3.614   7.023  0.00  0.00    +0.110 C 
ATOM     19  C   LIG    1        1.649   2.304   7.510  0.00  0.00    -0.120 A 
ATOM     20  C   LIG    1        2.982   2.217   7.863  0.00  0.00    +0.050 A 
ATOM     21  C   LIG    1        3.493   1.027   8.349  0.00  0.00    -0.010 A 
ATOM     22  C   LIG    1        2.671  -0.077   8.485  0.00  0.00    +0.040 A 
ATOM     23  C   LIG    1        1.340   0.003   8.127  0.00  0.00    -0.020 A 
ATOM     24  C   LIG    1        0.828   1.191   7.622  0.00  0.00    +0.160 A 
ATOM     25  N   LIG    1       -0.517   1.272   7.250  0.00  0.00    -0.660 N 
ATOM     26  H   LIG    1       -1.131   0.570   7.517  0.00  0.00    +0.410 HD
ATOM     27  C   LIG    1       -0.969   2.310   6.526  0.00  0.00    +0.530 C 
ATOM     28  O   LIG    1       -2.156   2.412   6.297  0.00  0.00    -0.520 OA
ENDBRANCH  16  17
ENDBRANCH  15  16
ENDBRANCH   3  15
TORSDOF 5
