REMARK  Name = ZINCb80000004SDD.0
REMARK                            x       y       z     vdW  Elec       q    Type
REMARK                         _______ _______ _______ _____ _____    ______ ____
ROOT
ATOM      1  C   LIG    1       -0.016   1.302   0.009  0.00  0.00    +0.490 A 
ATOM      2  N   LIG    1        0.002  -0.004   0.002  0.00  0.00    -0.560 NA
ATOM      3  C   LIG    1        1.270  -0.449  -0.013  0.00  0.00    +0.430 A 
ATOM      4  N   LIG    1        2.099   0.648  -0.015  0.00  0.00    -0.290 NA
ATOM      5  N   LIG    1        1.653  -1.718  -0.023  0.00  0.00    -0.560 N 
ATOM      6  H   LIG    1        0.990  -2.425  -0.020  0.00  0.00    +0.430 HD
ATOM      7  N   LIG    1        1.253   1.770  -0.000  0.00  0.00    -0.490 N 
ATOM      8  H   LIG    1        1.526   2.700   0.002  0.00  0.00    +0.440 HD
ENDROOT
BRANCH   5   9
ATOM      9  C   LIG    1        2.959  -2.024  -0.037  0.00  0.00    +0.340 C 
ATOM     10  N   LIG    1        3.919  -1.153  -0.041  0.00  0.00    -0.520 NA
ATOM     11  C   LIG    1        5.242  -1.787  -0.053  0.00  0.00    +0.210 C 
ATOM     12  C   LIG    1        4.986  -3.252  -0.478  0.00  0.00    +0.020 C 
ATOM     13  C   LIG    1        3.510  -3.433  -0.044  0.00  0.00    +0.070 C 
ENDBRANCH   5   9
TORSDOF 1
