REMARK  Name = ZINCrH000004tcVF.0
REMARK                            x       y       z     vdW  Elec       q    Type
REMARK                         _______ _______ _______ _____ _____    ______ ____
ROOT
ATOM      1  C   LIG    1       -1.263   2.132   0.020  0.00  0.00    +0.110 C 
ATOM      2  C   LIG    1       -1.275   3.009   1.275  0.00  0.00    +0.030 C 
ATOM      3  C   LIG    1       -2.514   3.908   1.248  0.00  0.00    +0.050 C 
ATOM      4  C   LIG    1       -2.500   4.750  -0.030  0.00  0.00    +0.210 C 
ATOM      5  N   LIG    1       -2.489   3.865  -1.201  0.00  0.00    -0.450 N 
ATOM      6  C   LIG    1       -1.284   3.026  -1.222  0.00  0.00    +0.240 C 
ENDROOT
BRANCH   5   7
ATOM      7  C   LIG    1       -2.607   4.592  -2.373  0.00  0.00    +0.500 A 
ATOM      8  N   LIG    1       -1.681   4.460  -3.312  0.00  0.00    -0.550 NA
ATOM      9  C   LIG    1       -1.758   5.137  -4.446  0.00  0.00    +0.360 A 
ATOM     10  C   LIG    1       -2.825   5.995  -4.650  0.00  0.00    -0.060 A 
ATOM     11  C   LIG    1       -3.786   6.113  -3.643  0.00  0.00    +0.240 A 
ATOM     12  N   LIG    1       -3.646   5.397  -2.531  0.00  0.00    -0.520 NA
BRANCH  11  13
ATOM     13  C   LIG    1       -4.948   7.020  -3.814  0.00  0.00    +0.100 A 
ATOM     14  C   LIG    1       -5.902   7.132  -2.804  0.00  0.00    +0.280 A 
ATOM     15  N   LIG    1       -6.935   7.940  -2.961  0.00  0.00    -0.440 NA
ATOM     16  C   LIG    1       -7.064   8.642  -4.074  0.00  0.00    +0.250 A 
ATOM     17  C   LIG    1       -6.117   8.533  -5.080  0.00  0.00    +0.240 A 
ATOM     18  N   LIG    1       -5.080   7.732  -4.929  0.00  0.00    -0.420 NA
ENDBRANCH  11  13
ENDBRANCH   5   7
BRANCH   1  22
ATOM     19  C   LIG    1        1.183  -0.589  -0.012  0.00  0.00    -0.020 A 
ATOM     20  C   LIG    1        2.219   0.255  -0.018  0.00  0.00    -0.020 A 
ATOM     21  S   LIG    1        1.581   1.897  -0.003  0.00  0.00    +0.200 S 
ATOM     22  C   LIG    1       -0.015   1.286   0.009  0.00  0.00    +0.060 A 
ATOM     23  N   LIG    1        0.002  -0.004   0.002  0.00  0.00    -0.440 NA
BRANCH  19  25
ATOM     24  F   LIG    1        1.391  -2.542  -1.345  0.00  0.00    -0.170 F 
ATOM     25  C   LIG    1        1.351  -2.086  -0.022  0.00  0.00    +0.550 C 
ATOM     26  F   LIG    1        0.274  -2.681   0.644  0.00  0.00    -0.160 F 
ATOM     27  F   LIG    1        2.544  -2.426   0.624  0.00  0.00    -0.170 F 
ENDBRANCH  19  25
ENDBRANCH   1  22
TORSDOF 4
