REMARK  Name = ZINCrg00000SjSHI.0
REMARK                            x       y       z     vdW  Elec       q    Type
REMARK                         _______ _______ _______ _____ _____    ______ ____
ROOT
ATOM      1  C   LIG    1       -0.775   1.603   1.248  0.00  0.00    +0.010 C 
ATOM      2  C   LIG    1       -1.476   2.861   0.685  0.00  0.00    +0.080 C 
ATOM      3  C   LIG    1       -1.586   2.591  -0.799  0.00  0.00    +0.520 C 
ATOM      4  N   LIG    1       -0.759   1.590  -1.151  0.00  0.00    -0.570 N 
ATOM      5  O   LIG    1       -2.314   3.191  -1.562  0.00  0.00    -0.520 OA
ATOM      6  C   LIG    1       -0.013   1.086   0.008  0.00  0.00    +0.350 C 
ENDROOT
BRANCH   6   7
ATOM      7  C   LIG    1        1.394   1.626  -0.003  0.00  0.00    -0.260 A 
ATOM      8  C   LIG    1        2.462   1.078   0.623  0.00  0.00    +0.100 A 
ATOM      9  N   LIG    1        3.532   1.860   0.370  0.00  0.00    -0.370 N 
ATOM     10  N   LIG    1        3.109   2.923  -0.438  0.00  0.00    -0.290 NA
ATOM     11  C   LIG    1        4.897   1.636   0.854  0.00  0.00    +0.360 C 
ATOM     12  C   LIG    1        2.456  -0.180   1.453  0.00  0.00    +0.150 C 
ATOM     13  C   LIG    1        1.828   2.778  -0.665  0.00  0.00    +0.250 A 
ENDBRANCH   6   7
BRANCH   1  16
ATOM     14  N   LIG    1       -2.552   0.856   2.797  0.00  0.00    -0.730 N 
ATOM     15  H   LIG    1       -2.455   1.700   3.266  0.00  0.00    +0.410 HD
ATOM     16  C   LIG    1       -1.784   0.590   1.723  0.00  0.00    +0.530 C 
ATOM     17  O   LIG    1       -1.905  -0.465   1.137  0.00  0.00    -0.520 OA
BRANCH  14  18
ATOM     18  C   LIG    1       -3.534  -0.129   3.259  0.00  0.00    +0.450 C 
BRANCH  18  22
ATOM     19  C   LIG    1       -4.810   0.888   6.490  0.00  0.00    +0.180 A 
ATOM     20  N   LIG    1       -5.683   1.401   5.670  0.00  0.00    -0.280 NA
ATOM     21  N   LIG    1       -5.348   1.119   4.460  0.00  0.00    -0.260 NA
ATOM     22  C   LIG    1       -4.256   0.409   4.467  0.00  0.00    +0.130 A 
ATOM     23  O   LIG    1       -3.888   0.249   5.750  0.00  0.00    -0.220 OA
BRANCH  19  25
ATOM     24  C   LIG    1       -5.618  -0.184   8.575  0.00  0.00    +0.060 C 
ATOM     25  C   LIG    1       -4.831   0.992   7.993  0.00  0.00    +0.190 C 
ENDBRANCH  19  25
ENDBRANCH  18  22
ENDBRANCH  14  18
ENDBRANCH   1  16
BRANCH   4  26
ATOM     26  C   LIG    1       -0.621   1.069  -2.513  0.00  0.00    +0.220 C 
ATOM     27  C   LIG    1       -1.319   1.837  -3.637  0.00  0.00    +0.040 C 
ATOM     28  C   LIG    1       -1.871   0.486  -3.176  0.00  0.00    +0.000 C 
ENDBRANCH   4  26
TORSDOF 6
