REMARK  Name = ZINCqH00000075H5.0
REMARK                            x       y       z     vdW  Elec       q    Type
REMARK                         _______ _______ _______ _____ _____    ______ ____
ROOT
ATOM      1  N   LIG    1        2.297   3.358  -0.007  0.00  0.00    -0.300 N 
ATOM      2  N   LIG    1        3.671   3.097   0.128  0.00  0.00    -0.050 NA
ATOM      3  N   LIG    1        3.817   1.818   0.061  0.00  0.00    -0.030 NA
ATOM      4  N   LIG    1        2.679   1.245  -0.098  0.00  0.00    -0.330 NA
ATOM      5  C   LIG    1        1.715   2.139  -0.143  0.00  0.00    +0.210 A 
ENDROOT
BRANCH   1  12
ATOM      6  C   LIG    1        2.166   5.652  -0.775  0.00  0.00    +0.150 A 
ATOM      7  C   LIG    1        1.532   6.884  -0.768  0.00  0.00    -0.050 A 
ATOM      8  C   LIG    1        0.408   7.080   0.013  0.00  0.00    +0.080 A 
ATOM      9  C   LIG    1       -0.089   6.046   0.786  0.00  0.00    -0.100 A 
ATOM     10  C   LIG    1        0.534   4.813   0.781  0.00  0.00    +0.070 A 
ATOM     11  C   LIG    1       -1.314   6.266   1.635  0.00  0.00    +0.110 C 
ATOM     12  C   LIG    1        1.662   4.609  -0.001  0.00  0.00    +0.080 A 
BRANCH   6  14
ATOM     13  C   LIG    1        3.733   6.574  -2.307  0.00  0.00    +0.250 C 
ATOM     14  O   LIG    1        3.273   5.460  -1.539  0.00  0.00    -0.300 OA
ENDBRANCH   6  14
ENDBRANCH   1  12
BRANCH   5  15
ATOM     15  S   LIG    1       -0.005   1.817  -0.348  0.00  0.00    +0.060 S 
BRANCH  15  16
ATOM     16  C   LIG    1        0.026   0.010  -0.461  0.00  0.00    +0.170 C 
BRANCH  16  17
ATOM     17  C   LIG    1       -1.378  -0.505  -0.645  0.00  0.00    -0.050 A 
ATOM     18  C   LIG    1       -1.893  -0.664  -1.918  0.00  0.00    +0.080 A 
ATOM     19  C   LIG    1       -3.184  -1.138  -2.089  0.00  0.00    +0.050 A 
ATOM     20  C   LIG    1       -3.960  -1.454  -0.977  0.00  0.00    +0.050 A 
ATOM     21  O   LIG    1       -5.179  -1.895  -1.406  0.00  0.00    -0.300 OA
ATOM     22  C   LIG    1       -5.285  -1.460  -2.774  0.00  0.00    +0.440 C 
ATOM     23  C   LIG    1       -3.438  -1.292   0.296  0.00  0.00    +0.080 A 
ATOM     24  O   LIG    1       -3.916  -1.382  -3.216  0.00  0.00    -0.300 OA
ATOM     25  C   LIG    1       -2.147  -0.824   0.460  0.00  0.00    -0.070 A 
ATOM     26 BR   LIG    1       -1.433  -0.612   2.199  0.00  0.00    -0.010 Br
ENDBRANCH  16  17
ENDBRANCH  15  16
ENDBRANCH   5  15
TORSDOF 5
