REMARK  Name = ZINCpk00000eahkB.0
REMARK                            x       y       z     vdW  Elec       q    Type
REMARK                         _______ _______ _______ _____ _____    ______ ____
ROOT
ATOM      1  N   LIG    1        3.570   7.196  -2.892  0.00  0.00    -0.740 N 
ATOM      2  H   LIG    1        3.367   6.601  -3.631  0.00  0.00    +0.400 HD
ATOM      3  C   LIG    1        3.442   6.763  -1.622  0.00  0.00    +0.710 C 
ATOM      4  N   LIG    1        3.033   5.502  -1.379  0.00  0.00    -0.740 N 
ATOM      5  H   LIG    1        2.829   4.907  -2.118  0.00  0.00    +0.400 HD
ATOM      6  O   LIG    1        3.697   7.509  -0.697  0.00  0.00    -0.580 OA
ENDROOT
BRANCH   1   7
ATOM      7  C   LIG    1        4.015   8.567  -3.156  0.00  0.00    +0.340 C 
BRANCH   7  10
ATOM      8  C   LIG    1        5.295   8.743  -6.704  0.00  0.00    -0.130 A 
ATOM      9  C   LIG    1        5.241   8.536  -5.339  0.00  0.00    +0.100 A 
ATOM     10  C   LIG    1        4.074   8.797  -4.645  0.00  0.00    -0.120 A 
ATOM     11  C   LIG    1        2.963   9.275  -5.314  0.00  0.00    +0.070 A 
ATOM     12  C   LIG    1        3.016   9.488  -6.678  0.00  0.00    -0.010 A 
ATOM     13  C   LIG    1        4.182   9.222  -7.375  0.00  0.00    +0.110 A 
ATOM     14  F   LIG    1        4.235   9.428  -8.709  0.00  0.00    -0.140 F 
BRANCH   8  15
ATOM     15  C   LIG    1        6.565   8.453  -7.461  0.00  0.00    +0.240 C 
BRANCH  15  17
ATOM     16  C   LIG    1        8.811   7.666  -7.174  0.00  0.00    +0.200 C 
ATOM     17  O   LIG    1        7.561   7.973  -6.555  0.00  0.00    -0.390 OA
ENDBRANCH  15  17
ENDBRANCH   8  15
ENDBRANCH   7  10
ENDBRANCH   1   7
BRANCH   4  18
ATOM     18  C   LIG    1        2.894   5.030   0.001  0.00  0.00    +0.450 C 
BRANCH  18  19
ATOM     19  C   LIG    1        2.425   3.598  -0.002  0.00  0.00    +0.180 A 
ATOM     20  N   LIG    1        3.190   2.535  -0.015  0.00  0.00    -0.230 NA
ATOM     21  N   LIG    1        2.469   1.468  -0.013  0.00  0.00    -0.250 NA
ATOM     22  C   LIG    1        1.190   1.806   0.000  0.00  0.00    +0.140 A 
ATOM     23  C   LIG    1       -0.013   1.076   0.008  0.00  0.00    +0.170 A 
ATOM     24  C   LIG    1       -1.195   1.751   0.017  0.00  0.00    +0.010 A 
ATOM     25  C   LIG    1       -1.207   3.152   0.030  0.00  0.00    +0.360 A 
ATOM     26  N   LIG    1       -0.092   3.834   0.023  0.00  0.00    -0.250 NA
ATOM     27  N   LIG    1        1.141   3.180   0.008  0.00  0.00    -0.290 N 
ENDBRANCH  18  19
ENDBRANCH   4  18
TORSDOF 6
