REMARK  Name = ZINCrg000009J2XJ.0
REMARK                            x       y       z     vdW  Elec       q    Type
REMARK                         _______ _______ _______ _____ _____    ______ ____
ROOT
ATOM      1  C   LIG    1        2.063   9.837   5.335  0.00  0.00    +0.080 C 
ATOM      2  C   LIG    1        1.848  10.418   3.961  0.00  0.00    +0.510 C 
ATOM      3  N   LIG    1        1.212   9.697   3.016  0.00  0.00    -0.610 N 
ATOM      4  C   LIG    1        0.995  10.249   1.672  0.00  0.00    +0.290 C 
ATOM      5  C   LIG    1        1.547   9.262   0.639  0.00  0.00    +0.050 C 
ATOM      6  C   LIG    1        0.916   7.887   0.863  0.00  0.00    +0.110 C 
ATOM      7  C   LIG    1        1.446   6.907  -0.182  0.00  0.00    +0.270 C 
ATOM      8  N   LIG    1        0.689   5.650  -0.076  0.00  0.00    -0.600 N 
ATOM      9  C   LIG    1       -0.780   5.727  -0.064  0.00  0.00    +0.270 C 
ATOM     10  C   LIG    1       -1.202   6.763   0.984  0.00  0.00    +0.210 C 
ATOM     11  C   LIG    1        1.323   4.464   0.013  0.00  0.00    +0.610 C 
ATOM     12  O   LIG    1        2.533   4.428   0.123  0.00  0.00    -0.530 OA
ATOM     13  C   LIG    1        1.276   7.378   2.260  0.00  0.00    +0.000 C 
ATOM     14  O   LIG    1       -0.504   7.988   0.742  0.00  0.00    -0.360 OA
ATOM     15  C   LIG    1        0.721   8.344   3.312  0.00  0.00    +0.270 C 
ATOM     16  O   LIG    1        2.248  11.534   3.705  0.00  0.00    -0.550 OA
ENDROOT
BRANCH  11  17
ATOM     17  C   LIG    1        0.547   3.207  -0.022  0.00  0.00    -0.010 A 
ATOM     18  N   LIG    1       -0.744   3.089  -0.263  0.00  0.00    -0.260 NA
ATOM     19  N   LIG    1       -1.088   1.852  -0.222  0.00  0.00    -0.280 N 
ATOM     20  C   LIG    1       -0.019   1.079   0.064  0.00  0.00    +0.170 A 
ATOM     21  C   LIG    1        1.047   1.902   0.196  0.00  0.00    -0.020 A 
BRANCH  19  22
ATOM     22  C   LIG    1       -2.447   1.353  -0.450  0.00  0.00    +0.260 C 
ATOM     23  C   LIG    1       -2.704   0.139   0.448  0.00  0.00    +0.010 C 
ATOM     24  C   LIG    1       -4.095  -0.423   0.147  0.00  0.00    +0.240 C 
ATOM     25  O   LIG    1       -4.180  -0.766  -1.238  0.00  0.00    -0.380 OA
ATOM     26  C   LIG    1       -3.994   0.338  -2.125  0.00  0.00    +0.230 C 
ATOM     27  C   LIG    1       -2.599   0.931  -1.915  0.00  0.00    -0.000 C 
ENDBRANCH  19  22
ENDBRANCH  11  17
TORSDOF 2
