REMARK  Name = ZINCrD0000073XUK.0
REMARK                            x       y       z     vdW  Elec       q    Type
REMARK                         _______ _______ _______ _____ _____    ______ ____
ROOT
ATOM      1  C   LIG    1       -4.365   0.380  -2.247  0.00  0.00    +0.090 C 
ATOM      2  C   LIG    1       -5.141   1.391  -1.401  0.00  0.00    +0.000 C 
ENDROOT
BRANCH   2   3
ATOM      3  C   LIG    1       -4.196   2.084  -0.454  0.00  0.00    +0.540 C 
ATOM      4  N   LIG    1       -3.498   3.161  -0.867  0.00  0.00    -0.710 N 
ATOM      5  H   LIG    1       -3.604   3.489  -1.774  0.00  0.00    +0.410 HD
ATOM      6  O   LIG    1       -4.064   1.674   0.679  0.00  0.00    -0.510 OA
BRANCH   4   7
ATOM      7  C   LIG    1       -2.579   3.835   0.053  0.00  0.00    +0.290 C 
ATOM      8  C   LIG    1       -2.404   5.293  -0.379  0.00  0.00    +0.010 C 
ATOM      9  C   LIG    1       -1.229   5.890   0.406  0.00  0.00    +0.260 C 
ATOM     10  O   LIG    1       -0.036   5.204   0.022  0.00  0.00    -0.320 OA
ATOM     11  C   LIG    1       -0.057   3.846   0.021  0.00  0.00    +0.140 A 
ATOM     12  C   LIG    1        1.155   3.163   0.006  0.00  0.00    -0.020 A 
ATOM     13  C   LIG    1        1.175   1.783   0.000  0.00  0.00    +0.050 A 
ATOM     14  C   LIG    1       -0.013   1.076   0.008  0.00  0.00    -0.040 A 
ATOM     15  C   LIG    1       -1.218   1.750   0.017  0.00  0.00    +0.060 A 
ATOM     16  C   LIG    1       -1.244   3.135   0.031  0.00  0.00    -0.180 A 
ENDBRANCH   4   7
ENDBRANCH   2   3
BRANCH   2  17
ATOM     17  S   LIG    1       -6.423   0.527  -0.452  0.00  0.00    +0.100 S 
BRANCH  17  18
ATOM     18  C   LIG    1       -7.499  -0.086  -1.705  0.00  0.00    +0.190 A 
ATOM     19  N   LIG    1       -8.587  -0.793  -1.500  0.00  0.00    -0.280 NA
ATOM     20  N   LIG    1       -9.137  -1.065  -2.763  0.00  0.00    -0.320 N 
ATOM     21  C   LIG    1       -8.317  -0.497  -3.667  0.00  0.00    +0.500 A 
ATOM     22  N   LIG    1       -7.339   0.087  -3.021  0.00  0.00    -0.530 NA
BRANCH  20  23
ATOM     23  C   LIG    1      -10.306  -1.791  -3.030  0.00  0.00    +0.140 A 
ATOM     24  C   LIG    1      -10.724  -1.978  -4.340  0.00  0.00    +0.000 A 
ATOM     25  C   LIG    1      -11.874  -2.698  -4.600  0.00  0.00    +0.050 A 
ATOM     26  C   LIG    1      -12.613  -3.223  -3.557  0.00  0.00    +0.010 A 
ATOM     27  C   LIG    1      -12.202  -3.034  -2.250  0.00  0.00    +0.040 A 
ATOM     28  C   LIG    1      -11.050  -2.320  -1.984  0.00  0.00    +0.030 A 
ENDBRANCH  20  23
ENDBRANCH  17  18
ENDBRANCH   2  17
TORSDOF 5
