REMARK  Name = ZINCnE00000hbKKR.1
REMARK                            x       y       z     vdW  Elec       q    Type
REMARK                         _______ _______ _______ _____ _____    ______ ____
ROOT
ATOM      1  N   LIG    1       -2.275   0.116  -0.620  0.00  0.00    -0.520 NA
ATOM      2  C   LIG    1       -2.378   1.386   0.111  0.00  0.00    +0.190 C 
ENDROOT
BRANCH   1   3
ATOM      3  C   LIG    1       -1.321  -0.791   0.032  0.00  0.00    +0.180 C 
ATOM      4  C   LIG    1       -0.030  -0.033   0.348  0.00  0.00    +0.040 C 
BRANCH   3  10
ATOM      5  C   LIG    1       -0.621  -3.167  -0.363  0.00  0.00    +0.120 A 
ATOM      6  C   LIG    1       -0.339  -4.226  -1.213  0.00  0.00    -0.090 A 
ATOM      7  C   LIG    1       -0.451  -4.061  -2.581  0.00  0.00    +0.030 A 
ATOM      8  C   LIG    1       -0.844  -2.842  -3.102  0.00  0.00    -0.040 A 
ATOM      9  C   LIG    1       -1.125  -1.785  -2.256  0.00  0.00    +0.100 A 
ATOM     10  C   LIG    1       -1.014  -1.944  -0.889  0.00  0.00    -0.100 A 
BRANCH   5  12
ATOM     11  C   LIG    1       -0.101  -4.611   1.452  0.00  0.00    +0.230 C 
ATOM     12  O   LIG    1       -0.511  -3.325   0.982  0.00  0.00    -0.320 OA
ENDBRANCH   5  12
ENDBRANCH   3  10
ENDBRANCH   1   3
BRANCH   1  13
ATOM     13  C   LIG    1       -3.592  -0.519  -0.762  0.00  0.00    +0.210 C 
BRANCH  13  14
ATOM     14  C   LIG    1       -4.468   0.333  -1.645  0.00  0.00    +0.460 C 
ATOM     15  N   LIG    1       -5.730  -0.054  -1.917  0.00  0.00    -0.670 NA
ATOM     16  O   LIG    1       -4.037   1.367  -2.110  0.00  0.00    -0.590 OA
BRANCH  15  17
ATOM     17  C   LIG    1       -6.537   0.732  -2.732  0.00  0.00    +0.350 A 
ATOM     18  N   LIG    1       -7.761   0.452  -3.055  0.00  0.00    -0.570 NA
ATOM     19  C   LIG    1       -8.382   1.312  -3.840  0.00  0.00    +0.100 A 
ATOM     20  C   LIG    1       -7.649   2.369  -4.197  0.00  0.00    -0.350 A 
ATOM     21  C   LIG    1       -8.101   3.502  -5.081  0.00  0.00    +0.100 C 
ATOM     22  C   LIG    1       -9.805   1.117  -4.296  0.00  0.00    +0.110 C 
ATOM     23  S   LIG    1       -6.063   2.211  -3.446  0.00  0.00    +0.030 S 
ENDBRANCH  15  17
ENDBRANCH  13  14
ENDBRANCH   1  13
TORSDOF 6
