REMARK  Name = ZINC9l0000002lhQ.0
REMARK                            x       y       z     vdW  Elec       q    Type
REMARK                         _______ _______ _______ _____ _____    ______ ____
ROOT
ATOM      1  C   LIG    1       -1.620   2.894  -1.150  0.00  0.00    -0.120 C 
ATOM      2  C   LIG    1       -2.365   1.562  -1.039  0.00  0.00    -0.000 C 
ATOM      3  C   LIG    1       -2.408   4.171  -0.848  0.00  0.00    +0.050 C 
ATOM      4  C   LIG    1       -1.330   1.951   0.019  0.00  0.00    -0.110 C 
ENDROOT
BRANCH   4   5
ATOM      5  C   LIG    1       -0.015   1.215   0.009  0.00  0.00    +0.520 C 
ATOM      6  O   LIG    1        1.033   1.839   0.002  0.00  0.00    -0.690 OA
ATOM      7  O   LIG    1        0.002  -0.004   0.002  0.00  0.00    -0.700 OA
ENDBRANCH   4   5
BRANCH   1   9
ATOM      8  C   LIG    1       -1.030   4.002  -3.310  0.00  0.00    +0.000 C 
ATOM      9  C   LIG    1       -0.553   3.019  -2.239  0.00  0.00    +0.060 C 
ENDBRANCH   1   9
TORSDOF 2
