REMARK  Name = ZINCrH000004uCoQ.1
REMARK                            x       y       z     vdW  Elec       q    Type
REMARK                         _______ _______ _______ _____ _____    ______ ____
ROOT
ATOM      1  O   LIG    1       -5.369   3.457   3.026  0.00  0.00    -0.520 OA
ATOM      2  C   LIG    1       -4.397   3.877   3.624  0.00  0.00    +0.590 C 
ATOM      3  N   LIG    1       -3.192   3.896   3.022  0.00  0.00    -0.730 N 
ATOM      4  H   LIG    1       -2.416   4.231   3.498  0.00  0.00    +0.400 HD
ENDROOT
BRANCH   2   5
ATOM      5  C   LIG    1       -4.537   4.366   5.006  0.00  0.00    -0.270 A 
ATOM      6  C   LIG    1       -3.535   4.870   5.810  0.00  0.00    +0.300 A 
ATOM      7  N   LIG    1       -4.080   5.201   6.990  0.00  0.00    -0.450 N 
ATOM      8  H   LIG    1       -3.598   5.580   7.741  0.00  0.00    +0.450 HD
ATOM      9  N   LIG    1       -5.449   4.917   6.974  0.00  0.00    -0.260 NA
ATOM     10  C   LIG    1       -5.771   4.419   5.799  0.00  0.00    +0.200 A 
BRANCH  10  11
ATOM     11  C   LIG    1       -7.115   3.992   5.364  0.00  0.00    +0.050 A 
ATOM     12  C   LIG    1       -8.062   3.413   6.149  0.00  0.00    -0.010 A 
ATOM     13  C   LIG    1       -9.182   3.175   5.327  0.00  0.00    -0.070 A 
ATOM     14  C   LIG    1       -8.866   3.615   4.093  0.00  0.00    +0.190 A 
ATOM     15  O   LIG    1       -7.619   4.112   4.120  0.00  0.00    -0.140 OA
ENDBRANCH  10  11
ENDBRANCH   2   5
BRANCH   3  16
ATOM     16  C   LIG    1       -3.052   3.410   1.647  0.00  0.00    +0.330 C 
BRANCH  16  17
ATOM     17  C   LIG    1       -1.615   3.538   1.212  0.00  0.00    -0.140 A 
ATOM     18  C   LIG    1       -0.734   2.494   1.425  0.00  0.00    +0.070 A 
ATOM     19  C   LIG    1        0.582   2.606   1.023  0.00  0.00    -0.030 A 
ATOM     20  C   LIG    1        1.022   3.771   0.408  0.00  0.00    +0.180 A 
ATOM     21  C   LIG    1        0.136   4.820   0.200  0.00  0.00    -0.030 A 
ATOM     22  C   LIG    1       -1.179   4.702   0.605  0.00  0.00    +0.070 A 
BRANCH  20  23
ATOM     23  N   LIG    1        2.354   3.888   0.001  0.00  0.00    -0.680 N 
ATOM     24  H   LIG    1        3.051   3.412   0.478  0.00  0.00    +0.410 HD
BRANCH  23  25
ATOM     25  C   LIG    1        2.680   4.689  -1.091  0.00  0.00    +0.220 A 
ATOM     26  C   LIG    1        1.781   4.865  -2.143  0.00  0.00    -0.080 A 
ATOM     27  C   LIG    1        2.140   5.669  -3.204  0.00  0.00    +0.290 A 
ATOM     28  N   LIG    1        3.321   6.259  -3.236  0.00  0.00    -0.510 NA
ATOM     29  C   LIG    1        4.200   6.114  -2.263  0.00  0.00    +0.290 A 
ATOM     30  C   LIG    1        3.916   5.330  -1.164  0.00  0.00    -0.080 A 
ENDBRANCH  23  25
ENDBRANCH  20  23
ENDBRANCH  16  17
ENDBRANCH   3  16
TORSDOF 6
