REMARK  Name = ZINCrH000004r74S.0
REMARK                            x       y       z     vdW  Elec       q    Type
REMARK                         _______ _______ _______ _____ _____    ______ ____
ROOT
ATOM      1  S   LIG    1       -5.821   3.919  -1.517  0.00  0.00    +0.130 S 
ENDROOT
BRANCH   1   6
ATOM      2  N   LIG    1       -8.584   4.283  -1.365  0.00  0.00    -0.310 N 
ATOM      3  N   LIG    1       -9.553   4.218  -0.348  0.00  0.00    -0.070 NA
ATOM      4  N   LIG    1       -8.932   3.921   0.741  0.00  0.00    -0.030 NA
ATOM      5  N   LIG    1       -7.675   3.787   0.518  0.00  0.00    -0.330 NA
ATOM      6  C   LIG    1       -7.408   3.994  -0.754  0.00  0.00    +0.200 A 
BRANCH   2  12
ATOM      7  C   LIG    1       -7.306   6.809  -5.387  0.00  0.00    +0.100 C 
ATOM      8  C   LIG    1       -8.185   5.801  -4.693  0.00  0.00    -0.070 A 
ATOM      9  C   LIG    1       -9.195   5.168  -5.393  0.00  0.00    +0.050 A 
ATOM     10  C   LIG    1      -10.004   4.242  -4.759  0.00  0.00    +0.040 A 
ATOM     11  C   LIG    1       -9.804   3.946  -3.425  0.00  0.00    -0.060 A 
ATOM     12  C   LIG    1       -8.790   4.580  -2.720  0.00  0.00    +0.110 A 
ATOM     13  C   LIG    1      -10.686   2.938  -2.735  0.00  0.00    +0.100 C 
ATOM     14  C   LIG    1       -7.983   5.513  -3.357  0.00  0.00    +0.040 A 
ENDBRANCH   2  12
ENDBRANCH   1   6
BRANCH   1  15
ATOM     15  C   LIG    1       -4.802   3.499  -0.082  0.00  0.00    +0.100 C 
BRANCH  15  16
ATOM     16  C   LIG    1       -3.361   3.379  -0.507  0.00  0.00    +0.550 C 
ATOM     17  N   LIG    1       -2.414   3.071   0.401  0.00  0.00    -0.610 N 
ATOM     18  C   LIG    1       -2.646   2.825   1.836  0.00  0.00    +0.260 C 
ATOM     19  C   LIG    1       -1.285   3.133   2.519  0.00  0.00    +0.040 C 
ATOM     20  C   LIG    1       -0.284   2.594   1.463  0.00  0.00    +0.040 C 
ATOM     21  C   LIG    1       -0.977   2.923   0.124  0.00  0.00    +0.310 C 
ATOM     22  O   LIG    1       -3.054   3.560  -1.667  0.00  0.00    -0.510 OA
BRANCH  21  23
ATOM     23  C   LIG    1       -0.754   1.801  -0.858  0.00  0.00    -0.180 A 
ATOM     24  C   LIG    1        0.155   1.803  -1.834  0.00  0.00    +0.020 A 
ATOM     25  C   LIG    1        0.176   0.659  -2.613  0.00  0.00    +0.010 A 
ATOM     26  C   LIG    1       -0.715  -0.272  -2.269  0.00  0.00    -0.050 A 
ATOM     27  S   LIG    1       -1.647   0.286  -0.886  0.00  0.00    +0.100 S 
ENDBRANCH  21  23
ENDBRANCH  15  16
ENDBRANCH   1  15
TORSDOF 5
