REMARK  Name = ZINCvU0000000Cnb.0
REMARK                            x       y       z     vdW  Elec       q    Type
REMARK                         _______ _______ _______ _____ _____    ______ ____
ROOT
ATOM      1  O   LIG    1       -2.778   4.627  -3.721  0.00  0.00    -0.480 OA
ATOM      2  C   LIG    1       -3.053   5.643  -4.324  0.00  0.00    +0.520 C 
ATOM      3  N   LIG    1       -4.160   5.692  -5.091  0.00  0.00    -0.660 N 
ATOM      4  H   LIG    1       -4.379   6.505  -5.573  0.00  0.00    +0.410 HD
ENDROOT
BRANCH   3   5
ATOM      5  C   LIG    1       -4.989   4.576  -5.192  0.00  0.00    +0.300 A 
ATOM      6  C   LIG    1       -4.803   3.378  -4.573  0.00  0.00    -0.110 A 
ATOM      7  C   LIG    1       -5.859   2.539  -4.939  0.00  0.00    +0.240 A 
ATOM      8  N   LIG    1       -6.650   3.201  -5.745  0.00  0.00    -0.280 NA
ATOM      9  N   LIG    1       -6.128   4.489  -5.917  0.00  0.00    -0.380 N 
BRANCH   9  10
ATOM     10  C   LIG    1       -6.710   5.553  -6.739  0.00  0.00    +0.310 C 
ATOM     11  C   LIG    1       -6.769   5.090  -8.193  0.00  0.00    +0.030 C 
ATOM     12  C   LIG    1       -7.574   6.119  -8.996  0.00  0.00    +0.030 C 
ATOM     13  C   LIG    1       -9.037   6.024  -8.569  0.00  0.00    +0.070 C 
ATOM     14  C   LIG    1       -9.158   6.097  -7.070  0.00  0.00    -0.060 A 
ATOM     15  C   LIG    1      -10.403   6.397  -6.535  0.00  0.00    +0.000 A 
ATOM     16  C   LIG    1      -10.580   6.473  -5.168  0.00  0.00    +0.010 A 
ATOM     17  C   LIG    1       -9.509   6.247  -4.324  0.00  0.00    +0.000 A 
ATOM     18  C   LIG    1       -8.270   5.950  -4.854  0.00  0.00    +0.020 A 
ATOM     19  C   LIG    1       -8.089   5.876  -6.229  0.00  0.00    -0.100 A 
ENDBRANCH   9  10
ENDBRANCH   3   5
BRANCH   2  20
ATOM     20  C   LIG    1       -2.156   6.849  -4.215  0.00  0.00    +0.180 C 
BRANCH  20  21
ATOM     21  C   LIG    1       -0.998   6.534  -3.304  0.00  0.00    +0.080 A 
ATOM     22  C   LIG    1        0.277   6.681  -3.678  0.00  0.00    -0.080 A 
ATOM     23  S   LIG    1        1.298   6.205  -2.323  0.00  0.00    +0.130 S 
ATOM     24  C   LIG    1       -0.091   5.856  -1.389  0.00  0.00    +0.060 A 
ATOM     25  N   LIG    1       -1.159   6.086  -2.075  0.00  0.00    -0.440 NA
BRANCH  24  26
ATOM     26  C   LIG    1       -0.070   5.347   0.030  0.00  0.00    +0.200 C 
BRANCH  26  27
ATOM     27  C   LIG    1       -0.050   3.840   0.022  0.00  0.00    -0.090 A 
ATOM     28  C   LIG    1        1.156   3.165   0.008  0.00  0.00    +0.010 A 
ATOM     29  C   LIG    1        1.175   1.783   0.000  0.00  0.00    +0.000 A 
ATOM     30  C   LIG    1       -0.013   1.076   0.008  0.00  0.00    +0.000 A 
ATOM     31  C   LIG    1       -1.219   1.751   0.017  0.00  0.00    +0.000 A 
ATOM     32  C   LIG    1       -1.238   3.133   0.030  0.00  0.00    +0.030 A 
ENDBRANCH  26  27
ENDBRANCH  24  26
ENDBRANCH  20  21
ENDBRANCH   2  20
TORSDOF 6
