REMARK  Name = ZINCrD0000074rbo.0
REMARK                            x       y       z     vdW  Elec       q    Type
REMARK                         _______ _______ _______ _____ _____    ______ ____
ROOT
ATOM      1  C   LIG    1       -3.361   7.993   0.950  0.00  0.00    +0.150 A 
ATOM      2  N   LIG    1       -2.192   8.501   0.635  0.00  0.00    -0.280 NA
ATOM      3  N   LIG    1       -2.145   9.737   0.983  0.00  0.00    -0.280 NA
ATOM      4  C   LIG    1       -3.268  10.087   1.543  0.00  0.00    +0.190 A 
ATOM      5  N   LIG    1       -4.083   8.989   1.543  0.00  0.00    -0.430 N 
ENDROOT
BRANCH   5   6
ATOM      6  C   LIG    1       -5.447   8.900   2.069  0.00  0.00    +0.190 C 
ATOM      7  C   LIG    1       -6.016   7.503   2.324  0.00  0.00    +0.070 C 
ATOM      8  C   LIG    1       -6.526   8.333   1.143  0.00  0.00    +0.060 C 
ENDBRANCH   5   6
BRANCH   1   9
ATOM      9  S   LIG    1       -3.895   6.338   0.668  0.00  0.00    +0.060 S 
BRANCH   9  10
ATOM     10  C   LIG    1       -2.419   5.663  -0.133  0.00  0.00    -0.020 C 
ATOM     11  C   LIG    1       -2.201   6.366  -1.475  0.00  0.00    +0.090 C 
BRANCH  10  12
ATOM     12  C   LIG    1       -2.604   4.186  -0.364  0.00  0.00    +0.420 C 
ATOM     13  O   LIG    1       -3.720   3.722  -0.460  0.00  0.00    -0.430 OA
BRANCH  12  18
ATOM     14  C   LIG    1        1.984   0.749  -0.794  0.00  0.00    +0.100 C 
ATOM     15  C   LIG    1        0.782   1.650  -0.681  0.00  0.00    -0.040 A 
ATOM     16  C   LIG    1       -0.490   1.106  -0.709  0.00  0.00    +0.000 A 
ATOM     17  C   LIG    1       -1.596   1.924  -0.612  0.00  0.00    -0.020 A 
ATOM     18  C   LIG    1       -1.429   3.306  -0.474  0.00  0.00    -0.170 A 
ATOM     19  C   LIG    1       -0.140   3.848  -0.447  0.00  0.00    +0.070 A 
ATOM     20  C   LIG    1       -2.981   1.331  -0.648  0.00  0.00    +0.110 C 
ATOM     21  C   LIG    1        0.956   3.017  -0.550  0.00  0.00    -0.110 A 
ATOM     22  C   LIG    1        2.345   3.598  -0.521  0.00  0.00    +0.090 C 
ENDBRANCH  12  18
ENDBRANCH  10  12
ENDBRANCH   9  10
ENDBRANCH   1   9
BRANCH   4  23
ATOM     23  C   LIG    1       -3.606  11.450   2.091  0.00  0.00    +0.180 C 
BRANCH  23  24
ATOM     24  C   LIG    1       -3.198  11.523   3.564  0.00  0.00    +0.060 C 
BRANCH  24  25
ATOM     25  C   LIG    1       -3.536  12.886   4.112  0.00  0.00    +0.520 C 
ATOM     26  O   LIG    1       -4.052  13.717   3.394  0.00  0.00    -0.540 OA
ATOM     27  N   LIG    1       -3.265  13.181   5.398  0.00  0.00    -0.860 N 
ATOM     28  H   LIG    1       -3.482  14.058   5.751  0.00  0.00    +0.400 HD
ATOM     29  H   LIG    1       -2.853  12.517   5.972  0.00  0.00    +0.400 HD
ENDBRANCH  24  25
ENDBRANCH  23  24
ENDBRANCH   4  23
TORSDOF 8
