REMARK  Name = ZINCkj00000vCtYK.0
REMARK                            x       y       z     vdW  Elec       q    Type
REMARK                         _______ _______ _______ _____ _____    ______ ____
ROOT
ATOM      1  C   LIG    1        3.457   5.919   0.499  0.00  0.00    +0.180 A 
ATOM      2  N   LIG    1        4.685   5.539   0.311  0.00  0.00    -0.330 NA
ATOM      3  O   LIG    1        5.445   6.253   0.932  0.00  0.00    +0.100 OA
ATOM      4  C   LIG    1        4.751   7.178   1.603  0.00  0.00    +0.120 A 
ATOM      5  N   LIG    1        3.484   6.973   1.333  0.00  0.00    -0.440 NA
ENDROOT
BRANCH   4   6
ATOM      6  C   LIG    1        5.316   8.250   2.497  0.00  0.00    +0.230 C 
ATOM      7  C   LIG    1        4.923   7.986   3.965  0.00  0.00    +0.080 C 
ATOM      8  C   LIG    1        6.265   7.801   4.711  0.00  0.00    +0.290 C 
ATOM      9  N   LIG    1        7.260   8.521   3.874  0.00  0.00    -0.510 N 
ATOM     10  H   LIG    1        7.210   9.515   4.040  0.00  0.00    +0.440 HD
ATOM     11  H   LIG    1        8.191   8.178   4.060  0.00  0.00    +0.440 HD
ATOM     12  C   LIG    1        6.859   8.206   2.479  0.00  0.00    +0.330 C 
BRANCH   6  13
ATOM     13  O   LIG    1        4.852   9.537   2.083  0.00  0.00    -0.520 OA
ATOM     14  H   LIG    1        3.890   9.631   2.097  0.00  0.00    +0.420 HD
ENDBRANCH   6  13
ENDBRANCH   4   6
BRANCH   1  16
ATOM     15  C   LIG    1        2.118   5.688  -1.575  0.00  0.00    +0.070 C 
ATOM     16  C   LIG    1        2.227   5.289  -0.102  0.00  0.00    +0.280 C 
BRANCH  16  17
ATOM     17  O   LIG    1        2.322   3.866   0.000  0.00  0.00    -0.300 OA
BRANCH  17  18
ATOM     18  C   LIG    1        1.155   3.169   0.006  0.00  0.00    +0.120 A 
ATOM     19  C   LIG    1       -0.049   3.827  -0.199  0.00  0.00    -0.080 A 
ATOM     20  C   LIG    1       -1.233   3.116  -0.193  0.00  0.00    +0.050 A 
ATOM     21  C   LIG    1       -1.220   1.751   0.024  0.00  0.00    -0.020 A 
ATOM     22  C   LIG    1       -0.021   1.092   0.223  0.00  0.00    +0.050 A 
ATOM     23  C   LIG    1        1.166   1.798   0.217  0.00  0.00    -0.020 A 
ENDBRANCH  17  18
ENDBRANCH  16  17
ENDBRANCH   1  16
TORSDOF 5
