REMARK  Name = ZINCrD00000l1tik.0
REMARK                            x       y       z     vdW  Elec       q    Type
REMARK                         _______ _______ _______ _____ _____    ______ ____
ROOT
ATOM      1  N   LIG    1        2.408   1.133   0.093  0.00  0.00    -0.690 N 
ATOM      2  H   LIG    1        3.237   1.631   0.015  0.00  0.00    +0.420 HD
ENDROOT
BRANCH   1   6
ATOM      3  C   LIG    1       -1.233   3.135  -0.023  0.00  0.00    -0.180 A 
ATOM      4  C   LIG    1       -1.200   1.762   0.241  0.00  0.00    +0.190 A 
ATOM      5  C   LIG    1        0.007   1.103   0.285  0.00  0.00    -0.060 A 
ATOM      6  C   LIG    1        1.190   1.801   0.054  0.00  0.00    +0.310 A 
ATOM      7  C   LIG    1        1.154   3.167  -0.215  0.00  0.00    -0.120 A 
ATOM      8  C   LIG    1       -0.040   3.828  -0.254  0.00  0.00    +0.210 A 
BRANCH   7   9
ATOM      9  N   LIG    1        2.414   3.904  -0.459  0.00  0.00    +0.030 N 
ATOM     10  O   LIG    1        3.318   3.375  -1.081  0.00  0.00    -0.160 OA
ATOM     11  O   LIG    1        2.547   5.039  -0.039  0.00  0.00    -0.140 OA
ENDBRANCH   7   9
BRANCH   3  12
ATOM     12  C   LIG    1       -2.522   3.849  -0.065  0.00  0.00    +0.520 C 
ATOM     13  O   LIG    1       -2.549   5.040  -0.300  0.00  0.00    -0.500 OA
BRANCH  12  15
ATOM     14  C   LIG    1       -4.902   3.946   0.102  0.00  0.00    +0.290 C 
ATOM     15  O   LIG    1       -3.670   3.179   0.158  0.00  0.00    -0.360 OA
ENDBRANCH  12  15
ENDBRANCH   3  12
ENDBRANCH   1   6
BRANCH   1  16
ATOM     16  C   LIG    1        2.441  -0.323   0.251  0.00  0.00    +0.390 C 
BRANCH  16  17
ATOM     17  C   LIG    1        2.289  -0.979  -1.097  0.00  0.00    +0.180 A 
ATOM     18  N   LIG    1        2.912  -0.627  -2.188  0.00  0.00    -0.460 NA
ATOM     19  C   LIG    1        2.532  -1.431  -3.193  0.00  0.00    +0.150 A 
ATOM     20  C   LIG    1        1.639  -2.313  -2.705  0.00  0.00    +0.130 A 
ATOM     21  N   LIG    1        1.489  -2.030  -1.375  0.00  0.00    -0.450 N 
ATOM     22  C   LIG    1        0.620  -2.735  -0.429  0.00  0.00    +0.320 C 
ENDBRANCH  16  17
BRANCH  16  23
ATOM     23  C   LIG    1        3.756  -0.732   0.863  0.00  0.00    -0.100 A 
ATOM     24  C   LIG    1        4.926  -0.114   0.463  0.00  0.00    +0.040 A 
ATOM     25  C   LIG    1        6.132  -0.486   1.028  0.00  0.00    +0.020 A 
ATOM     26  C   LIG    1        6.169  -1.482   1.986  0.00  0.00    +0.020 A 
ATOM     27  C   LIG    1        4.999  -2.104   2.382  0.00  0.00    +0.010 A 
ATOM     28  C   LIG    1        3.793  -1.728   1.821  0.00  0.00    +0.020 A 
ENDBRANCH  16  23
ENDBRANCH   1  16
TORSDOF 7
