REMARK  Name = ZINCrD0000075822.0
REMARK                            x       y       z     vdW  Elec       q    Type
REMARK                         _______ _______ _______ _____ _____    ______ ____
ROOT
ATOM      1  C   LIG    1        2.852   6.047   2.533  0.00  0.00    +0.040 C 
ENDROOT
BRANCH   1   2
ATOM      2  C   LIG    1        1.617   5.444   3.205  0.00  0.00    +0.230 C 
BRANCH   2   3
ATOM      3  O   LIG    1        1.640   4.000   3.053  0.00  0.00    -0.340 OA
BRANCH   3   4
ATOM      4  C   LIG    1        0.615   3.312   3.593  0.00  0.00    +0.560 C 
ATOM      5  O   LIG    1       -0.274   3.902   4.175  0.00  0.00    -0.480 OA
BRANCH   4  11
ATOM      6  C   LIG    1        1.879   1.079   5.674  0.00  0.00    +0.180 C 
ATOM      7  C   LIG    1        1.127   0.835   4.392  0.00  0.00    +0.060 A 
ATOM      8  N   LIG    1        0.830  -0.312   3.857  0.00  0.00    -0.350 NA
ATOM      9  O   LIG    1        0.215  -0.193   2.827  0.00  0.00    +0.110 OA
ATOM     10  C   LIG    1        0.000   1.080   2.488  0.00  0.00    +0.050 A 
ATOM     11  C   LIG    1        0.571   1.845   3.477  0.00  0.00    -0.240 A 
BRANCH  10  12
ATOM     12  C   LIG    1       -0.729   1.579   1.267  0.00  0.00    +0.080 C 
ATOM     13  C   LIG    1       -2.164   1.050   1.278  0.00  0.00    +0.060 C 
ATOM     14  C   LIG    1       -0.013   1.086   0.008  0.00  0.00    +0.060 C 
ENDBRANCH  10  12
ENDBRANCH   4  11
ENDBRANCH   3   4
ENDBRANCH   2   3
ENDBRANCH   1   2
BRANCH   1  15
ATOM     15  C   LIG    1        2.829   7.569   2.694  0.00  0.00    +0.020 C 
BRANCH  15  16
ATOM     16  C   LIG    1        4.064   8.172   2.022  0.00  0.00    +0.310 C 
BRANCH  16  17
ATOM     17  N   LIG    1        4.041   9.629   2.176  0.00  0.00    -0.580 N 
ATOM     18  C   LIG    1        3.471  10.478   1.302  0.00  0.00    +0.570 C 
ATOM     19  C   LIG    1        3.650  11.857   1.801  0.00  0.00    -0.140 A 
ATOM     20  C   LIG    1        3.282  13.110   1.336  0.00  0.00    +0.100 A 
ATOM     21  C   LIG    1        3.621  14.240   2.065  0.00  0.00    +0.050 A 
ATOM     22  C   LIG    1        4.322  14.125   3.250  0.00  0.00    +0.050 A 
ATOM     23  C   LIG    1        4.697  12.879   3.727  0.00  0.00    +0.100 A 
ATOM     24  C   LIG    1        4.365  11.741   3.010  0.00  0.00    -0.140 A 
ATOM     25  O   LIG    1        2.903  10.163   0.276  0.00  0.00    -0.460 OA
ATOM     26  C   LIG    1        4.592  10.293   3.207  0.00  0.00    +0.570 C 
ATOM     27  O   LIG    1        5.178   9.789   4.144  0.00  0.00    -0.460 OA
ENDBRANCH  16  17
ENDBRANCH  15  16
ENDBRANCH   1  15
TORSDOF 8
