REMARK  Name = ZINCqH0000005pTS.0
REMARK                            x       y       z     vdW  Elec       q    Type
REMARK                         _______ _______ _______ _____ _____    ______ ____
ROOT
ATOM      1  C   LIG    1        0.046  -2.617  -4.912  0.00  0.00    +0.280 A 
ATOM      2  N   LIG    1        0.380  -2.078  -6.043  0.00  0.00    -0.480 NA
ATOM      3  C   LIG    1        0.335  -2.861  -7.120  0.00  0.00    +0.150 A 
ATOM      4  C   LIG    1       -0.067  -4.128  -6.893  0.00  0.00    -0.080 A 
ATOM      5  S   LIG    1       -0.397  -4.302  -5.171  0.00  0.00    +0.240 S 
ENDROOT
BRANCH   3   6
ATOM      6  C   LIG    1        0.693  -2.374  -8.468  0.00  0.00    +0.100 A 
ATOM      7  C   LIG    1        1.103  -1.115  -8.758  0.00  0.00    +0.020 A 
ATOM      8  C   LIG    1        1.345  -1.089 -10.203  0.00  0.00    -0.120 A 
ATOM      9  C   LIG    1        1.772  -0.110 -11.100  0.00  0.00    +0.080 A 
ATOM     10  C   LIG    1        1.899  -0.420 -12.437  0.00  0.00    -0.050 A 
ATOM     11  C   LIG    1        1.604  -1.699 -12.889  0.00  0.00    +0.070 A 
ATOM     12  C   LIG    1        1.180  -2.675 -12.012  0.00  0.00    +0.050 A 
ATOM     13 CL   LIG    1        2.431   0.793 -13.559  0.00  0.00    -0.060 Cl
ATOM     14  C   LIG    1        1.045  -2.385 -10.661  0.00  0.00    +0.060 A 
ATOM     15  O   LIG    1        0.667  -3.117  -9.592  0.00  0.00    -0.180 OA
ENDBRANCH   3   6
BRANCH   1  17
ATOM     16  C   LIG    1       -0.337  -2.629  -2.574  0.00  0.00    +0.590 C 
ATOM     17  N   LIG    1        0.035  -1.966  -3.687  0.00  0.00    -0.600 N 
ATOM     18  H   LIG    1        0.294  -1.033  -3.632  0.00  0.00    +0.440 HD
ATOM     19  O   LIG    1       -0.663  -3.799  -2.644  0.00  0.00    -0.480 OA
BRANCH  16  23
ATOM     20  C   LIG    1       -0.018   1.461   0.010  0.00  0.00    +0.350 C 
ATOM     21  N   LIG    1        0.002  -0.004   0.002  0.00  0.00    -0.450 N 
ATOM     22  N   LIG    1       -0.006  -0.693  -1.215  0.00  0.00    -0.190 NA
ATOM     23  C   LIG    1       -0.349  -1.940  -1.280  0.00  0.00    +0.080 C 
ATOM     24  C   LIG    1       -0.766  -2.691  -0.043  0.00  0.00    +0.130 C 
ATOM     25  C   LIG    1        0.036  -2.188   1.158  0.00  0.00    +0.100 C 
ATOM     26  C   LIG    1        0.022  -0.680   1.168  0.00  0.00    +0.500 C 
ATOM     27  O   LIG    1        0.030  -0.078   2.220  0.00  0.00    -0.500 OA
ENDBRANCH  16  23
ENDBRANCH   1  17
TORSDOF 3
