REMARK  Name = ZINCrD00000l1CaD.0
REMARK                            x       y       z     vdW  Elec       q    Type
REMARK                         _______ _______ _______ _____ _____    ______ ____
ROOT
ATOM      1  C   LIG    1       -1.296   1.008   2.209  0.00  0.00    +0.610 C 
ATOM      2  N   LIG    1       -0.304   1.456   1.414  0.00  0.00    -0.630 N 
ATOM      3  C   LIG    1        0.520   2.710   1.485  0.00  0.00    +0.230 C 
ATOM      4  C   LIG    1        1.963   2.120   1.467  0.00  0.00    +0.020 C 
ATOM      5  C   LIG    1        1.824   0.858   0.581  0.00  0.00    +0.020 C 
ATOM      6  C   LIG    1        0.310   3.310   0.062  0.00  0.00    +0.040 C 
ATOM      7  C   LIG    1        0.168   2.018  -0.845  0.00  0.00    +0.240 C 
ATOM      8  C   LIG    1        0.317   0.857   0.185  0.00  0.00    +0.250 C 
ATOM      9  O   LIG    1       -1.865  -0.034   1.943  0.00  0.00    -0.530 OA
ENDROOT
BRANCH   1  15
ATOM     10  C   LIG    1       -2.609  -0.180   4.957  0.00  0.00    +0.130 C 
ATOM     11  C   LIG    1       -2.282   1.257   4.642  0.00  0.00    -0.130 A 
ATOM     12  C   LIG    1       -2.469   2.321   5.438  0.00  0.00    +0.170 A 
ATOM     13  O   LIG    1       -2.058   3.427   4.797  0.00  0.00    -0.170 OA
ATOM     14  C   LIG    1       -1.591   3.128   3.581  0.00  0.00    +0.220 A 
ATOM     15  C   LIG    1       -1.691   1.779   3.401  0.00  0.00    -0.220 A 
ENDBRANCH   1  15
BRANCH   7  16
ATOM     16  N   LIG    1        1.242   1.967  -1.839  0.00  0.00    -0.720 N 
ATOM     17  H   LIG    1        2.028   2.527  -1.733  0.00  0.00    +0.400 HD
ATOM     18  C   LIG    1        1.140   1.143  -2.900  0.00  0.00    +0.520 C 
ATOM     19  O   LIG    1        0.159   0.443  -3.032  0.00  0.00    -0.520 OA
BRANCH  18  20
ATOM     20  C   LIG    1        2.246   1.091  -3.923  0.00  0.00    +0.040 C 
ATOM     21  C   LIG    1        3.548   0.661  -3.245  0.00  0.00    +0.070 C 
BRANCH  20  22
ATOM     22  C   LIG    1        1.888   0.099  -4.999  0.00  0.00    -0.040 A 
ATOM     23  C   LIG    1        1.678  -1.228  -4.674  0.00  0.00    +0.030 A 
ATOM     24  C   LIG    1        1.345  -2.138  -5.659  0.00  0.00    +0.040 A 
ATOM     25  C   LIG    1        1.232  -1.725  -6.973  0.00  0.00    -0.010 A 
ATOM     26  C   LIG    1        1.448  -0.397  -7.301  0.00  0.00    +0.100 A 
ATOM     27  F   LIG    1        1.338   0.008  -8.585  0.00  0.00    -0.140 F 
ATOM     28  C   LIG    1        1.776   0.515  -6.313  0.00  0.00    -0.020 A 
ENDBRANCH  20  22
ENDBRANCH  18  20
ENDBRANCH   7  16
TORSDOF 4
