REMARK  Name = ZINCrD000000At2s.0
REMARK                            x       y       z     vdW  Elec       q    Type
REMARK                         _______ _______ _______ _____ _____    ______ ____
ROOT
ATOM      1  C   LIG    1        1.689   2.229  -0.002  0.00  0.00    -0.060 A 
ATOM      2  C   LIG    1        2.654   1.229  -0.017  0.00  0.00    -0.020 A 
ATOM      3  C   LIG    1        3.993   1.560  -0.027  0.00  0.00    +0.060 A 
ATOM      4  C   LIG    1        4.387   2.889  -0.024  0.00  0.00    -0.010 A 
ATOM      5  C   LIG    1        3.446   3.895  -0.009  0.00  0.00    +0.070 A 
ATOM      6  C   LIG    1        2.085   3.577  -0.004  0.00  0.00    -0.130 A 
ENDROOT
BRANCH   6   7
ATOM      7  C   LIG    1        1.073   4.648   0.004  0.00  0.00    +0.550 C 
ATOM      8  N   LIG    1        1.458   5.940   0.002  0.00  0.00    -0.720 N 
ATOM      9  H   LIG    1        2.402   6.164  -0.005  0.00  0.00    +0.400 HD
ATOM     10  O   LIG    1       -0.110   4.367   0.014  0.00  0.00    -0.510 OA
BRANCH   8  11
ATOM     11  C   LIG    1        0.452   7.004   0.011  0.00  0.00    +0.280 C 
BRANCH  11  12
ATOM     12  C   LIG    1        1.150   8.366   0.006  0.00  0.00    +0.140 C 
ATOM     13  C   LIG    1        0.100   9.493   0.015  0.00  0.00    +0.010 C 
ATOM     14  C   LIG    1        0.424  10.304   1.293  0.00  0.00    +0.000 C 
ATOM     15  C   LIG    1        1.898   9.907   1.564  0.00  0.00    +0.200 C 
ATOM     16  O   LIG    1        1.944   8.512   1.195  0.00  0.00    -0.370 OA
ENDBRANCH  11  12
ENDBRANCH   8  11
ENDBRANCH   6   7
BRANCH   1  17
ATOM     17  S   LIG    1       -0.022   1.810   0.012  0.00  0.00    +0.090 S 
BRANCH  17  18
ATOM     18  C   LIG    1        0.002  -0.004   0.002  0.00  0.00    +0.010 C 
BRANCH  18  20
ATOM     19  O   LIG    1       -2.344   0.250   0.026  0.00  0.00    -0.520 OA
ATOM     20  C   LIG    1       -1.412  -0.526   0.013  0.00  0.00    +0.530 C 
ATOM     21  N   LIG    1       -1.640  -1.854   0.008  0.00  0.00    -0.730 N 
ATOM     22  H   LIG    1       -0.894  -2.474  -0.003  0.00  0.00    +0.400 HD
BRANCH  21  23
ATOM     23  C   LIG    1       -3.014  -2.361   0.018  0.00  0.00    +0.260 C 
BRANCH  23  24
ATOM     24  C   LIG    1       -2.994  -3.891   0.010  0.00  0.00    -0.020 C 
ATOM     25  C   LIG    1       -2.390  -4.386  -1.306  0.00  0.00    +0.010 C 
ATOM     26  C   LIG    1       -2.369  -5.915  -1.315  0.00  0.00    +0.000 C 
ATOM     27  C   LIG    1       -3.798  -6.446  -1.178  0.00  0.00    +0.000 C 
ATOM     28  C   LIG    1       -4.402  -5.951   0.138  0.00  0.00    +0.000 C 
ATOM     29  C   LIG    1       -4.422  -4.421   0.146  0.00  0.00    +0.030 C 
ENDBRANCH  23  24
ENDBRANCH  21  23
ENDBRANCH  18  20
ENDBRANCH  17  18
ENDBRANCH   1  17
TORSDOF 8
