REMARK  Name = ZINCqH0000004Hiq.0
REMARK                            x       y       z     vdW  Elec       q    Type
REMARK                         _______ _______ _______ _____ _____    ______ ____
ROOT
ATOM      1  N   LIG    1       -5.299   3.101   5.674  0.00  0.00    -0.630 N 
ATOM      2  H   LIG    1       -4.851   2.247   5.775  0.00  0.00    +0.420 HD
ATOM      3  C   LIG    1       -5.273   3.740   4.488  0.00  0.00    +0.550 C 
ATOM      4  O   LIG    1       -5.834   4.811   4.362  0.00  0.00    -0.460 OA
ENDROOT
BRANCH   1  10
ATOM      5  C   LIG    1       -8.307   5.753  10.352  0.00  0.00    -0.070 A 
ATOM      6  C   LIG    1       -8.471   6.649   9.306  0.00  0.00    +0.040 A 
ATOM      7  C   LIG    1       -7.927   6.392   8.073  0.00  0.00    +0.080 A 
ATOM      8  C   LIG    1       -7.191   5.209   7.850  0.00  0.00    +0.100 A 
ATOM      9  N   LIG    1       -6.584   4.794   6.721  0.00  0.00    -0.460 NA
ATOM     10  C   LIG    1       -5.965   3.664   6.749  0.00  0.00    +0.330 A 
ATOM     11  S   LIG    1       -6.080   2.944   8.349  0.00  0.00    +0.060 S 
ATOM     12  C   LIG    1       -7.033   4.314   8.913  0.00  0.00    -0.170 A 
ATOM     13  C   LIG    1       -7.592   4.592  10.157  0.00  0.00    +0.060 A 
BRANCH   5  15
ATOM     14  C   LIG    1       -7.906   6.829  12.550  0.00  0.00    +0.030 C 
ATOM     15  C   LIG    1       -8.912   6.049  11.700  0.00  0.00    +0.080 C 
ENDBRANCH   5  15
ENDBRANCH   1  10
BRANCH   3  16
ATOM     16  C   LIG    1       -4.562   3.138   3.341  0.00  0.00    -0.120 A 
ATOM     17  C   LIG    1       -4.533   3.797   2.110  0.00  0.00    +0.090 A 
ATOM     18  C   LIG    1       -3.867   3.231   1.043  0.00  0.00    +0.050 A 
ATOM     19  C   LIG    1       -3.229   2.011   1.190  0.00  0.00    -0.080 A 
ATOM     20  C   LIG    1       -3.259   1.350   2.406  0.00  0.00    +0.030 A 
ATOM     21  C   LIG    1       -3.916   1.909   3.482  0.00  0.00    +0.040 A 
BRANCH  19  22
ATOM     22  C   LIG    1       -2.505   1.398   0.020  0.00  0.00    +0.390 C 
BRANCH  22  23
ATOM     23  N   LIG    1       -1.111   1.850   0.017  0.00  0.00    -0.380 N 
ATOM     24  C   LIG    1       -0.013   1.076   0.008  0.00  0.00    +0.470 A 
ATOM     25  N   LIG    1        1.036   1.858   0.002  0.00  0.00    -0.540 NA
ATOM     26  C   LIG    1        0.648   3.133   0.013  0.00  0.00    +0.420 A 
ATOM     27  N   LIG    1       -0.658   3.180   0.025  0.00  0.00    -0.310 NA
ENDBRANCH  22  23
ENDBRANCH  19  22
ENDBRANCH   3  16
TORSDOF 5
