REMARK  Name = ZINCvU0000000Ayc.0
REMARK                            x       y       z     vdW  Elec       q    Type
REMARK                         _______ _______ _______ _____ _____    ______ ____
ROOT
ATOM      1  C   LIG    1        6.513  -4.424   1.354  0.00  0.00    +0.290 C 
ATOM      2  N   LIG    1        5.590  -3.426   0.809  0.00  0.00    -0.600 N 
ATOM      3  C   LIG    1        5.997  -2.151   0.644  0.00  0.00    +0.580 C 
ATOM      4  O   LIG    1        5.205  -1.303   0.282  0.00  0.00    -0.490 OA
ENDROOT
BRANCH   3   5
ATOM      5  C   LIG    1        7.404  -1.786   0.902  0.00  0.00    -0.080 A 
ATOM      6  C   LIG    1        8.429  -2.381   0.170  0.00  0.00    +0.050 A 
ATOM      7  C   LIG    1        9.743  -2.036   0.416  0.00  0.00    +0.040 A 
ATOM      8  C   LIG    1       10.052  -1.099   1.387  0.00  0.00    +0.040 A 
ATOM      9  C   LIG    1        9.050  -0.493   2.118  0.00  0.00    +0.030 A 
ATOM     10  C   LIG    1        7.718  -0.832   1.890  0.00  0.00    +0.000 A 
BRANCH  10  11
ATOM     11  C   LIG    1        6.642  -0.192   2.674  0.00  0.00    +0.140 A 
ATOM     12  N   LIG    1        5.379  -0.375   2.482  0.00  0.00    -0.420 NA
ATOM     13  C   LIG    1        4.520   0.276   3.273  0.00  0.00    +0.090 A 
ATOM     14  C   LIG    1        3.108   0.243   3.263  0.00  0.00    +0.070 A 
ATOM     15  C   LIG    1        2.392   0.984   4.152  0.00  0.00    +0.030 A 
ATOM     16  C   LIG    1        3.032   1.779   5.093  0.00  0.00    +0.040 A 
ATOM     17  C   LIG    1        4.407   1.832   5.128  0.00  0.00    +0.050 A 
ATOM     18  C   LIG    1        5.158   1.085   4.223  0.00  0.00    -0.170 A 
ATOM     19  S   LIG    1        6.899   0.930   4.004  0.00  0.00    +0.070 S 
ENDBRANCH  10  11
ENDBRANCH   3   5
BRANCH   2  20
ATOM     20  C   LIG    1        4.225  -3.813   0.445  0.00  0.00    +0.340 C 
BRANCH  20  21
ATOM     21  C   LIG    1        4.196  -4.256  -0.995  0.00  0.00    +0.490 C 
ATOM     22  N   LIG    1        3.038  -4.660  -1.553  0.00  0.00    -0.680 N 
ATOM     23  H   LIG    1        2.209  -4.592  -1.054  0.00  0.00    +0.410 HD
ATOM     24  O   LIG    1        5.216  -4.250  -1.652  0.00  0.00    -0.490 OA
BRANCH  22  25
ATOM     25  C   LIG    1        3.030  -5.178  -2.854  0.00  0.00    +0.160 A 
ATOM     26  C   LIG    1        3.667  -4.492  -3.881  0.00  0.00    -0.030 A 
ATOM     27  C   LIG    1        3.662  -5.009  -5.163  0.00  0.00    +0.050 A 
ATOM     28  C   LIG    1        3.015  -6.202  -5.426  0.00  0.00    +0.040 A 
ATOM     29  C   LIG    1        2.375  -6.885  -4.408  0.00  0.00    +0.050 A 
ATOM     30 CL   LIG    1        4.473  -2.990  -3.553  0.00  0.00    -0.020 Cl
ATOM     31  C   LIG    1        2.381  -6.377  -3.122  0.00  0.00    -0.050 A 
ATOM     32 CL   LIG    1        1.579  -7.236  -1.845  0.00  0.00    -0.050 Cl
ENDBRANCH  22  25
ENDBRANCH  20  21
ENDBRANCH   2  20
TORSDOF 5
