REMARK  Name = ZINCqH0000004OJW.0
REMARK                            x       y       z     vdW  Elec       q    Type
REMARK                         _______ _______ _______ _____ _____    ______ ____
ROOT
ATOM      1  N   LIG    1        1.151   1.889   0.003  0.00  0.00    -0.650 N 
ATOM      2  H   LIG    1        1.149   2.857  -0.065  0.00  0.00    +0.410 HD
ATOM      3  C   LIG    1       -0.014   1.212   0.009  0.00  0.00    +0.710 C 
ATOM      4  N   LIG    1       -1.183   1.882   0.022  0.00  0.00    -0.620 N 
ATOM      5  C   LIG    1       -1.206   3.349  -0.069  0.00  0.00    +0.270 C 
ATOM      6  C   LIG    1       -2.016   3.906   1.100  0.00  0.00    +0.040 C 
ATOM      7  C   LIG    1       -3.401   3.256   1.115  0.00  0.00    +0.090 C 
ATOM      8  C   LIG    1       -3.254   1.744   1.305  0.00  0.00    +0.040 C 
ATOM      9  C   LIG    1       -2.459   1.161   0.133  0.00  0.00    +0.300 C 
ATOM     10  O   LIG    1       -0.011  -0.004  -0.003  0.00  0.00    -0.580 OA
ENDROOT
BRANCH   7  11
ATOM     11  C   LIG    1       -4.213   3.827   2.249  0.00  0.00    +0.060 A 
ATOM     12  N   LIG    1       -3.893   3.755   3.493  0.00  0.00    -0.460 NA
ATOM     13  C   LIG    1       -4.709   4.312   4.376  0.00  0.00    +0.070 A 
ATOM     14  C   LIG    1       -5.792   4.879   3.812  0.00  0.00    -0.220 A 
ATOM     15  C   LIG    1       -6.898   5.582   4.562  0.00  0.00    +0.120 C 
ATOM     16  C   LIG    1       -6.801   5.202   6.044  0.00  0.00    +0.030 C 
ATOM     17  C   LIG    1       -5.356   5.390   6.514  0.00  0.00    +0.030 C 
ATOM     18  C   LIG    1       -4.469   4.317   5.878  0.00  0.00    +0.120 C 
ATOM     19  S   LIG    1       -5.695   4.660   2.070  0.00  0.00    +0.110 S 
ENDBRANCH   7  11
BRANCH   1  25
ATOM     20  C   LIG    1        3.651   1.764   0.094  0.00  0.00    +0.060 A 
ATOM     21  N   LIG    1        4.532   0.802   0.198  0.00  0.00    -0.280 NA
ATOM     22  N   LIG    1        3.848  -0.418   0.258  0.00  0.00    -0.380 N 
ATOM     23  C   LIG    1        2.517  -0.154   0.193  0.00  0.00    +0.250 A 
ATOM     24  C   LIG    1        4.459  -1.745   0.372  0.00  0.00    +0.360 C 
ATOM     25  C   LIG    1        2.371   1.192   0.095  0.00  0.00    +0.010 A 
BRANCH  20  27
ATOM     26  C   LIG    1        4.016   3.840   1.400  0.00  0.00    +0.020 C 
ATOM     27  C   LIG    1        3.959   3.236  -0.004  0.00  0.00    +0.120 C 
ENDBRANCH  20  27
ENDBRANCH   1  25
TORSDOF 3
