REMARK  Name = ZINCrg000000t6dG.0
REMARK                            x       y       z     vdW  Elec       q    Type
REMARK                         _______ _______ _______ _____ _____    ______ ____
ROOT
ATOM      1  C   LIG    1       -2.449   1.117   0.020  0.00  0.00    +0.300 C 
ENDROOT
BRANCH   1   3
ATOM      2  C   LIG    1       -0.014   1.209   0.009  0.00  0.00    +0.520 C 
ATOM      3  N   LIG    1       -1.191   1.867   0.018  0.00  0.00    -0.740 N 
ATOM      4  H   LIG    1       -1.204   2.837   0.023  0.00  0.00    +0.400 HD
ATOM      5  O   LIG    1        0.002  -0.004   0.002  0.00  0.00    -0.510 OA
BRANCH   2   6
ATOM      6  C   LIG    1        1.280   1.980   0.001  0.00  0.00    +0.140 C 
BRANCH   6  10
ATOM      7  C   LIG    1        4.520  -0.739  -0.018  0.00  0.00    +0.170 A 
ATOM      8  C   LIG    1        4.457   0.227  -1.019  0.00  0.00    -0.030 A 
ATOM      9  C   LIG    1        3.394   1.116  -1.010  0.00  0.00    +0.020 A 
ATOM     10  C   LIG    1        2.439   1.016  -0.016  0.00  0.00    +0.070 A 
ATOM     11  N   LIG    1        2.530   0.093   0.921  0.00  0.00    -0.420 NA
ATOM     12  C   LIG    1        3.521  -0.776   0.947  0.00  0.00    +0.180 A 
BRANCH   7  13
ATOM     13  N   LIG    1        5.571  -1.658   0.015  0.00  0.00    -0.870 N 
ATOM     14  H   LIG    1        5.608  -2.328   0.716  0.00  0.00    +0.400 HD
ATOM     15  H   LIG    1        6.265  -1.626  -0.662  0.00  0.00    +0.400 HD
ENDBRANCH   7  13
ENDBRANCH   6  10
ENDBRANCH   2   6
ENDBRANCH   1   3
BRANCH   1  16
ATOM     16  C   LIG    1       -3.626   2.095   0.031  0.00  0.00    +0.050 C 
BRANCH  16  17
ATOM     17  C   LIG    1       -4.920   1.324   0.033  0.00  0.00    +0.520 C 
ATOM     18  N   LIG    1       -6.096   1.982   0.042  0.00  0.00    -0.620 N 
ATOM     19  C   LIG    1       -6.139   3.452   0.056  0.00  0.00    +0.280 C 
ATOM     20  C   LIG    1       -7.069   3.918  -1.075  0.00  0.00    +0.190 C 
ATOM     21  N   LIG    1       -8.374   3.259  -0.933  0.00  0.00    -0.490 N 
ATOM     22  C   LIG    1       -8.253   1.802  -1.081  0.00  0.00    +0.190 C 
ATOM     23  C   LIG    1       -7.372   1.249   0.044  0.00  0.00    +0.300 C 
ATOM     24  O   LIG    1       -4.904   0.111   0.026  0.00  0.00    -0.530 OA
BRANCH  21  25
ATOM     25  C   LIG    1       -9.299   3.779  -1.841  0.00  0.00    +0.110 A 
ATOM     26  C   LIG    1       -9.956   2.934  -2.726  0.00  0.00    -0.040 A 
ATOM     27  C   LIG    1      -10.874   3.451  -3.619  0.00  0.00    +0.030 A 
ATOM     28  C   LIG    1      -11.132   4.810  -3.639  0.00  0.00    -0.020 A 
ATOM     29  C   LIG    1      -10.476   5.654  -2.762  0.00  0.00    +0.030 A 
ATOM     30  C   LIG    1       -9.560   5.143  -1.864  0.00  0.00    -0.020 A 
ENDBRANCH  21  25
ENDBRANCH  16  17
ENDBRANCH   1  16
TORSDOF 7
