REMARK  Name = ZINCtV00000L6jCg.0
REMARK                            x       y       z     vdW  Elec       q    Type
REMARK                         _______ _______ _______ _____ _____    ______ ____
ROOT
ATOM      1  C   LIG    1        1.889   3.826   0.891  0.00  0.00    -0.370 A 
ATOM      2  C   LIG    1        0.889   3.256   0.131  0.00  0.00    +0.270 A 
ATOM      3  N   LIG    1        0.224   4.125  -0.602  0.00  0.00    -0.530 NA
ATOM      4  C   LIG    1        0.586   5.370  -0.523  0.00  0.00    +0.330 A 
ATOM      5  S   LIG    1        1.891   5.557   0.563  0.00  0.00    +0.180 S 
ENDROOT
BRANCH   2   6
ATOM      6  C   LIG    1        0.588   1.805   0.143  0.00  0.00    -0.040 A 
ATOM      7  C   LIG    1        0.483   1.122   1.354  0.00  0.00    +0.080 A 
ATOM      8  C   LIG    1        0.202  -0.229   1.359  0.00  0.00    -0.010 A 
ATOM      9  C   LIG    1        0.024  -0.905   0.165  0.00  0.00    +0.020 A 
ATOM     10  C   LIG    1        0.127  -0.233  -1.040  0.00  0.00    +0.000 A 
ATOM     11  C   LIG    1        0.408   1.118  -1.057  0.00  0.00    +0.040 A 
ENDBRANCH   2   6
BRANCH   1  13
ATOM     12  O   LIG    1        2.746   1.925   1.824  0.00  0.00    -0.500 OA
ATOM     13  C   LIG    1        2.760   3.142   1.775  0.00  0.00    +0.600 C 
ATOM     14  N   LIG    1        3.604   3.838   2.562  0.00  0.00    -0.670 N 
ATOM     15  H   LIG    1        3.564   4.807   2.579  0.00  0.00    +0.410 HD
BRANCH  14  16
ATOM     16  C   LIG    1        4.540   3.163   3.353  0.00  0.00    +0.160 A 
ATOM     17  C   LIG    1        4.918   3.687   4.582  0.00  0.00    +0.030 A 
ATOM     18  C   LIG    1        5.838   3.017   5.365  0.00  0.00    +0.030 A 
ATOM     19  C   LIG    1        6.391   1.828   4.921  0.00  0.00    +0.090 A 
ATOM     20  C   LIG    1        6.019   1.305   3.692  0.00  0.00    -0.050 A 
ATOM     21 CL   LIG    1        6.714  -0.186   3.138  0.00  0.00    -0.040 Cl
ATOM     22  F   LIG    1        7.294   1.177   5.686  0.00  0.00    -0.130 F 
ATOM     23  C   LIG    1        5.096   1.970   2.909  0.00  0.00    +0.070 A 
ENDBRANCH  14  16
ENDBRANCH   1  13
BRANCH   4  24
ATOM     24  N   LIG    1       -0.005   6.402  -1.222  0.00  0.00    -0.620 N 
ATOM     25  H   LIG    1       -0.808   6.240  -1.741  0.00  0.00    +0.430 HD
BRANCH  24  26
ATOM     26  C   LIG    1        0.554   7.683  -1.182  0.00  0.00    +0.140 A 
ATOM     27  C   LIG    1       -0.269   8.801  -1.149  0.00  0.00    +0.000 A 
ATOM     28  C   LIG    1        0.286  10.065  -1.107  0.00  0.00    +0.040 A 
ATOM     29  C   LIG    1        1.661  10.218  -1.105  0.00  0.00    +0.000 A 
ATOM     30  C   LIG    1        2.483   9.107  -1.143  0.00  0.00    +0.050 A 
ATOM     31  C   LIG    1        1.934   7.840  -1.181  0.00  0.00    -0.030 A 
ENDBRANCH  24  26
ENDBRANCH   4  24
TORSDOF 5
