REMARK  Name = ZINCvU0000000Bgt.0
REMARK                            x       y       z     vdW  Elec       q    Type
REMARK                         _______ _______ _______ _____ _____    ______ ____
ROOT
ATOM      1  N   LIG    1       -6.092  -1.901   0.151  0.00  0.00    -0.460 N 
ATOM      2  C   LIG    1       -4.950  -2.616   0.106  0.00  0.00    +0.570 C 
ATOM      3  O   LIG    1       -4.995  -3.827   0.011  0.00  0.00    -0.440 OA
ENDROOT
BRANCH   1   4
ATOM      4  C   LIG    1       -7.315  -2.551   0.190  0.00  0.00    +0.340 A 
ATOM      5  N   LIG    1       -7.469  -3.830   0.187  0.00  0.00    -0.470 NA
ATOM      6  C   LIG    1       -8.725  -4.315   0.230  0.00  0.00    +0.110 A 
ATOM      7  C   LIG    1       -9.153  -5.659   0.237  0.00  0.00    +0.070 A 
ATOM      8  C   LIG    1      -10.491  -5.962   0.284  0.00  0.00    +0.040 A 
ATOM      9  C   LIG    1      -11.442  -4.954   0.325  0.00  0.00    +0.030 A 
ATOM     10  C   LIG    1      -11.048  -3.635   0.319  0.00  0.00    +0.060 A 
ATOM     11  C   LIG    1       -9.695  -3.308   0.271  0.00  0.00    -0.180 A 
ATOM     12  S   LIG    1       -8.877  -1.748   0.259  0.00  0.00    +0.080 S 
ENDBRANCH   1   4
BRANCH   1  18
ATOM     13  C   LIG    1       -5.798   0.184   1.347  0.00  0.00    +0.150 A 
ATOM     14  C   LIG    1       -5.749   1.568   1.348  0.00  0.00    -0.060 A 
ATOM     15  C   LIG    1       -5.943   2.268   0.171  0.00  0.00    +0.090 A 
ATOM     16  C   LIG    1       -6.187   1.590  -1.009  0.00  0.00    +0.000 A 
ATOM     17  C   LIG    1       -6.231   0.208  -1.019  0.00  0.00    +0.070 A 
ATOM     18  C   LIG    1       -6.043  -0.500   0.158  0.00  0.00    +0.050 A 
BRANCH  13  20
ATOM     19  C   LIG    1       -5.361   0.262   3.683  0.00  0.00    +0.250 C 
ATOM     20  O   LIG    1       -5.606  -0.506   2.503  0.00  0.00    -0.300 OA
ENDBRANCH  13  20
ENDBRANCH   1  18
BRANCH   2  21
ATOM     21  C   LIG    1       -3.647  -1.929   0.171  0.00  0.00    -0.160 A 
ATOM     22  C   LIG    1       -3.419  -0.784  -0.598  0.00  0.00    +0.150 A 
ATOM     23  C   LIG    1       -2.201  -0.145  -0.534  0.00  0.00    -0.060 A 
ATOM     24  C   LIG    1       -1.198  -0.638   0.293  0.00  0.00    +0.220 A 
ATOM     25  C   LIG    1       -1.419  -1.780   1.055  0.00  0.00    -0.090 A 
ATOM     26  C   LIG    1       -2.636  -2.421   1.001  0.00  0.00    +0.210 A 
BRANCH  25  27
ATOM     27  N   LIG    1       -0.345  -2.303   1.929  0.00  0.00    +0.030 N 
ATOM     28  O   LIG    1        0.731  -1.734   1.980  0.00  0.00    -0.130 OA
ATOM     29  O   LIG    1       -0.537  -3.304   2.596  0.00  0.00    -0.170 OA
ENDBRANCH  25  27
BRANCH  24  30
ATOM     30  O   LIG    1        0.001  -0.005   0.352  0.00  0.00    -0.280 OA
ATOM     31  C   LIG    1        0.162   1.159  -0.461  0.00  0.00    +0.280 C 
ENDBRANCH  24  30
ENDBRANCH   2  21
TORSDOF 6
