REMARK  Name = ZINCrD00000ldHDx.0
REMARK                            x       y       z     vdW  Elec       q    Type
REMARK                         _______ _______ _______ _____ _____    ______ ____
ROOT
ATOM      1  N   LIG    1       -5.450   1.328   0.812  0.00  0.00    -0.730 N 
ATOM      2  H   LIG    1       -4.941   0.772   1.423  0.00  0.00    +0.400 HD
ATOM      3  C   LIG    1       -4.853   2.361   0.184  0.00  0.00    +0.520 C 
ATOM      4  O   LIG    1       -5.489   3.055  -0.580  0.00  0.00    -0.530 OA
ENDROOT
BRANCH   3   5
ATOM      5  C   LIG    1       -3.395   2.652   0.431  0.00  0.00    +0.000 C 
ATOM      6  C   LIG    1       -2.967   3.864  -0.401  0.00  0.00    +0.090 C 
ATOM      7  C   LIG    1       -1.566   4.316   0.033  0.00  0.00    +0.300 C 
ATOM      8  N   LIG    1       -0.676   3.153   0.023  0.00  0.00    -0.420 N 
ATOM      9  C   LIG    1       -1.105   1.850   0.017  0.00  0.00    +0.010 A 
ATOM     10  C   LIG    1       -0.013   1.076   0.008  0.00  0.00    +0.180 A 
ATOM     11  N   LIG    1        1.063   1.883   0.002  0.00  0.00    -0.430 NA
ATOM     12  C   LIG    1        0.668   3.130   0.011  0.00  0.00    +0.110 A 
ATOM     13  C   LIG    1       -2.553   1.434   0.024  0.00  0.00    +0.160 C 
BRANCH  12  14
ATOM     14  C   LIG    1        1.569   4.338   0.011  0.00  0.00    +0.570 C 
ATOM     15  F   LIG    1        1.585   4.909   1.288  0.00  0.00    -0.170 F 
ATOM     16  F   LIG    1        1.093   5.274  -0.913  0.00  0.00    -0.170 F 
ATOM     17  F   LIG    1        2.866   3.951  -0.344  0.00  0.00    -0.150 F 
ENDBRANCH  12  14
ENDBRANCH   3   5
BRANCH   1  18
ATOM     18  C   LIG    1       -6.867   1.045   0.572  0.00  0.00    +0.330 C 
BRANCH  18  22
ATOM     19  C   LIG    1       -8.055  -2.347   2.886  0.00  0.00    +0.110 A 
ATOM     20  C   LIG    1       -7.563  -2.520   1.602  0.00  0.00    -0.040 A 
ATOM     21  C   LIG    1       -7.185  -1.421   0.854  0.00  0.00    +0.070 A 
ATOM     22  C   LIG    1       -7.286  -0.150   1.389  0.00  0.00    -0.120 A 
ATOM     23  C   LIG    1       -7.776   0.026   2.670  0.00  0.00    +0.050 A 
ATOM     24  C   LIG    1       -8.161  -1.069   3.421  0.00  0.00    +0.070 A 
ATOM     25  F   LIG    1       -8.640  -0.897   4.672  0.00  0.00    -0.130 F 
BRANCH  19  26
ATOM     26  O   LIG    1       -8.433  -3.426   3.621  0.00  0.00    -0.310 OA
BRANCH  26  28
ATOM     27  C   LIG    1       -8.769  -5.793   3.980  0.00  0.00    +0.070 C 
ATOM     28  C   LIG    1       -8.296  -4.710   3.008  0.00  0.00    +0.190 C 
ENDBRANCH  26  28
ENDBRANCH  19  26
ENDBRANCH  18  22
ENDBRANCH   1  18
TORSDOF 6
