REMARK  Name = ZINCrg00001JduSs.0
REMARK                            x       y       z     vdW  Elec       q    Type
REMARK                         _______ _______ _______ _____ _____    ______ ____
ROOT
ATOM      1  C   LIG    1        5.044  -6.136   0.220  0.00  0.00    +0.540 C 
ATOM      2  N   LIG    1        5.536  -4.902  -0.007  0.00  0.00    -0.600 N 
ATOM      3  C   LIG    1        6.790  -4.595  -0.720  0.00  0.00    +0.230 C 
ATOM      4  C   LIG    1        6.602  -3.151  -1.249  0.00  0.00    +0.170 C 
ATOM      5  C   LIG    1        5.816  -2.492  -0.085  0.00  0.00    +0.080 C 
ATOM      6  C   LIG    1        4.913  -3.639   0.416  0.00  0.00    +0.220 C 
ATOM      7  O   LIG    1        3.954  -6.268   0.735  0.00  0.00    -0.520 OA
ENDROOT
BRANCH   6   8
ATOM      8  C   LIG    1        3.541  -3.515  -0.196  0.00  0.00    +0.530 C 
ATOM      9  N   LIG    1        2.597  -2.770   0.413  0.00  0.00    -0.620 N 
ATOM     10  C   LIG    1        2.738  -2.107   1.718  0.00  0.00    +0.240 C 
ATOM     11  C   LIG    1        1.421  -1.352   1.992  0.00  0.00    +0.050 C 
ATOM     12  C   LIG    1        0.824  -1.166   0.572  0.00  0.00    +0.010 C 
ATOM     13  C   LIG    1        1.253  -2.484  -0.120  0.00  0.00    +0.260 C 
ATOM     14  O   LIG    1        3.286  -4.086  -1.235  0.00  0.00    -0.520 OA
BRANCH  12  15
ATOM     15  C   LIG    1       -0.700  -1.047   0.629  0.00  0.00    +0.070 C 
BRANCH  15  16
ATOM     16  C   LIG    1       -1.078   0.298   1.196  0.00  0.00    +0.510 C 
ATOM     17  N   LIG    1       -2.377   0.629   1.335  0.00  0.00    -0.740 N 
ATOM     18  H   LIG    1       -3.068   0.003   1.070  0.00  0.00    +0.400 HD
ATOM     19  C   LIG    1       -2.744   1.936   1.885  0.00  0.00    +0.290 C 
ATOM     20  O   LIG    1       -0.213   1.083   1.522  0.00  0.00    -0.530 OA
ENDBRANCH  15  16
ENDBRANCH  12  15
ENDBRANCH   6   8
BRANCH   4  21
ATOM     21  O   LIG    1        7.863  -2.508  -1.445  0.00  0.00    -0.550 OA
ATOM     22  H   LIG    1        8.389  -2.886  -2.163  0.00  0.00    +0.390 HD
ENDBRANCH   4  21
BRANCH   1  23
ATOM     23  C   LIG    1        5.847  -7.351  -0.167  0.00  0.00    -0.010 C 
BRANCH  23  25
ATOM     24  C   LIG    1        4.105  -8.136  -1.776  0.00  0.00    +0.010 C 
ATOM     25  C   LIG    1        4.899  -8.498  -0.519  0.00  0.00    +0.030 C 
ENDBRANCH  23  25
BRANCH  23  26
ATOM     26  C   LIG    1        6.738  -7.767   1.005  0.00  0.00    +0.040 C 
BRANCH  26  27
ATOM     27  C   LIG    1        7.644  -8.922   0.573  0.00  0.00    -0.020 C 
ATOM     28  C   LIG    1        8.445  -9.421   1.777  0.00  0.00    +0.020 C 
ATOM     29  C   LIG    1        8.605  -8.437  -0.514  0.00  0.00    +0.030 C 
ENDBRANCH  26  27
ENDBRANCH  23  26
ENDBRANCH   1  23
TORSDOF 8
