REMARK  Name = ZINCrg000000r5UF.0
REMARK                            x       y       z     vdW  Elec       q    Type
REMARK                         _______ _______ _______ _____ _____    ______ ____
ROOT
ATOM      1  S   LIG    1        3.864   0.623  -1.393  0.00  0.00    +2.700 S 
ATOM      2  O   LIG    1        4.469   1.347  -0.331  0.00  0.00    -0.940 OA
ATOM      3  O   LIG    1        2.519   0.168  -1.357  0.00  0.00    -0.960 OA
ENDROOT
BRANCH   1   9
ATOM      4  C   LIG    1        4.212   3.021  -2.622  0.00  0.00    +0.240 C 
ATOM      5  C   LIG    1        5.447   3.409  -3.440  0.00  0.00    +0.020 C 
ATOM      6  C   LIG    1        5.276   2.918  -4.879  0.00  0.00    +0.020 C 
ATOM      7  C   LIG    1        5.151   1.393  -4.888  0.00  0.00    +0.020 C 
ATOM      8  C   LIG    1        3.918   0.981  -4.086  0.00  0.00    +0.280 C 
ATOM      9  N   LIG    1        4.000   1.572  -2.743  0.00  0.00    -1.000 NA
BRANCH   4  10
ATOM     10  C   LIG    1        4.434   3.385  -1.152  0.00  0.00    +0.300 C 
BRANCH  10  11
ATOM     11  N   LIG    1        3.217   3.099  -0.388  0.00  0.00    -1.120 NA
ATOM     12  H   LIG    1        2.535   2.519  -0.762  0.00  0.00    +0.400 HD
BRANCH  11  14
ATOM     13  C   LIG    1        2.918   5.552   0.806  0.00  0.00    -0.290 C 
ATOM     14  S   LIG    1        3.006   3.767   1.112  0.00  0.00    +2.620 S 
ATOM     15  O   LIG    1        4.198   3.439   1.813  0.00  0.00    -0.940 OA
ATOM     16  O   LIG    1        1.745   3.272   1.541  0.00  0.00    -0.960 OA
ENDBRANCH  11  14
ENDBRANCH  10  11
ENDBRANCH   4  10
ENDBRANCH   1   9
BRANCH   1  17
ATOM     17  C   LIG    1        4.865  -0.803  -1.655  0.00  0.00    -0.820 A 
ATOM     18  C   LIG    1        6.194  -0.898  -1.418  0.00  0.00    +0.370 A 
ATOM     19  N   LIG    1        6.582  -2.148  -1.747  0.00  0.00    -0.350 N 
ATOM     20  N   LIG    1        5.455  -2.845  -2.201  0.00  0.00    -0.280 NA
ATOM     21  C   LIG    1        4.426  -2.038  -2.146  0.00  0.00    +0.330 A 
BRANCH  19  22
ATOM     22  C   LIG    1        7.943  -2.682  -1.647  0.00  0.00    +0.380 C 
BRANCH  22  23
ATOM     23  C   LIG    1        7.930  -3.937  -0.811  0.00  0.00    -0.120 A 
ATOM     24  C   LIG    1        8.114  -3.858   0.557  0.00  0.00    +0.020 A 
ATOM     25  C   LIG    1        8.097  -5.008   1.324  0.00  0.00    +0.010 A 
ATOM     26  C   LIG    1        7.907  -6.237   0.722  0.00  0.00    +0.030 A 
ATOM     27  C   LIG    1        7.728  -6.317  -0.647  0.00  0.00    +0.010 A 
ATOM     28  C   LIG    1        7.739  -5.166  -1.413  0.00  0.00    +0.040 A 
ENDBRANCH  22  23
ENDBRANCH  19  22
ENDBRANCH   1  17
TORSDOF 7
