REMARK  Name = ZINCqH0000005jUk.0
REMARK                            x       y       z     vdW  Elec       q    Type
REMARK                         _______ _______ _______ _____ _____    ______ ____
ROOT
ATOM      1  C   LIG    1       -2.639  -5.329   0.824  0.00  0.00    +0.020 A 
ATOM      2  C   LIG    1       -1.623  -4.604   0.306  0.00  0.00    -0.030 A 
ATOM      3  S   LIG    1       -2.060  -2.950   0.304  0.00  0.00    +0.180 S 
ATOM      4  C   LIG    1       -3.620  -3.343   1.018  0.00  0.00    +0.100 A 
ATOM      5  N   LIG    1       -3.698  -4.626   1.204  0.00  0.00    -0.410 NA
ENDROOT
BRANCH   4   6
ATOM      6  C   LIG    1       -4.675  -2.364   1.357  0.00  0.00    -0.020 A 
ATOM      7  C   LIG    1       -5.914  -2.805   1.825  0.00  0.00    +0.100 A 
ATOM      8  C   LIG    1       -6.896  -1.891   2.142  0.00  0.00    +0.050 A 
ATOM      9  C   LIG    1       -6.658  -0.532   1.999  0.00  0.00    +0.050 A 
ATOM     10  O   LIG    1       -7.450   0.553   2.241  0.00  0.00    -0.300 OA
ATOM     11  C   LIG    1       -6.834   1.645   1.533  0.00  0.00    +0.440 C 
ATOM     12  O   LIG    1       -5.443   1.279   1.482  0.00  0.00    -0.300 OA
ATOM     13  C   LIG    1       -5.422  -0.085   1.532  0.00  0.00    +0.030 A 
ATOM     14  C   LIG    1       -4.434  -0.997   1.212  0.00  0.00    +0.060 A 
ENDBRANCH   4   6
BRANCH   1  17
ATOM     15  C   LIG    1       -1.389  -8.909   0.713  0.00  0.00    +0.330 C 
ATOM     16  N   LIG    1       -1.421  -7.444   0.706  0.00  0.00    -0.470 N 
ATOM     17  C   LIG    1       -2.573  -6.794   0.963  0.00  0.00    +0.600 C 
ATOM     18  O   LIG    1       -3.559  -7.417   1.310  0.00  0.00    -0.490 OA
BRANCH  16  19
ATOM     19  O   LIG    1       -0.242  -6.712   0.428  0.00  0.00    -0.130 OA
BRANCH  19  20
ATOM     20  C   LIG    1        0.492  -6.329   1.593  0.00  0.00    +0.210 C 
BRANCH  20  21
ATOM     21  C   LIG    1        1.659  -5.464   1.190  0.00  0.00    -0.100 A 
ATOM     22  C   LIG    1        2.848  -6.049   0.795  0.00  0.00    +0.040 A 
ATOM     23  C   LIG    1        3.917  -5.256   0.421  0.00  0.00    +0.010 A 
ATOM     24  C   LIG    1        3.800  -3.879   0.451  0.00  0.00    +0.020 A 
ATOM     25  C   LIG    1        2.613  -3.295   0.851  0.00  0.00    +0.010 A 
ATOM     26  C   LIG    1        1.542  -4.087   1.220  0.00  0.00    +0.020 A 
ENDBRANCH  20  21
ENDBRANCH  19  20
ENDBRANCH  16  19
ENDBRANCH   1  17
TORSDOF 5
