REMARK  Name = ZINCvU0000000AIh.0
REMARK                            x       y       z     vdW  Elec       q    Type
REMARK                         _______ _______ _______ _____ _____    ______ ____
ROOT
ATOM      1  C   LIG    1       -3.799  -2.243   0.496  0.00  0.00    +0.560 C 
ATOM      2  N   LIG    1       -5.037  -2.777   0.496  0.00  0.00    -0.670 N 
ATOM      3  H   LIG    1       -5.788  -2.261   0.827  0.00  0.00    +0.410 HD
ATOM      4  O   LIG    1       -2.845  -2.918   0.161  0.00  0.00    -0.510 OA
ENDROOT
BRANCH   1  12
ATOM      5  C   LIG    1       -3.973   3.504   3.306  0.00  0.00    +0.040 C 
ATOM      6  C   LIG    1       -3.083   3.248   2.088  0.00  0.00    -0.030 C 
ATOM      7  C   LIG    1       -1.633   3.568   2.448  0.00  0.00    +0.030 C 
ATOM      8  C   LIG    1       -0.735   3.104   1.295  0.00  0.00    +0.030 C 
ATOM      9  C   LIG    1       -0.728   1.577   1.276  0.00  0.00    -0.020 C 
ATOM     10  C   LIG    1       -2.136   1.041   1.290  0.00  0.00    -0.070 A 
ATOM     11  C   LIG    1       -2.325  -0.278   0.908  0.00  0.00    +0.090 A 
ATOM     12  C   LIG    1       -3.602  -0.836   0.905  0.00  0.00    -0.140 A 
ATOM     13  C   LIG    1       -4.693  -0.056   1.291  0.00  0.00    +0.040 A 
ATOM     14  C   LIG    1       -4.494   1.253   1.668  0.00  0.00    +0.010 A 
ATOM     15  C   LIG    1        0.021   1.060   2.505  0.00  0.00    +0.040 C 
ATOM     16  C   LIG    1       -0.017   1.092   0.011  0.00  0.00    +0.030 C 
ATOM     17  C   LIG    1       -3.529   4.152   0.938  0.00  0.00    +0.040 C 
ATOM     18  C   LIG    1       -3.218   1.807   1.668  0.00  0.00    -0.030 A 
ENDBRANCH   1  12
BRANCH   2  19
ATOM     19  C   LIG    1       -5.237  -4.078   0.017  0.00  0.00    +0.170 A 
ATOM     20  C   LIG    1       -6.409  -4.396  -0.657  0.00  0.00    +0.000 A 
ATOM     21  C   LIG    1       -6.605  -5.678  -1.133  0.00  0.00    +0.080 A 
ATOM     22  C   LIG    1       -5.636  -6.651  -0.930  0.00  0.00    +0.160 A 
ATOM     23  C   LIG    1       -4.466  -6.334  -0.250  0.00  0.00    -0.010 A 
ATOM     24 CL   LIG    1       -3.253  -7.550   0.005  0.00  0.00    -0.040 Cl
ATOM     25  C   LIG    1       -4.267  -5.051   0.222  0.00  0.00    +0.050 A 
BRANCH  22  26
ATOM     26  N   LIG    1       -5.838  -7.950  -1.408  0.00  0.00    -0.940 N 
ATOM     27  C   LIG    1       -5.549  -8.432  -2.767  0.00  0.00    +0.260 C 
ATOM     28  C   LIG    1       -5.202  -9.935  -2.731  0.00  0.00    +0.090 C 
ATOM     29  C   LIG    1       -6.290 -10.556  -1.808  0.00  0.00    -0.320 C 
ATOM     30  S   LIG    1       -6.458  -9.237  -0.543  0.00  0.00    +2.560 S 
ATOM     31  O   LIG    1       -7.822  -8.909  -0.316  0.00  0.00    -0.950 OA
ATOM     32  O   LIG    1       -5.548  -9.435   0.530  0.00  0.00    -0.930 OA
ENDBRANCH  22  26
ENDBRANCH   2  19
TORSDOF 3
