REMARK  Name = ZINCvU0000000Civ.1
REMARK                            x       y       z     vdW  Elec       q    Type
REMARK                         _______ _______ _______ _____ _____    ______ ____
ROOT
ATOM      1  C   LIG    1        4.049   2.643  -0.023  0.00  0.00    +0.220 C 
ENDROOT
BRANCH   1   2
ATOM      2  C   LIG    1        5.519   2.977  -0.036  0.00  0.00    +0.100 A 
ATOM      3  C   LIG    1        6.232   3.135   1.081  0.00  0.00    -0.060 A 
ATOM      4  S   LIG    1        7.891   3.510   0.621  0.00  0.00    +0.160 S 
ATOM      5  C   LIG    1        7.462   3.426  -1.032  0.00  0.00    +0.270 A 
ATOM      6  N   LIG    1        6.203   3.142  -1.152  0.00  0.00    -0.460 NA
BRANCH   5   7
ATOM      7  N   LIG    1        8.337   3.634  -2.094  0.00  0.00    -0.480 N 
ATOM      8  C   LIG    1        7.890   3.543  -3.362  0.00  0.00    +0.510 C 
ATOM      9  O   LIG    1        6.726   3.281  -3.578  0.00  0.00    -0.460 OA
ATOM     10  C   LIG    1        8.837   3.768  -4.513  0.00  0.00    +0.110 C 
BRANCH   7  11
ATOM     11  C   LIG    1        9.682   3.938  -1.845  0.00  0.00    +0.060 A 
ATOM     12  C   LIG    1       10.615   2.917  -1.725  0.00  0.00    +0.070 A 
ATOM     13  C   LIG    1       11.941   3.219  -1.485  0.00  0.00    +0.020 A 
ATOM     14  C   LIG    1       12.339   4.536  -1.351  0.00  0.00    +0.070 A 
ATOM     15  C   LIG    1       11.413   5.557  -1.465  0.00  0.00    +0.000 A 
ATOM     16  C   LIG    1       10.085   5.262  -1.711  0.00  0.00    +0.120 A 
ATOM     17  F   LIG    1        9.180   6.259  -1.822  0.00  0.00    -0.120 F 
ENDBRANCH   7  11
ENDBRANCH   5   7
ENDBRANCH   1   2
BRANCH   1  18
ATOM     18  S   LIG    1        3.839   0.846  -0.031  0.00  0.00    +0.030 S 
BRANCH  18  23
ATOM     19  C   LIG    1       -0.016   1.310   0.009  0.00  0.00    +0.290 A 
ATOM     20  N   LIG    1        0.002  -0.004   0.002  0.00  0.00    -0.300 NA
ATOM     21  N   LIG    1        1.351  -0.395  -0.013  0.00  0.00    -0.460 N 
ATOM     22  H   LIG    1        1.692  -1.303  -0.021  0.00  0.00    +0.450 HD
ATOM     23  C   LIG    1        2.080   0.743  -0.014  0.00  0.00    +0.260 A 
ATOM     24  N   LIG    1        1.247   1.761  -0.000  0.00  0.00    -0.530 NA
BRANCH  19  28
ATOM     25  C   LIG    1       -3.510   3.736   0.040  0.00  0.00    +0.150 A 
ATOM     26  C   LIG    1       -3.627   2.353   0.033  0.00  0.00    -0.020 A 
ATOM     27  C   LIG    1       -2.496   1.563   0.023  0.00  0.00    +0.100 A 
ATOM     28  C   LIG    1       -1.234   2.156   0.020  0.00  0.00    -0.060 A 
ATOM     29  C   LIG    1       -1.120   3.545   0.032  0.00  0.00    +0.110 A 
ATOM     30  C   LIG    1       -2.254   4.329   0.036  0.00  0.00    -0.080 A 
BRANCH  25  32
ATOM     31  C   LIG    1       -4.432   5.927   0.056  0.00  0.00    +0.240 C 
ATOM     32  O   LIG    1       -4.625   4.511   0.049  0.00  0.00    -0.310 OA
ENDBRANCH  25  32
ENDBRANCH  19  28
ENDBRANCH  18  23
ENDBRANCH   1  18
TORSDOF 7
