REMARK  Name = ZINCvU0000000Civ.0
REMARK                            x       y       z     vdW  Elec       q    Type
REMARK                         _______ _______ _______ _____ _____    ______ ____
ROOT
ATOM      1  C   LIG    1       -4.781   3.874  -2.785  0.00  0.00    +0.180 C 
ENDROOT
BRANCH   1   2
ATOM      2  C   LIG    1       -3.445   3.235  -2.510  0.00  0.00    +0.100 A 
ATOM      3  C   LIG    1       -2.597   2.888  -3.481  0.00  0.00    -0.060 A 
ATOM      4  S   LIG    1       -1.168   2.180  -2.731  0.00  0.00    +0.150 S 
ATOM      5  C   LIG    1       -1.850   2.420  -1.182  0.00  0.00    +0.270 A 
ATOM      6  N   LIG    1       -3.020   2.967  -1.289  0.00  0.00    -0.460 NA
BRANCH   5   7
ATOM      7  N   LIG    1       -1.240   2.072   0.020  0.00  0.00    -0.480 N 
ATOM      8  C   LIG    1       -1.823   2.397   1.190  0.00  0.00    +0.510 C 
ATOM      9  O   LIG    1       -2.923   2.910   1.198  0.00  0.00    -0.460 OA
ATOM     10  C   LIG    1       -1.110   2.124   2.489  0.00  0.00    +0.120 C 
BRANCH   7  11
ATOM     11  C   LIG    1       -0.019   1.384   0.012  0.00  0.00    +0.060 A 
ATOM     12  C   LIG    1        1.177   2.089   0.006  0.00  0.00    +0.070 A 
ATOM     13  C   LIG    1        2.379   1.409  -0.007  0.00  0.00    +0.020 A 
ATOM     14  C   LIG    1        2.393   0.026  -0.014  0.00  0.00    +0.070 A 
ATOM     15  C   LIG    1        1.205  -0.681  -0.008  0.00  0.00    +0.000 A 
ATOM     16  C   LIG    1       -0.002  -0.006   0.005  0.00  0.00    +0.120 A 
ATOM     17  F   LIG    1       -1.163  -0.697   0.011  0.00  0.00    -0.120 F 
ENDBRANCH   7  11
ENDBRANCH   5   7
ENDBRANCH   1   2
BRANCH   1  18
ATOM     18  S   LIG    1       -6.041   2.584  -2.975  0.00  0.00    +0.050 S 
BRANCH  18  21
ATOM     19  C   LIG    1       -9.592   3.957  -3.694  0.00  0.00    +0.350 A 
ATOM     20  N   LIG    1       -8.722   2.987  -3.495  0.00  0.00    -0.510 NA
ATOM     21  C   LIG    1       -7.510   3.506  -3.286  0.00  0.00    +0.210 A 
ATOM     22  N   LIG    1       -7.590   4.816  -3.343  0.00  0.00    -0.310 NA
ATOM     23  N   LIG    1       -8.931   5.133  -3.613  0.00  0.00    -0.470 N 
ATOM     24  H   LIG    1       -9.309   6.021  -3.716  0.00  0.00    +0.440 HD
BRANCH  19  28
ATOM     25  C   LIG    1      -13.744   3.471  -4.459  0.00  0.00    +0.150 A 
ATOM     26  C   LIG    1      -12.940   2.355  -4.267  0.00  0.00    -0.010 A 
ATOM     27  C   LIG    1      -11.593   2.509  -4.018  0.00  0.00    +0.130 A 
ATOM     28  C   LIG    1      -11.037   3.788  -3.961  0.00  0.00    -0.080 A 
ATOM     29  C   LIG    1      -11.849   4.907  -4.149  0.00  0.00    +0.080 A 
ATOM     30  C   LIG    1      -13.194   4.745  -4.403  0.00  0.00    -0.070 A 
BRANCH  25  32
ATOM     31  C   LIG    1      -15.840   4.505  -4.891  0.00  0.00    +0.240 C 
ATOM     32  O   LIG    1      -15.071   3.316  -4.703  0.00  0.00    -0.310 OA
ENDBRANCH  25  32
ENDBRANCH  19  28
ENDBRANCH  18  21
ENDBRANCH   1  18
TORSDOF 7
