REMARK  Name = ZINCtV000002JekW.0
REMARK                            x       y       z     vdW  Elec       q    Type
REMARK                         _______ _______ _______ _____ _____    ______ ____
ROOT
ATOM      1  N   LIG    1       -1.159   6.782   0.330  0.00  0.00    -0.410 N 
ATOM      2  C   LIG    1       -0.705   8.067   0.211  0.00  0.00    +0.170 A 
ATOM      3  N   LIG    1        0.560   8.002  -0.141  0.00  0.00    -0.280 NA
ATOM      4  N   LIG    1        0.927   6.775  -0.245  0.00  0.00    -0.260 NA
ATOM      5  C   LIG    1       -0.079   5.979   0.034  0.00  0.00    +0.240 A 
ENDROOT
BRANCH   1  12
ATOM      6  C   LIG    1       -3.064   6.401  -1.750  0.00  0.00    +0.110 C 
ATOM      7  C   LIG    1       -3.411   6.171  -0.302  0.00  0.00    -0.060 A 
ATOM      8  C   LIG    1       -4.681   5.758   0.047  0.00  0.00    +0.030 A 
ATOM      9  C   LIG    1       -5.002   5.553   1.377  0.00  0.00    +0.050 A 
ATOM     10  C   LIG    1       -4.051   5.755   2.360  0.00  0.00    +0.030 A 
ATOM     11  C   LIG    1       -2.776   6.162   2.016  0.00  0.00    +0.040 A 
ATOM     12  C   LIG    1       -2.451   6.369   0.682  0.00  0.00    +0.090 A 
ENDBRANCH   1  12
BRANCH   5  13
ATOM     13  C   LIG    1       -0.059   4.501   0.027  0.00  0.00    -0.020 A 
ATOM     14  C   LIG    1        1.158   3.817   0.011  0.00  0.00    +0.090 A 
ATOM     15  C   LIG    1        1.170   2.438   0.004  0.00  0.00    +0.030 A 
ATOM     16  C   LIG    1       -0.021   1.732   0.012  0.00  0.00    -0.020 A 
ATOM     17  C   LIG    1       -1.232   2.405   0.021  0.00  0.00    +0.030 A 
ATOM     18 CL   LIG    1        0.002  -0.004   0.002  0.00  0.00    -0.060 Cl
ATOM     19  C   LIG    1       -1.257   3.784   0.034  0.00  0.00    +0.050 A 
ENDBRANCH   5  13
BRANCH   2  20
ATOM     20  S   LIG    1       -1.642   9.536   0.473  0.00  0.00    +0.030 S 
BRANCH  20  21
ATOM     21  C   LIG    1       -0.378  10.783   0.122  0.00  0.00    +0.150 C 
BRANCH  21  22
ATOM     22  C   LIG    1       -0.970  12.159   0.288  0.00  0.00    -0.050 A 
ATOM     23  C   LIG    1       -1.557  12.791  -0.794  0.00  0.00    +0.040 A 
ATOM     24  C   LIG    1       -2.105  14.048  -0.648  0.00  0.00    +0.070 A 
ATOM     25  C   LIG    1       -2.056  14.688   0.592  0.00  0.00    -0.020 A 
ATOM     26  C   LIG    1       -1.458  14.046   1.678  0.00  0.00    +0.070 A 
ATOM     27  C   LIG    1       -0.919  12.787   1.520  0.00  0.00    +0.040 A 
BRANCH  25  28
ATOM     28  C   LIG    1       -2.617  15.996   0.749  0.00  0.00    +0.250 C 
ATOM     29  N   LIG    1       -3.062  17.034   0.873  0.00  0.00    -0.410 NA
ENDBRANCH  25  28
ENDBRANCH  21  22
ENDBRANCH  20  21
ENDBRANCH   2  20
TORSDOF 6
