REMARK  Name = ZINCrH00000No55s.0
REMARK                            x       y       z     vdW  Elec       q    Type
REMARK                         _______ _______ _______ _____ _____    ______ ____
ROOT
ATOM      1  N   LIG    1        3.641  -4.922  -0.058  0.00  0.00    -0.610 N 
ATOM      2  C   LIG    1        2.461  -4.270  -0.043  0.00  0.00    +0.550 C 
ATOM      3  O   LIG    1        1.419  -4.899  -0.036  0.00  0.00    -0.530 OA
ATOM      4  C   LIG    1        4.895  -4.165  -0.067  0.00  0.00    +0.280 C 
ENDROOT
BRANCH   2   5
ATOM      5  C   LIG    1        2.433  -2.807  -0.036  0.00  0.00    -0.050 C 
ATOM      6  C   LIG    1        1.253  -2.155  -0.021  0.00  0.00    +0.130 C 
BRANCH   6   7
ATOM      7  C   LIG    1        1.225  -0.683  -0.013  0.00  0.00    -0.060 A 
ATOM      8  C   LIG    1        2.420   0.042  -0.021  0.00  0.00    +0.120 A 
ATOM      9  C   LIG    1        2.386   1.420  -0.013  0.00  0.00    +0.050 A 
ATOM     10  C   LIG    1        1.172   2.086   0.002  0.00  0.00    +0.020 A 
ATOM     11  C   LIG    1       -0.017   1.374   0.010  0.00  0.00    -0.040 A 
ATOM     12 CL   LIG    1        1.139   3.822   0.011  0.00  0.00    +0.000 Cl
ATOM     13  C   LIG    1        0.002  -0.004   0.002  0.00  0.00    +0.150 A 
BRANCH  11  14
ATOM     14  N   LIG    1       -1.309   2.095   0.020  0.00  0.00    +0.020 N 
ATOM     15  O   LIG    1       -1.328   3.313   0.026  0.00  0.00    -0.130 OA
ATOM     16  O   LIG    1       -2.355   1.470   0.021  0.00  0.00    -0.150 OA
ENDBRANCH  11  14
ENDBRANCH   6   7
ENDBRANCH   2   5
BRANCH   1  17
ATOM     17  C   LIG    1        3.669  -6.386  -0.066  0.00  0.00    +0.340 C 
BRANCH  17  21
ATOM     18  C   LIG    1        3.657  -7.792  -4.105  0.00  0.00    -0.120 A 
ATOM     19  C   LIG    1        4.866  -7.538  -3.454  0.00  0.00    +0.080 A 
ATOM     20  C   LIG    1        4.863  -7.085  -2.151  0.00  0.00    +0.010 A 
ATOM     21  C   LIG    1        3.665  -6.881  -1.489  0.00  0.00    -0.070 A 
ATOM     22  C   LIG    1        2.463  -7.136  -2.126  0.00  0.00    +0.030 A 
ATOM     23  C   LIG    1        2.452  -7.584  -3.431  0.00  0.00    +0.080 A 
BRANCH  18  24
ATOM     24  C   LIG    1        3.653  -8.278  -5.500  0.00  0.00    +0.510 C 
ATOM     25  O   LIG    1        4.703  -8.458  -6.083  0.00  0.00    -0.500 OA
BRANCH  24  27
ATOM     26  C   LIG    1        2.557  -8.997  -7.494  0.00  0.00    +0.280 C 
ATOM     27  O   LIG    1        2.485  -8.521  -6.125  0.00  0.00    -0.350 OA
ENDBRANCH  24  27
ENDBRANCH  18  24
ENDBRANCH  17  21
ENDBRANCH   1  17
TORSDOF 7
