REMARK  Name = ZINCrH00000No4O9.0
REMARK                            x       y       z     vdW  Elec       q    Type
REMARK                         _______ _______ _______ _____ _____    ______ ____
ROOT
ATOM      1  N   LIG    1        3.013   0.904  -1.268  0.00  0.00    -0.500 NA
ENDROOT
BRANCH   1   2
ATOM      2  C   LIG    1        4.400   0.420  -1.243  0.00  0.00    +0.190 C 
BRANCH   2   3
ATOM      3  C   LIG    1        5.258   1.372  -0.407  0.00  0.00    +0.170 C 
BRANCH   3   4
ATOM      4  C   LIG    1        6.702   0.868  -0.381  0.00  0.00    -0.030 C 
ATOM      5  C   LIG    1        6.953  -0.228   0.668  0.00  0.00    +0.010 C 
ATOM      6  C   LIG    1        8.297   0.463   0.953  0.00  0.00    +0.010 C 
ATOM      7  C   LIG    1        7.651   1.759   0.437  0.00  0.00    +0.010 C 
ENDBRANCH   3   4
BRANCH   3   8
ATOM      8  O   LIG    1        5.220   2.679  -0.985  0.00  0.00    -0.360 OA
BRANCH   8  10
ATOM      9  C   LIG    1        5.312   5.084  -0.763  0.00  0.00    +0.040 C 
ATOM     10  C   LIG    1        5.367   3.738  -0.037  0.00  0.00    +0.140 C 
ENDBRANCH   8  10
ENDBRANCH   3   8
ENDBRANCH   2   3
ENDBRANCH   1   2
BRANCH   1  11
ATOM     11  C   LIG    1        2.212   0.157  -2.247  0.00  0.00    +0.260 C 
BRANCH  11  12
ATOM     12  C   LIG    1        0.964   0.935  -2.574  0.00  0.00    +0.220 A 
ATOM     13  C   LIG    1        0.929   1.769  -3.676  0.00  0.00    -0.080 A 
ATOM     14  C   LIG    1       -0.248   2.469  -3.939  0.00  0.00    +0.360 A 
ATOM     15  N   LIG    1       -1.286   2.310  -3.126  0.00  0.00    -0.580 NA
ATOM     16  C   LIG    1       -1.210   1.504  -2.086  0.00  0.00    +0.530 A 
ATOM     17  N   LIG    1       -0.114   0.825  -1.813  0.00  0.00    -0.520 NA
BRANCH  14  18
ATOM     18  O   LIG    1       -0.331   3.298  -5.008  0.00  0.00    -0.300 OA
ATOM     19  C   LIG    1       -1.572   3.978  -5.206  0.00  0.00    +0.260 C 
ENDBRANCH  14  18
ENDBRANCH  11  12
ENDBRANCH   1  11
BRANCH   1  20
ATOM     20  C   LIG    1        2.408   0.838   0.069  0.00  0.00    +0.300 C 
BRANCH  20  21
ATOM     21  C   LIG    1        2.373  -0.596   0.533  0.00  0.00    +0.110 A 
ATOM     22  C   LIG    1        3.390  -1.079   1.333  0.00  0.00    -0.020 A 
ATOM     23  C   LIG    1        3.350  -2.402   1.751  0.00  0.00    +0.010 A 
ATOM     24  C   LIG    1        2.277  -3.188   1.355  0.00  0.00    -0.020 A 
ATOM     25  C   LIG    1        1.297  -2.633   0.553  0.00  0.00    +0.280 A 
ATOM     26 CL   LIG    1        4.609  -3.057   2.751  0.00  0.00    -0.050 Cl
ATOM     27  N   LIG    1        1.371  -1.373   0.171  0.00  0.00    -0.450 NA
ENDBRANCH  20  21
ENDBRANCH   1  20
TORSDOF 10
