REMARK  Name = ZINCpk00000e9AMF.0
REMARK                            x       y       z     vdW  Elec       q    Type
REMARK                         _______ _______ _______ _____ _____    ______ ____
ROOT
ATOM      1  C   LIG    1        1.775  -1.831  -0.027  0.00  0.00    -0.130 A 
ATOM      2  C   LIG    1        0.864  -2.890  -0.018  0.00  0.00    +0.340 A 
ATOM      3  N   LIG    1        1.321  -4.130  -0.036  0.00  0.00    -0.540 NA
ATOM      4  C   LIG    1        2.623  -4.375  -0.051  0.00  0.00    +0.480 A 
ATOM      5  N   LIG    1        3.518  -3.397  -0.055  0.00  0.00    -0.520 NA
ATOM      6  C   LIG    1        3.139  -2.131  -0.043  0.00  0.00    +0.350 A 
ENDROOT
BRANCH   1  11
ATOM      7  C   LIG    1       -0.756   3.551  -0.693  0.00  0.00    +0.240 C 
ATOM      8  C   LIG    1       -1.152   2.261   0.020  0.00  0.00    +0.300 C 
ATOM      9  N   LIG    1       -0.016   1.335   0.009  0.00  0.00    -0.430 N 
ATOM     10  C   LIG    1        0.002  -0.004   0.002  0.00  0.00    +0.230 A 
ATOM     11  C   LIG    1        1.306  -0.423  -0.014  0.00  0.00    -0.140 A 
ATOM     12  C   LIG    1        2.123   0.730  -0.016  0.00  0.00    +0.070 A 
ATOM     13  C   LIG    1        1.294   1.797  -0.001  0.00  0.00    -0.060 A 
ATOM     14  C   LIG    1        1.581   3.239   0.007  0.00  0.00    +0.600 C 
ATOM     15  O   LIG    1        2.695   3.670   0.241  0.00  0.00    -0.520 OA
ATOM     16  N   LIG    1        0.538   4.061  -0.261  0.00  0.00    -0.730 N 
ATOM     17  H   LIG    1        0.657   5.019  -0.161  0.00  0.00    +0.410 HD
BRANCH   7  19
ATOM     18  C   LIG    1       -0.510   4.604  -2.946  0.00  0.00    +0.030 C 
ATOM     19  C   LIG    1       -0.703   3.282  -2.199  0.00  0.00    +0.010 C 
ENDBRANCH   7  19
ENDBRANCH   1  11
BRANCH   4  20
ATOM     20  N   LIG    1        3.061  -5.688  -0.063  0.00  0.00    -0.460 N 
ATOM     21  C   LIG    1        3.970  -5.950   1.059  0.00  0.00    +0.220 C 
ATOM     22  C   LIG    1        4.546  -7.362   0.932  0.00  0.00    +0.020 C 
ATOM     23  C   LIG    1        3.400  -8.378   0.932  0.00  0.00    +0.150 C 
ATOM     24  C   LIG    1        2.442  -8.053  -0.218  0.00  0.00    +0.050 C 
ATOM     25  C   LIG    1        1.927  -6.621  -0.057  0.00  0.00    +0.220 C 
BRANCH  23  26
ATOM     26  O   LIG    1        3.927  -9.694   0.757  0.00  0.00    -0.560 OA
ATOM     27  H   LIG    1        4.543  -9.967   1.450  0.00  0.00    +0.380 HD
ENDBRANCH  23  26
ENDBRANCH   4  20
TORSDOF 4
