REMARK  Name = ZINCpe000000U8d1.0
REMARK                            x       y       z     vdW  Elec       q    Type
REMARK                         _______ _______ _______ _____ _____    ______ ____
ROOT
ATOM      1  C   LIG    1       -0.018   1.471   0.010  0.00  0.00    -0.200 A 
ATOM      2  C   LIG    1       -1.237   2.155   0.020  0.00  0.00    +0.090 A 
ATOM      3  C   LIG    1       -1.252   3.531   0.033  0.00  0.00    -0.080 A 
ATOM      4  C   LIG    1       -0.056   4.242   0.025  0.00  0.00    +0.250 A 
ATOM      5  C   LIG    1        1.160   3.564   0.010  0.00  0.00    -0.070 A 
ATOM      6  C   LIG    1        1.182   2.188   0.003  0.00  0.00    +0.130 A 
ENDROOT
BRANCH   1   9
ATOM      7  N   LIG    1       -1.156  -0.694   0.009  0.00  0.00    -0.720 N 
ATOM      8  H   LIG    1       -2.002  -0.220   0.020  0.00  0.00    +0.400 HD
ATOM      9  C   LIG    1        0.002  -0.004   0.002  0.00  0.00    +0.570 C 
ATOM     10  O   LIG    1        1.063  -0.598  -0.011  0.00  0.00    -0.550 OA
BRANCH   7  11
ATOM     11  CA  LIG    1       -1.136  -2.159   0.001  0.00  0.00    +0.250 C 
BRANCH  11  13
ATOM     12  C   LIG    1       -2.529  -2.271  -2.070  0.00  0.00    +0.020 C 
ATOM     13  C   LIG    1       -2.442  -2.683  -0.599  0.00  0.00    +0.030 C 
ENDBRANCH  11  13
BRANCH  11  14
ATOM     14  C   LIG    1       -0.990  -2.675   1.434  0.00  0.00    +0.160 C 
BRANCH  14  15
ATOM     15  O   LIG    1       -2.148  -2.316   2.190  0.00  0.00    -0.570 OA
ATOM     16  H   LIG    1       -2.124  -2.612   3.111  0.00  0.00    +0.380 HD
ENDBRANCH  14  15
ENDBRANCH  11  14
ENDBRANCH   7  11
ENDBRANCH   1   9
BRANCH   4  17
ATOM     17  N   LIG    1       -0.074   5.632   0.033  0.00  0.00    -0.730 N 
ATOM     18  H   LIG    1        0.759   6.128   0.027  0.00  0.00    +0.410 HD
BRANCH  17  19
ATOM     19  C   LIG    1       -1.353   6.347   0.049  0.00  0.00    +0.290 C 
BRANCH  19  20
ATOM     20  C   LIG    1       -1.098   7.832   0.054  0.00  0.00    +0.510 C 
ATOM     21  N   LIG    1       -2.134   8.694   0.068  0.00  0.00    -0.610 N 
ATOM     22  C   LIG    1       -3.523   8.209   0.079  0.00  0.00    +0.260 C 
ATOM     23  C   LIG    1       -4.295   8.928  -1.032  0.00  0.00    +0.220 C 
ATOM     24  O   LIG    1       -4.115  10.339  -0.893  0.00  0.00    -0.370 OA
ATOM     25  C   LIG    1       -2.761  10.774  -1.037  0.00  0.00    +0.140 C 
ATOM     26  C   LIG    1       -2.699  12.299  -0.933  0.00  0.00    +0.070 C 
ATOM     27  C   LIG    1       -1.909  10.149   0.080  0.00  0.00    +0.260 C 
ATOM     28  O   LIG    1        0.040   8.252   0.045  0.00  0.00    -0.530 OA
ENDBRANCH  19  20
ENDBRANCH  17  19
ENDBRANCH   4  17
TORSDOF 8
