REMARK  Name = ZINCtj00000mhSvk.1
REMARK                            x       y       z     vdW  Elec       q    Type
REMARK                         _______ _______ _______ _____ _____    ______ ____
ROOT
ATOM      1  C   LIG    1       -0.962   2.486   0.484  0.00  0.00    +0.530 C 
ATOM      2  N   LIG    1        0.086   1.662   0.286  0.00  0.00    -0.630 N 
ATOM      3  C   LIG    1       -0.082   0.201   0.334  0.00  0.00    +0.310 C 
ATOM      4  C   LIG    1        0.542  -0.401  -0.930  0.00  0.00    +0.270 C 
ATOM      5  N   LIG    1        1.936   0.045  -1.046  0.00  0.00    -0.500 N 
ATOM      6  C   LIG    1        1.980   1.500  -1.239  0.00  0.00    +0.270 C 
ATOM      7  H   LIG    1        2.368  -0.409  -1.837  0.00  0.00    +0.440 HD
ATOM      8  H   LIG    1        2.437  -0.197  -0.205  0.00  0.00    +0.430 HD
ATOM      9  C   LIG    1        1.428   2.197   0.009  0.00  0.00    +0.290 C 
ATOM     10  O   LIG    1       -0.787   3.685   0.548  0.00  0.00    -0.470 OA
ENDROOT
BRANCH   9  11
ATOM     11  C   LIG    1        1.341   3.681  -0.236  0.00  0.00    -0.050 A 
ATOM     12  C   LIG    1        1.927   4.563   0.652  0.00  0.00    +0.020 A 
ATOM     13  C   LIG    1        1.848   5.926   0.428  0.00  0.00    +0.060 A 
ATOM     14  C   LIG    1        1.183   6.406  -0.684  0.00  0.00    +0.000 A 
ATOM     15  C   LIG    1        0.595   5.523  -1.574  0.00  0.00    +0.110 A 
ATOM     16  F   LIG    1       -0.056   5.992  -2.661  0.00  0.00    -0.140 F 
ATOM     17  C   LIG    1        0.679   4.159  -1.351  0.00  0.00    -0.010 A 
ENDBRANCH   9  11
BRANCH   1  18
ATOM     18  C   LIG    1       -2.351   1.919   0.627  0.00  0.00    +0.050 C 
BRANCH  18  19
ATOM     19  C   LIG    1       -3.348   3.060   0.842  0.00  0.00    +0.350 C 
BRANCH  19  24
ATOM     20  O   LIG    1       -7.386   1.706  -1.118  0.00  0.00    -0.500 OA
ATOM     21  C   LIG    1       -6.731   1.840  -0.103  0.00  0.00    +0.570 A 
ATOM     22  N   LIG    1       -5.482   2.341  -0.161  0.00  0.00    -0.510 N 
ATOM     23  H   LIG    1       -5.116   2.594  -1.024  0.00  0.00    +0.430 HD
ATOM     24  N   LIG    1       -4.698   2.509   0.981  0.00  0.00    -0.410 N 
ATOM     25  C   LIG    1       -5.144   2.174   2.208  0.00  0.00    +0.570 A 
ATOM     26  C   LIG    1       -6.507   1.621   2.361  0.00  0.00    -0.110 A 
ATOM     27  C   LIG    1       -7.013   1.266   3.603  0.00  0.00    +0.090 A 
ATOM     28  C   LIG    1       -8.293   0.748   3.698  0.00  0.00    +0.050 A 
ATOM     29  C   LIG    1       -9.070   0.582   2.566  0.00  0.00    +0.050 A 
ATOM     30  C   LIG    1       -8.580   0.931   1.319  0.00  0.00    +0.090 A 
ATOM     31  O   LIG    1       -4.432   2.328   3.181  0.00  0.00    -0.510 OA
ATOM     32  C   LIG    1       -7.298   1.452   1.207  0.00  0.00    -0.110 A 
ENDBRANCH  19  24
ENDBRANCH  18  19
ENDBRANCH   1  18
TORSDOF 4
