REMARK  Name = ZINCrH00000ltTuX.0
REMARK                            x       y       z     vdW  Elec       q    Type
REMARK                         _______ _______ _______ _____ _____    ______ ____
ROOT
ATOM      1  C   LIG    1        5.222  -4.466  -0.289  0.00  0.00    -0.220 A 
ATOM      2  C   LIG    1        6.583  -4.503  -0.301  0.00  0.00    +0.120 A 
ATOM      3  O   LIG    1        7.071  -3.259  -0.232  0.00  0.00    -0.170 OA
ATOM      4  C   LIG    1        6.080  -2.345  -0.171  0.00  0.00    +0.060 A 
ATOM      5  C   LIG    1        6.074  -0.958  -0.090  0.00  0.00    +0.070 A 
ATOM      6  C   LIG    1        4.877  -0.275  -0.041  0.00  0.00    +0.060 A 
ATOM      7  C   LIG    1        3.668  -0.961  -0.072  0.00  0.00    +0.080 A 
ATOM      8  C   LIG    1        3.657  -2.343  -0.147  0.00  0.00    +0.070 A 
ATOM      9  C   LIG    1        7.415  -5.756  -0.382  0.00  0.00    +0.190 C 
ATOM     10  C   LIG    1        4.861  -3.037  -0.203  0.00  0.00    -0.080 A 
ENDROOT
BRANCH   1  11
ATOM     11  C   LIG    1        4.304  -5.612  -0.349  0.00  0.00    +0.550 C 
ATOM     12  O   LIG    1        3.931  -6.147   0.677  0.00  0.00    -0.490 OA
BRANCH  11  14
ATOM     13  C   LIG    1        2.968  -7.203  -1.526  0.00  0.00    +0.280 C 
ATOM     14  O   LIG    1        3.874  -6.069  -1.542  0.00  0.00    -0.350 OA
ENDBRANCH  11  14
ENDBRANCH   1  11
BRANCH   7  15
ATOM     15  O   LIG    1        2.496  -0.275  -0.023  0.00  0.00    -0.280 OA
BRANCH  15  16
ATOM     16  C   LIG    1        2.096   0.334  -1.157  0.00  0.00    +0.510 C 
ATOM     17  O   LIG    1        2.816   0.330  -2.136  0.00  0.00    -0.490 OA
BRANCH  16  18
ATOM     18  C   LIG    1        0.784   1.006  -1.210  0.00  0.00    -0.130 A 
ATOM     19  C   LIG    1       -0.046   1.011  -0.085  0.00  0.00    +0.100 A 
ATOM     20  C   LIG    1       -1.274   1.634  -0.138  0.00  0.00    -0.040 A 
ATOM     21  C   LIG    1       -1.685   2.266  -1.303  0.00  0.00    +0.140 A 
ATOM     22  C   LIG    1       -0.863   2.264  -2.429  0.00  0.00    +0.090 A 
ATOM     23  C   LIG    1        0.366   1.637  -2.385  0.00  0.00    +0.040 A 
BRANCH  22  24
ATOM     24  O   LIG    1       -1.272   2.880  -3.571  0.00  0.00    -0.300 OA
ATOM     25  C   LIG    1       -0.379   2.838  -4.686  0.00  0.00    +0.250 C 
ENDBRANCH  22  24
BRANCH  21  26
ATOM     26  O   LIG    1       -2.894   2.884  -1.348  0.00  0.00    -0.300 OA
ATOM     27  C   LIG    1       -3.686   2.848  -0.159  0.00  0.00    +0.250 C 
ENDBRANCH  21  26
ENDBRANCH  16  18
ENDBRANCH  15  16
ENDBRANCH   7  15
TORSDOF 7
