REMARK  Name = ZINCtV00001bB3OB.0
REMARK                            x       y       z     vdW  Elec       q    Type
REMARK                         _______ _______ _______ _____ _____    ______ ____
ROOT
ATOM      1  C   LIG    1       -0.587  -0.716   1.058  0.00  0.00    +0.020 A 
ATOM      2  C   LIG    1       -0.573  -2.074   1.056  0.00  0.00    +0.120 A 
ATOM      3  C   LIG    1        0.038  -2.771  -0.014  0.00  0.00    -0.050 A 
ATOM      4  C   LIG    1        0.631  -2.046  -1.075  0.00  0.00    +0.100 A 
ATOM      5  C   LIG    1        0.605  -0.688  -1.064  0.00  0.00    +0.000 A 
ATOM      6  C   LIG    1        0.002  -0.004   0.002  0.00  0.00    +0.170 A 
ENDROOT
BRANCH   6   7
ATOM      7  N   LIG    1       -0.017   1.372   0.010  0.00  0.00    -0.500 N 
ATOM      8  C   LIG    1       -0.805   1.894  -1.114  0.00  0.00    +0.190 C 
ATOM      9  C   LIG    1       -0.925   3.414  -0.992  0.00  0.00    +0.030 C 
ATOM     10  C   LIG    1        0.475   4.034  -0.995  0.00  0.00    +0.010 C 
ATOM     11  C   LIG    1        1.291   3.438   0.155  0.00  0.00    +0.030 C 
ATOM     12  C   LIG    1        1.347   1.917  -0.001  0.00  0.00    +0.180 C 
ENDBRANCH   6   7
BRANCH   1  14
ATOM     13  O   LIG    1       -1.778  -0.652   3.167  0.00  0.00    -0.210 OA
ATOM     14  N   LIG    1       -1.225   0.015   2.175  0.00  0.00    -0.030 N 
ATOM     15  O   LIG    1       -1.240   1.331   2.178  0.00  0.00    -0.090 OA
ENDBRANCH   1  14
BRANCH   3  16
ATOM     16  C   LIG    1        0.057  -4.175  -0.022  0.00  0.00    +0.030 C 
ATOM     17  C   LIG    1        0.663  -4.861  -1.082  0.00  0.00    +0.090 C 
BRANCH  17  18
ATOM     18  C   LIG    1        0.681  -6.251  -1.090  0.00  0.00    +0.030 A 
ATOM     19  N   LIG    1        1.225  -6.989  -2.041  0.00  0.00    -0.430 NA
ATOM     20  C   LIG    1        1.154  -8.277  -1.892  0.00  0.00    +0.120 A 
ATOM     21  C   LIG    1        0.468  -8.680  -0.669  0.00  0.00    -0.120 A 
ATOM     22  S   LIG    1       -0.010  -7.267   0.168  0.00  0.00    +0.240 S 
BRANCH  20  23
ATOM     23  C   LIG    1        1.712  -9.236  -2.862  0.00  0.00    -0.040 A 
ATOM     24  C   LIG    1        1.603 -10.614  -2.632  0.00  0.00    +0.070 A 
ATOM     25  C   LIG    1        2.120 -11.504  -3.544  0.00  0.00    -0.010 A 
ATOM     26  C   LIG    1        2.760 -11.040  -4.687  0.00  0.00    +0.110 A 
ATOM     27  C   LIG    1        2.876  -9.675  -4.919  0.00  0.00    -0.010 A 
ATOM     28  F   LIG    1        3.271 -11.919  -5.576  0.00  0.00    -0.140 F 
ATOM     29  C   LIG    1        2.358  -8.774  -4.017  0.00  0.00    +0.080 A 
ENDBRANCH  20  23
ENDBRANCH  17  18
ENDBRANCH   3  16
TORSDOF 5
