REMARK  Name = ZINCrH000004nXlx.2
REMARK                            x       y       z     vdW  Elec       q    Type
REMARK                         _______ _______ _______ _____ _____    ______ ____
ROOT
ATOM      1  C   LIG    1       -0.742   1.585  -1.213  0.00  0.00    +0.450 C 
ATOM      2  O   LIG    1       -1.736   2.269  -1.088  0.00  0.00    -0.460 OA
ENDROOT
BRANCH   1   6
ATOM      3  N   LIG    1       -0.043   1.101  -4.745  0.00  0.00    -0.390 N 
ATOM      4  C   LIG    1        0.997   0.387  -4.219  0.00  0.00    +0.020 A 
ATOM      5  C   LIG    1        0.931   0.434  -2.878  0.00  0.00    +0.010 A 
ATOM      6  C   LIG    1       -0.249   1.245  -2.549  0.00  0.00    -0.260 A 
ATOM      7  C   LIG    1        2.051  -0.338  -5.016  0.00  0.00    +0.130 C 
ATOM      8  C   LIG    1       -0.803   1.617  -3.760  0.00  0.00    +0.130 A 
ATOM      9  C   LIG    1       -2.040   2.458  -3.946  0.00  0.00    +0.150 C 
BRANCH   3  14
ATOM     10  C   LIG    1        0.372   2.132  -8.258  0.00  0.00    -0.070 A 
ATOM     11  C   LIG    1       -0.778   1.595  -8.824  0.00  0.00    +0.010 A 
ATOM     12  C   LIG    1       -1.677   0.899  -8.038  0.00  0.00    +0.060 A 
ATOM     13  C   LIG    1       -1.435   0.735  -6.687  0.00  0.00    +0.020 A 
ATOM     14  C   LIG    1       -0.286   1.268  -6.115  0.00  0.00    +0.130 A 
ATOM     15  C   LIG    1        0.615   1.972  -6.900  0.00  0.00    +0.050 A 
BRANCH  10  17
ATOM     16  C   LIG    1        0.756   2.953 -10.906  0.00  0.00    +0.140 C 
ATOM     17  S   LIG    1        1.517   3.020  -9.260  0.00  0.00    -0.100 S 
ENDBRANCH  10  17
ENDBRANCH   3  14
ENDBRANCH   1   6
BRANCH   1  18
ATOM     18  C   LIG    1       -0.013   1.086   0.008  0.00  0.00    +0.100 C 
BRANCH  18  19
ATOM     19  S   LIG    1       -0.860   1.669   1.497  0.00  0.00    +0.060 S 
BRANCH  19  20
ATOM     20  C   LIG    1        0.174   0.961   2.735  0.00  0.00    +0.370 A 
ATOM     21  N   LIG    1        1.220   0.235   2.365  0.00  0.00    -0.620 NA
ATOM     22  C   LIG    1        2.025  -0.311   3.273  0.00  0.00    +0.480 A 
ATOM     23  C   LIG    1        1.751  -0.121   4.624  0.00  0.00    -0.230 A 
ATOM     24  C   LIG    1        0.641   0.642   4.974  0.00  0.00    +0.480 A 
ATOM     25  N   LIG    1       -0.117   1.162   4.012  0.00  0.00    -0.590 NA
BRANCH  24  26
ATOM     26  N   LIG    1        0.330   0.857   6.308  0.00  0.00    -0.840 N 
ATOM     27  H   LIG    1        0.887   0.475   7.004  0.00  0.00    +0.410 HD
ATOM     28  H   LIG    1       -0.446   1.390   6.545  0.00  0.00    +0.410 HD
ENDBRANCH  24  26
BRANCH  22  29
ATOM     29  N   LIG    1        3.120  -1.065   2.877  0.00  0.00    -0.840 N 
ATOM     30  H   LIG    1        3.305  -1.193   1.933  0.00  0.00    +0.410 HD
ATOM     31  H   LIG    1        3.700  -1.464   3.544  0.00  0.00    +0.410 HD
ENDBRANCH  22  29
ENDBRANCH  19  20
ENDBRANCH  18  19
ENDBRANCH   1  18
TORSDOF 8
