REMARK  Name = ZINCpk000004AOwx.0
REMARK                            x       y       z     vdW  Elec       q    Type
REMARK                         _______ _______ _______ _____ _____    ______ ____
ROOT
ATOM      1  C   LIG    1       -3.466  -2.318  -2.577  0.00  0.00    +0.520 C 
ATOM      2  N   LIG    1       -2.933  -1.885  -1.418  0.00  0.00    -0.730 N 
ATOM      3  H   LIG    1       -3.379  -2.076  -0.578  0.00  0.00    +0.400 HD
ATOM      4  O   LIG    1       -2.909  -2.079  -3.628  0.00  0.00    -0.530 OA
ENDROOT
BRANCH   1  10
ATOM      5  C   LIG    1       -7.905  -3.193  -0.978  0.00  0.00    +0.550 C 
ATOM      6  N   LIG    1       -7.139  -2.971  -2.064  0.00  0.00    -0.610 N 
ATOM      7  C   LIG    1       -7.561  -3.447  -3.388  0.00  0.00    +0.260 C 
ATOM      8  C   LIG    1       -6.432  -4.286  -3.994  0.00  0.00    +0.010 C 
ATOM      9  C   LIG    1       -5.141  -3.464  -4.004  0.00  0.00    +0.050 C 
ATOM     10  C   LIG    1       -4.755  -3.099  -2.569  0.00  0.00    -0.020 C 
ATOM     11  C   LIG    1       -5.866  -2.247  -1.947  0.00  0.00    +0.290 C 
ATOM     12  O   LIG    1       -7.502  -2.878   0.126  0.00  0.00    -0.540 OA
BRANCH   5  14
ATOM     13  C   LIG    1      -10.026  -3.945  -0.069  0.00  0.00    +0.140 C 
ATOM     14  C   LIG    1       -9.229  -3.816  -1.126  0.00  0.00    -0.090 C 
ENDBRANCH   5  14
ENDBRANCH   1  10
BRANCH   2  15
ATOM     15  C   LIG    1       -1.681  -1.125  -1.426  0.00  0.00    +0.260 C 
BRANCH  15  16
ATOM     16  C   LIG    1       -1.298  -0.757   0.009  0.00  0.00    +0.110 C 
BRANCH  16  17
ATOM     17  C   LIG    1       -0.009   0.025   0.000  0.00  0.00    -0.180 A 
ATOM     18  C   LIG    1       -0.032   1.379   0.004  0.00  0.00    +0.350 A 
ATOM     19  N   LIG    1        1.150   2.064  -0.005  0.00  0.00    -0.310 N 
ATOM     20  N   LIG    1        1.452   3.430  -0.004  0.00  0.00    -0.300 NA
ATOM     21  C   LIG    1        2.759   3.575  -0.015  0.00  0.00    +0.320 A 
ATOM     22  C   LIG    1        3.353   2.322  -0.023  0.00  0.00    -0.180 A 
ATOM     23 CL   LIG    1        5.058   1.995  -0.038  0.00  0.00    -0.020 Cl
ATOM     24  C   LIG    1        2.337   1.375  -0.017  0.00  0.00    +0.270 A 
ATOM     25  N   LIG    1        2.346   0.035  -0.021  0.00  0.00    -0.450 NA
ATOM     26  C   LIG    1        1.224  -0.645  -0.013  0.00  0.00    +0.390 A 
ENDBRANCH  16  17
ENDBRANCH  15  16
ENDBRANCH   2  15
TORSDOF 5
