REMARK  Name = ZINCqH00000364be.0
REMARK                            x       y       z     vdW  Elec       q    Type
REMARK                         _______ _______ _______ _____ _____    ______ ____
ROOT
ATOM      1  S   LIG    1        4.982   0.064   0.669  0.00  0.00    +2.690 S 
ATOM      2  O   LIG    1        5.005   1.435   0.297  0.00  0.00    -0.940 OA
ATOM      3  O   LIG    1        6.059  -0.827   0.417  0.00  0.00    -0.940 OA
ENDROOT
BRANCH   1   7
ATOM      4  C   LIG    1        4.261  -0.043   5.143  0.00  0.00    +0.160 A 
ATOM      5  C   LIG    1        4.878  -1.110   4.511  0.00  0.00    -0.060 A 
ATOM      6  C   LIG    1        5.096  -1.074   3.146  0.00  0.00    +0.160 A 
ATOM      7  C   LIG    1        4.701   0.026   2.408  0.00  0.00    -0.690 A 
ATOM      8  C   LIG    1        4.090   1.098   3.032  0.00  0.00    +0.170 A 
ATOM      9  C   LIG    1        3.862   1.066   4.399  0.00  0.00    +0.100 A 
BRANCH   9  10
ATOM     10  N   LIG    1        3.238   2.149   5.033  0.00  0.00    -0.660 N 
ATOM     11  H   LIG    1        2.772   2.017   5.873  0.00  0.00    +0.420 HD
ATOM     12  C   LIG    1        3.286   3.375   4.475  0.00  0.00    +0.510 C 
ATOM     13  O   LIG    1        3.951   3.562   3.477  0.00  0.00    -0.520 OA
ATOM     14  C   LIG    1        2.515   4.514   5.090  0.00  0.00    +0.110 C 
ENDBRANCH   9  10
BRANCH   4  16
ATOM     15  C   LIG    1        4.482  -1.245   7.183  0.00  0.00    +0.250 C 
ATOM     16  O   LIG    1        4.046  -0.076   6.485  0.00  0.00    -0.310 OA
ENDBRANCH   4  16
ENDBRANCH   1   7
BRANCH   1  17
ATOM     17  N   LIG    1        3.649  -0.596  -0.058  0.00  0.00    -1.050 N 
ATOM     18  H   LIG    1        3.740  -1.387  -0.612  0.00  0.00    +0.430 HD
BRANCH  17  19
ATOM     19  C   LIG    1        2.390  -0.012   0.126  0.00  0.00    +0.190 A 
ATOM     20  C   LIG    1        2.270   1.366   0.226  0.00  0.00    +0.010 A 
ATOM     21  C   LIG    1        1.025   1.940   0.409  0.00  0.00    +0.060 A 
ATOM     22  C   LIG    1       -0.102   1.145   0.492  0.00  0.00    +0.020 A 
ATOM     23  C   LIG    1        0.007  -0.230   0.394  0.00  0.00    +0.030 A 
ATOM     24  C   LIG    1        1.251  -0.815   0.210  0.00  0.00    -0.120 A 
BRANCH  24  25
ATOM     25  S   LIG    1        1.394  -2.566   0.085  0.00  0.00    -0.090 S 
BRANCH  25  26
ATOM     26  C   LIG    1       -0.322  -3.129   0.253  0.00  0.00    +0.430 C 
ATOM     27  F   LIG    1       -1.096  -2.578  -0.774  0.00  0.00    -0.180 F 
ATOM     28  F   LIG    1       -0.829  -2.718   1.490  0.00  0.00    -0.180 F 
ENDBRANCH  25  26
ENDBRANCH  24  25
ENDBRANCH  17  19
ENDBRANCH   1  17
TORSDOF 7
