REMARK  Name = ZINCqH0000050BHB.0
REMARK                            x       y       z     vdW  Elec       q    Type
REMARK                         _______ _______ _______ _____ _____    ______ ____
ROOT
ATOM      1  N   LIG    1        1.257   1.133   0.513  0.00  0.00    -0.740 N 
ATOM      2  H   LIG    1        1.134   2.083   0.662  0.00  0.00    +0.400 HD
ATOM      3  C   LIG    1        0.210   0.292   0.628  0.00  0.00    +0.710 C 
ATOM      4  N   LIG    1       -1.009   0.772   0.944  0.00  0.00    -0.670 N 
ATOM      5  H   LIG    1       -1.121   1.715   1.145  0.00  0.00    +0.410 HD
ATOM      6  O   LIG    1        0.364  -0.900   0.441  0.00  0.00    -0.560 OA
ENDROOT
BRANCH   4   7
ATOM      7  C   LIG    1       -2.110  -0.086   0.984  0.00  0.00    +0.160 A 
ATOM      8  C   LIG    1       -2.096  -1.270   0.276  0.00  0.00    +0.040 A 
ATOM      9  C   LIG    1       -3.187  -2.134   0.313  0.00  0.00    +0.040 A 
ATOM     10  C   LIG    1       -4.301  -1.834   1.038  0.00  0.00    +0.030 A 
ATOM     11  C   LIG    1       -4.356  -0.636   1.768  0.00  0.00    -0.090 A 
ATOM     12  C   LIG    1       -5.481  -0.281   2.530  0.00  0.00    +0.320 A 
ATOM     13  N   LIG    1       -5.489   0.850   3.197  0.00  0.00    -0.490 NA
ATOM     14  C   LIG    1       -4.467   1.694   3.189  0.00  0.00    +0.230 A 
ATOM     15  C   LIG    1       -3.331   1.441   2.481  0.00  0.00    -0.030 A 
ATOM     16  C   LIG    1       -3.248   0.250   1.742  0.00  0.00    -0.040 A 
ENDBRANCH   4   7
BRANCH   1  17
ATOM     17  C   LIG    1        2.580   0.611   0.163  0.00  0.00    +0.420 C 
BRANCH  17  23
ATOM     18  C   LIG    1        6.367   3.929   2.730  0.00  0.00    +0.080 C 
ATOM     19  C   LIG    1        6.022   4.080   1.271  0.00  0.00    -0.080 A 
ATOM     20  C   LIG    1        5.085   3.240   0.686  0.00  0.00    +0.060 A 
ATOM     21  C   LIG    1        4.767   3.386  -0.675  0.00  0.00    +0.050 A 
ATOM     22  N   LIG    1        3.839   2.440  -0.969  0.00  0.00    -0.470 NA
ATOM     23  C   LIG    1        3.568   1.747   0.099  0.00  0.00    +0.250 A 
ATOM     24  C   LIG    1        5.402   4.379  -1.426  0.00  0.00    +0.070 A 
ATOM     25  C   LIG    1        6.322   5.197  -0.833  0.00  0.00    +0.010 A 
ATOM     26  N   LIG    1        4.309   2.195   1.148  0.00  0.00    -0.480 N 
ATOM     27  C   LIG    1        4.289   1.667   2.514  0.00  0.00    +0.330 C 
ATOM     28  C   LIG    1        6.636   5.053   0.511  0.00  0.00    +0.030 A 
ENDBRANCH  17  23
ENDBRANCH   1  17
TORSDOF 3
