REMARK  Name = ZINCvU0000000D80.0
REMARK                            x       y       z     vdW  Elec       q    Type
REMARK                         _______ _______ _______ _____ _____    ______ ____
ROOT
ATOM      1  N   LIG    1       -5.660   5.293  -1.273  0.00  0.00    -0.590 N 
ATOM      2  C   LIG    1       -5.700   4.599  -2.427  0.00  0.00    +0.550 C 
ATOM      3  O   LIG    1       -6.587   3.789  -2.619  0.00  0.00    -0.490 OA
ATOM      4  C   LIG    1       -6.668   5.052  -0.237  0.00  0.00    +0.310 C 
ENDROOT
BRANCH   2   5
ATOM      5  C   LIG    1       -4.670   4.821  -3.458  0.00  0.00    -0.080 A 
ATOM      6  C   LIG    1       -3.353   5.103  -3.086  0.00  0.00    +0.020 A 
ATOM      7  C   LIG    1       -2.393   5.304  -4.053  0.00  0.00    +0.050 A 
ATOM      8  C   LIG    1       -2.729   5.241  -5.397  0.00  0.00    +0.040 A 
ATOM      9  C   LIG    1       -4.026   4.970  -5.781  0.00  0.00    +0.090 A 
ATOM     10  C   LIG    1       -5.007   4.758  -4.819  0.00  0.00    -0.100 A 
BRANCH  10  11
ATOM     11  S   LIG    1       -6.664   4.410  -5.306  0.00  0.00    +0.050 S 
BRANCH  11  12
ATOM     12  C   LIG    1       -7.486   5.946  -5.039  0.00  0.00    -0.050 A 
ATOM     13  C   LIG    1       -6.762   7.068  -4.659  0.00  0.00    +0.000 A 
ATOM     14  C   LIG    1       -7.408   8.270  -4.450  0.00  0.00    +0.060 A 
ATOM     15  C   LIG    1       -8.780   8.367  -4.617  0.00  0.00    +0.010 A 
ATOM     16  C   LIG    1       -9.516   7.264  -4.993  0.00  0.00    +0.090 A 
ATOM     17  C   LIG    1       -8.876   6.042  -5.215  0.00  0.00    -0.010 A 
BRANCH  17  18
ATOM     18  C   LIG    1       -9.634   4.894  -5.612  0.00  0.00    +0.240 C 
ATOM     19  N   LIG    1      -10.235   3.983  -5.928  0.00  0.00    -0.400 NA
ENDBRANCH  17  18
ENDBRANCH  11  12
ENDBRANCH  10  11
ENDBRANCH   2   5
BRANCH   1  20
ATOM     20  C   LIG    1       -4.608   6.290  -1.054  0.00  0.00    +0.300 C 
BRANCH  20  23
ATOM     21  N   LIG    1       -2.497   6.468   0.222  0.00  0.00    -0.670 N 
ATOM     22  H   LIG    1       -2.403   7.371  -0.119  0.00  0.00    +0.410 HD
ATOM     23  C   LIG    1       -3.566   5.724  -0.124  0.00  0.00    +0.480 C 
ATOM     24  O   LIG    1       -3.690   4.599   0.313  0.00  0.00    -0.490 OA
BRANCH  21  32
ATOM     25  C   LIG    1       -1.561   3.829  -0.285  0.00  0.00    +0.090 C 
ATOM     26  C   LIG    1       -1.037   4.653   0.863  0.00  0.00    -0.070 A 
ATOM     27  C   LIG    1       -0.078   4.130   1.708  0.00  0.00    +0.020 A 
ATOM     28  C   LIG    1        0.407   4.888   2.758  0.00  0.00    +0.010 A 
ATOM     29  C   LIG    1       -0.070   6.169   2.969  0.00  0.00    +0.020 A 
ATOM     30  C   LIG    1       -1.033   6.696   2.130  0.00  0.00    -0.100 A 
ATOM     31  C   LIG    1       -1.552   8.091   2.360  0.00  0.00    +0.080 C 
ATOM     32  C   LIG    1       -1.522   5.937   1.074  0.00  0.00    +0.130 A 
ENDBRANCH  21  32
ENDBRANCH  20  23
ENDBRANCH   1  20
TORSDOF 7
