REMARK  Name = ZINCrD00000hQ4Vk.0
REMARK                            x       y       z     vdW  Elec       q    Type
REMARK                         _______ _______ _______ _____ _____    ______ ____
ROOT
ATOM      1  C   LIG    1       -2.863  -2.089  -0.687  0.00  0.00    -0.310 A 
ATOM      2  C   LIG    1       -1.633  -1.520  -1.006  0.00  0.00    +0.500 A 
ATOM      3  N   LIG    1       -1.201  -0.722   0.010  0.00  0.00    -0.440 N 
ATOM      4  C   LIG    1       -2.109  -0.722   1.052  0.00  0.00    +0.290 A 
ATOM      5  N   LIG    1       -2.142  -0.127   2.225  0.00  0.00    -0.430 NA
ATOM      6  C   LIG    1       -3.184  -0.324   3.043  0.00  0.00    +0.100 A 
ATOM      7  C   LIG    1       -3.227   0.307   4.300  0.00  0.00    +0.060 A 
ATOM      8  C   LIG    1       -4.289   0.101   5.125  0.00  0.00    +0.040 A 
ATOM      9  C   LIG    1       -5.341  -0.729   4.745  0.00  0.00    +0.040 A 
ATOM     10  C   LIG    1       -5.335  -1.357   3.538  0.00  0.00    +0.060 A 
ATOM     11  C   LIG    1       -4.254  -1.169   2.657  0.00  0.00    +0.090 A 
ATOM     12  N   LIG    1       -4.242  -1.775   1.463  0.00  0.00    -0.420 NA
ATOM     13  C   LIG    1       -3.219  -1.592   0.653  0.00  0.00    +0.180 A 
ENDROOT
BRANCH   3  14
ATOM     14  C   LIG    1        0.002  -0.004   0.002  0.00  0.00    +0.140 A 
ATOM     15  C   LIG    1       -0.017   1.384   0.010  0.00  0.00    +0.000 A 
ATOM     16  C   LIG    1        1.170   2.092   0.002  0.00  0.00    +0.080 A 
ATOM     17  C   LIG    1        2.377   1.421  -0.013  0.00  0.00    -0.050 A 
ATOM     18  C   LIG    1        2.402   0.034  -0.021  0.00  0.00    +0.140 A 
ATOM     19  C   LIG    1        1.214  -0.680  -0.013  0.00  0.00    -0.010 A 
BRANCH  18  20
ATOM     20  O   LIG    1        3.591  -0.625  -0.036  0.00  0.00    -0.310 OA
ATOM     21  C   LIG    1        4.775   0.174  -0.043  0.00  0.00    +0.250 C 
ENDBRANCH  18  20
ENDBRANCH   3  14
BRANCH   2  22
ATOM     22  N   LIG    1       -0.954  -1.733  -2.176  0.00  0.00    -0.820 N 
ATOM     23  H   LIG    1       -1.328  -2.317  -2.855  0.00  0.00    +0.430 HD
ATOM     24  H   LIG    1       -0.100  -1.300  -2.327  0.00  0.00    +0.410 HD
ENDBRANCH   2  22
BRANCH   1  25
ATOM     25  C   LIG    1       -3.623  -2.972  -1.492  0.00  0.00    +0.570 C 
ATOM     26  O   LIG    1       -3.456  -4.174  -1.402  0.00  0.00    -0.490 OA
BRANCH  25  27
ATOM     27  O   LIG    1       -4.532  -2.480  -2.360  0.00  0.00    -0.350 OA
BRANCH  27  29
ATOM     28  C   LIG    1       -6.238  -2.689  -4.059  0.00  0.00    +0.070 C 
ATOM     29  C   LIG    1       -5.263  -3.428  -3.140  0.00  0.00    +0.200 C 
ENDBRANCH  27  29
ENDBRANCH  25  27
ENDBRANCH   1  25
TORSDOF 6
