REMARK  Name = ZINCrH000004pitY.0
REMARK                            x       y       z     vdW  Elec       q    Type
REMARK                         _______ _______ _______ _____ _____    ______ ____
ROOT
ATOM      1  N   LIG    1       -1.372  -0.511   0.012  0.00  0.00    -0.730 N 
ATOM      2  H   LIG    1       -1.794  -0.752   0.852  0.00  0.00    +0.400 HD
ATOM      3  C   LIG    1       -2.051  -0.643  -1.145  0.00  0.00    +0.520 C 
ATOM      4  O   LIG    1       -1.524  -0.341  -2.194  0.00  0.00    -0.520 OA
ENDROOT
BRANCH   1   6
ATOM      5  C   LIG    1       -0.019   1.526   0.010  0.00  0.00    +0.040 C 
ATOM      6  C   LIG    1        0.002  -0.004   0.002  0.00  0.00    +0.280 C 
BRANCH   6   7
ATOM      7  C   LIG    1        0.731  -0.503   1.223  0.00  0.00    -0.100 A 
ATOM      8  C   LIG    1        0.083  -0.547   2.444  0.00  0.00    +0.040 A 
ATOM      9  C   LIG    1        0.747  -1.009   3.563  0.00  0.00    +0.010 A 
ATOM     10  C   LIG    1        2.069  -1.419   3.465  0.00  0.00    +0.150 A 
ATOM     11  C   LIG    1        2.719  -1.369   2.239  0.00  0.00    +0.030 A 
ATOM     12  C   LIG    1        2.048  -0.911   1.121  0.00  0.00    +0.060 A 
BRANCH  10  13
ATOM     13  N   LIG    1        2.747  -1.884   4.600  0.00  0.00    -0.330 N 
ATOM     14  C   LIG    1        2.255  -1.985   5.850  0.00  0.00    +0.480 A 
ATOM     15  N   LIG    1        3.198  -2.463   6.620  0.00  0.00    -0.530 NA
ATOM     16  C   LIG    1        4.303  -2.671   5.905  0.00  0.00    +0.440 A 
ATOM     17  N   LIG    1        4.077  -2.332   4.663  0.00  0.00    -0.310 NA
ENDBRANCH  10  13
ENDBRANCH   6   7
ENDBRANCH   1   6
BRANCH   3  18
ATOM     18  C   LIG    1       -3.465  -1.164  -1.134  0.00  0.00    +0.120 C 
BRANCH  18  19
ATOM     19  C   LIG    1       -3.992  -1.214  -2.545  0.00  0.00    -0.070 A 
ATOM     20  C   LIG    1       -4.651  -0.121  -3.075  0.00  0.00    +0.060 A 
ATOM     21  C   LIG    1       -5.131  -0.166  -4.371  0.00  0.00    +0.020 A 
ATOM     22  C   LIG    1       -4.961  -1.307  -5.132  0.00  0.00    +0.070 A 
ATOM     23  C   LIG    1       -4.306  -2.402  -4.600  0.00  0.00    -0.180 A 
ATOM     24  C   LIG    1       -3.822  -2.356  -3.306  0.00  0.00    +0.070 A 
BRANCH  23  25
ATOM     25  C   LIG    1       -4.121  -3.646  -5.430  0.00  0.00    +0.510 C 
ATOM     26  F   LIG    1       -2.946  -4.297  -5.039  0.00  0.00    -0.180 F 
ATOM     27  F   LIG    1       -4.032  -3.296  -6.782  0.00  0.00    -0.180 F 
ATOM     28  F   LIG    1       -5.213  -4.500  -5.240  0.00  0.00    -0.180 F 
ENDBRANCH  23  25
ENDBRANCH  18  19
ENDBRANCH   3  18
TORSDOF 6
