REMARK  Name = ZINCqH0000006WWy.2
REMARK                            x       y       z     vdW  Elec       q    Type
REMARK                         _______ _______ _______ _____ _____    ______ ____
ROOT
ATOM      1  C   LIG    1        4.839   8.578   3.991  0.00  0.00    +0.100 A 
ATOM      2  C   LIG    1        4.460   8.839   2.687  0.00  0.00    -0.040 A 
ATOM      3  C   LIG    1        5.025   8.130   1.637  0.00  0.00    -0.070 A 
ATOM      4  C   LIG    1        5.971   7.160   1.891  0.00  0.00    -0.110 A 
ATOM      5  C   LIG    1        6.616   6.370   0.782  0.00  0.00    +0.270 C 
ATOM      6  N   LIG    1        5.827   6.474  -0.449  0.00  0.00    -0.530 NA
ATOM      7  C   LIG    1        5.578   7.887  -0.776  0.00  0.00    +0.220 C 
ATOM      8  C   LIG    1        6.353   6.894   3.198  0.00  0.00    -0.030 A 
ATOM      9  C   LIG    1        4.576   8.449   0.233  0.00  0.00    +0.040 C 
ATOM     10  C   LIG    1        5.792   7.597   4.249  0.00  0.00    +0.100 A 
ENDROOT
BRANCH   1  12
ATOM     11  C   LIG    1        3.311  10.267   4.676  0.00  0.00    +0.230 C 
ATOM     12  O   LIG    1        4.282   9.276   5.017  0.00  0.00    -0.310 OA
ENDBRANCH   1  12
BRANCH  10  13
ATOM     13  O   LIG    1        6.170   7.331   5.528  0.00  0.00    -0.310 OA
ATOM     14  C   LIG    1        7.153   6.310   5.715  0.00  0.00    +0.240 C 
ENDBRANCH  10  13
BRANCH   6  15
ATOM     15  C   LIG    1        4.565   5.731  -0.330  0.00  0.00    +0.200 C 
BRANCH  15  16
ATOM     16  C   LIG    1        4.862   4.232  -0.238  0.00  0.00    +0.070 C 
BRANCH  16  17
ATOM     17  C   LIG    1        3.568   3.470  -0.116  0.00  0.00    +0.520 C 
ATOM     18  N   LIG    1        3.584   2.126  -0.021  0.00  0.00    -0.670 N 
ATOM     19  H   LIG    1        4.429   1.655   0.049  0.00  0.00    +0.410 HD
ATOM     20  O   LIG    1        2.512   4.066  -0.103  0.00  0.00    -0.510 OA
BRANCH  18  21
ATOM     21  C   LIG    1        2.381   1.410  -0.024  0.00  0.00    +0.160 A 
ATOM     22  C   LIG    1        1.250   1.952  -0.618  0.00  0.00    +0.030 A 
ATOM     23  C   LIG    1        0.065   1.242  -0.620  0.00  0.00    +0.040 A 
ATOM     24  C   LIG    1        0.004  -0.007  -0.031  0.00  0.00    +0.000 A 
ATOM     25  C   LIG    1        1.128  -0.551   0.562  0.00  0.00    +0.050 A 
ATOM     26  C   LIG    1        2.317   0.154   0.568  0.00  0.00    -0.070 A 
ATOM     27 CL   LIG    1        3.729  -0.530   1.312  0.00  0.00    -0.070 Cl
ENDBRANCH  18  21
ENDBRANCH  16  17
ENDBRANCH  15  16
ENDBRANCH   6  15
TORSDOF 6
