REMARK  Name = ZINCvU00000006dR.0
REMARK                            x       y       z     vdW  Elec       q    Type
REMARK                         _______ _______ _______ _____ _____    ______ ____
ROOT
ATOM      1  C   LIG    1       -2.458   0.797   0.018  0.00  0.00    +0.120 C 
ATOM      2  C   LIG    1       -2.962   0.636  -1.417  0.00  0.00    +0.090 C 
ENDROOT
BRANCH   1   3
ATOM      3  C   LIG    1       -1.188   1.610   0.017  0.00  0.00    +0.470 A 
ATOM      4  N   LIG    1       -1.277   2.910   0.029  0.00  0.00    -0.560 NA
ATOM      5  C   LIG    1       -0.181   3.687   0.023  0.00  0.00    +0.540 A 
ATOM      6  C   LIG    1        1.146   3.042   0.007  0.00  0.00    -0.210 A 
ATOM      7  C   LIG    1        1.180   1.660  -0.000  0.00  0.00    +0.060 A 
ATOM      8  S   LIG    1        2.845   1.098  -0.019  0.00  0.00    +0.210 S 
ATOM      9  C   LIG    1        3.472   2.736  -0.016  0.00  0.00    -0.010 A 
ATOM     10  C   LIG    1        2.480   3.629  -0.003  0.00  0.00    +0.040 A 
ATOM     11  O   LIG    1       -0.281   4.903   0.029  0.00  0.00    -0.460 OA
ATOM     12  N   LIG    1       -0.011   0.966   0.007  0.00  0.00    -0.580 N 
ATOM     13  H   LIG    1        0.002  -0.004   0.002  0.00  0.00    +0.420 HD
BRANCH  10  14
ATOM     14  C   LIG    1        2.714   5.087   0.002  0.00  0.00    +0.040 A 
ATOM     15  C   LIG    1        3.544   5.759   0.844  0.00  0.00    -0.030 A 
ATOM     16  C   LIG    1        3.461   7.123   0.494  0.00  0.00    -0.070 A 
ATOM     17  C   LIG    1        2.589   7.215  -0.528  0.00  0.00    +0.180 A 
ATOM     18  O   LIG    1        2.139   5.983  -0.823  0.00  0.00    -0.150 OA
ENDBRANCH  10  14
ENDBRANCH   1   3
BRANCH   1  19
ATOM     19  S   LIG    1       -2.129  -0.835   0.729  0.00  0.00    -0.000 S 
BRANCH  19  24
ATOM     20  C   LIG    1       -7.333  -1.349   0.149  0.00  0.00    +0.140 C 
ATOM     21  C   LIG    1       -5.906  -1.685   0.500  0.00  0.00    +0.020 A 
ATOM     22  C   LIG    1       -5.479  -2.842   1.034  0.00  0.00    -0.010 A 
ATOM     23  N   LIG    1       -4.116  -2.731   1.196  0.00  0.00    -0.430 N 
ATOM     24  C   LIG    1       -3.762  -1.495   0.749  0.00  0.00    +0.210 A 
ATOM     25  C   LIG    1       -6.330  -4.035   1.387  0.00  0.00    +0.140 C 
ATOM     26  N   LIG    1       -4.846  -0.876   0.340  0.00  0.00    -0.480 NA
BRANCH  23  27
ATOM     27  C   LIG    1       -3.217  -3.749   1.744  0.00  0.00    +0.310 C 
BRANCH  27  28
ATOM     28  C   LIG    1       -3.105  -3.568   3.259  0.00  0.00    +0.140 C 
ATOM     29  C   LIG    1       -2.231  -4.691   3.872  0.00  0.00    +0.020 C 
ATOM     30  C   LIG    1       -1.726  -3.997   5.167  0.00  0.00    +0.020 C 
ATOM     31  C   LIG    1       -1.589  -2.526   4.720  0.00  0.00    +0.190 C 
ATOM     32  O   LIG    1       -2.417  -2.345   3.565  0.00  0.00    -0.360 OA
ENDBRANCH  27  28
ENDBRANCH  23  27
ENDBRANCH  19  24
ENDBRANCH   1  19
TORSDOF 6
