REMARK  Name = ZINCpe000000PsDZ.0
REMARK                            x       y       z     vdW  Elec       q    Type
REMARK                         _______ _______ _______ _____ _____    ______ ____
ROOT
ATOM      1  N   LIG    1       -2.979   0.827   1.397  0.00  0.00    -0.740 N 
ATOM      2  H   LIG    1       -2.466   1.199   2.131  0.00  0.00    +0.400 HD
ATOM      3  C   LIG    1       -4.129   0.169   1.645  0.00  0.00    +0.710 C 
ATOM      4  N   LIG    1       -4.514  -0.061   2.916  0.00  0.00    -0.630 N 
ATOM      5  C   LIG    1       -3.749   0.493   4.041  0.00  0.00    +0.260 C 
ATOM      6  C   LIG    1       -4.709   1.281   4.945  0.00  0.00    +0.020 C 
ATOM      7  C   LIG    1       -5.870   0.374   5.360  0.00  0.00    +0.020 C 
ATOM      8  C   LIG    1       -6.639  -0.075   4.116  0.00  0.00    +0.280 C 
ATOM      9  C   LIG    1       -5.703  -0.874   3.203  0.00  0.00    +0.290 C 
ATOM     10  O   LIG    1       -4.819  -0.218   0.722  0.00  0.00    -0.580 OA
ENDROOT
BRANCH   8  11
ATOM     11  N   LIG    1       -7.768  -0.918   4.516  0.00  0.00    -0.980 NA
ATOM     12  C   LIG    1       -7.683  -2.180   5.255  0.00  0.00    +0.240 C 
ATOM     13  C   LIG    1       -9.047  -2.807   5.562  0.00  0.00    +0.090 C 
ATOM     14  C   LIG    1      -10.010  -2.324   4.440  0.00  0.00    -0.310 C 
ATOM     15  S   LIG    1       -9.385  -0.607   4.219  0.00  0.00    +2.560 S 
ATOM     16  O   LIG    1       -9.447  -0.203   2.858  0.00  0.00    -0.950 OA
ATOM     17  O   LIG    1       -9.806   0.243   5.277  0.00  0.00    -0.950 OA
ENDBRANCH   8  11
BRANCH   1  18
ATOM     18  C   LIG    1       -2.506   0.981   0.019  0.00  0.00    +0.370 C 
BRANCH  18  23
ATOM     19  C   LIG    1       -0.120   3.782   0.024  0.00  0.00    +0.320 A 
ATOM     20  C   LIG    1        1.121   3.159   0.008  0.00  0.00    -0.040 A 
ATOM     21  C   LIG    1        1.180   1.776  -0.002  0.00  0.00    +0.110 A 
ATOM     22  C   LIG    1       -0.011   1.063   0.006  0.00  0.00    -0.050 A 
ATOM     23  C   LIG    1       -1.209   1.749   0.017  0.00  0.00    +0.140 A 
ATOM     24  N   LIG    1       -1.233   3.068   0.031  0.00  0.00    -0.530 NA
BRANCH  19  26
ATOM     25  C   LIG    1       -1.496   5.718   0.050  0.00  0.00    +0.260 C 
ATOM     26  O   LIG    1       -0.191   5.137   0.033  0.00  0.00    -0.310 OA
ENDBRANCH  19  26
ENDBRANCH  18  23
ENDBRANCH   1  18
TORSDOF 4
