REMARK  Name = ZINCpe00000MJLPA.0
REMARK                            x       y       z     vdW  Elec       q    Type
REMARK                         _______ _______ _______ _____ _____    ______ ____
ROOT
ATOM      1  C   LIG    1        1.370  -0.504  -0.467  0.00  0.00    +0.210 C 
ATOM      2  O   LIG    1        2.139   0.437   0.291  0.00  0.00    -0.340 OA
ATOM      3  C   LIG    1        1.883   1.794  -0.078  0.00  0.00    +0.300 C 
ATOM      4  C   LIG    1        0.400   2.043  -0.102  0.00  0.00    +0.500 C 
ATOM      5  N   LIG    1       -0.494   1.047  -0.120  0.00  0.00    -0.610 N 
ATOM      6  C   LIG    1       -1.918   1.380  -0.191  0.00  0.00    +0.290 C 
ATOM      7  O   LIG    1       -0.000   3.188  -0.106  0.00  0.00    -0.530 OA
ATOM      8  C   LIG    1       -0.103  -0.360  -0.077  0.00  0.00    +0.280 C 
ENDROOT
BRANCH   8   9
ATOM      9  C   LIG    1       -0.953  -1.146  -1.041  0.00  0.00    -0.130 A 
ATOM     10  C   LIG    1       -1.275  -0.610  -2.274  0.00  0.00    +0.040 A 
ATOM     11  C   LIG    1       -2.051  -1.332  -3.161  0.00  0.00    +0.000 A 
ATOM     12  C   LIG    1       -2.514  -2.587  -2.811  0.00  0.00    +0.030 A 
ATOM     13  C   LIG    1       -2.197  -3.121  -1.576  0.00  0.00    +0.010 A 
ATOM     14  C   LIG    1       -1.416  -2.400  -0.691  0.00  0.00    +0.030 A 
ENDBRANCH   8   9
BRANCH   1  17
ATOM     15  N   LIG    1        1.234  -1.181  -2.842  0.00  0.00    -0.710 N 
ATOM     16  H   LIG    1        0.914  -2.047  -2.545  0.00  0.00    +0.400 HD
ATOM     17  C   LIG    1        1.533  -0.227  -1.939  0.00  0.00    +0.500 C 
ATOM     18  O   LIG    1        1.932   0.856  -2.311  0.00  0.00    -0.520 OA
BRANCH  15  19
ATOM     19  C   LIG    1        1.392  -0.911  -4.273  0.00  0.00    +0.280 C 
BRANCH  19  20
ATOM     20  C   LIG    1        0.988  -2.151  -5.074  0.00  0.00    +0.080 C 
BRANCH  20  22
ATOM     21  C   LIG    1        1.901  -2.676  -7.296  0.00  0.00    -0.050 C 
ATOM     22  C   LIG    1        1.151  -1.873  -6.546  0.00  0.00    +0.080 C 
BRANCH  21  23
ATOM     23  C   LIG    1        2.060  -2.405  -8.732  0.00  0.00    +0.490 C 
ATOM     24  O   LIG    1        1.506  -1.448  -9.234  0.00  0.00    -0.510 OA
BRANCH  23  26
ATOM     25  C   LIG    1        2.932  -2.890 -10.901  0.00  0.00    +0.260 C 
ATOM     26  O   LIG    1        2.820  -3.219  -9.491  0.00  0.00    -0.360 OA
ENDBRANCH  23  26
ENDBRANCH  21  23
ENDBRANCH  20  22
ENDBRANCH  19  20
ENDBRANCH  15  19
ENDBRANCH   1  17
TORSDOF 7
