REMARK  Name = ZINCrH000004phOj.0
REMARK                            x       y       z     vdW  Elec       q    Type
REMARK                         _______ _______ _______ _____ _____    ______ ____
ROOT
ATOM      1  N   LIG    1       -2.867   2.970   1.699  0.00  0.00    -0.720 N 
ATOM      2  H   LIG    1       -3.418   3.287   0.966  0.00  0.00    +0.410 HD
ATOM      3  C   LIG    1       -1.718   2.314   1.444  0.00  0.00    +0.500 C 
ATOM      4  O   LIG    1       -1.029   1.919   2.360  0.00  0.00    -0.520 OA
ENDROOT
BRANCH   1   6
ATOM      5  C   LIG    1       -2.614   4.476   3.610  0.00  0.00    +0.060 C 
ATOM      6  C   LIG    1       -3.285   3.205   3.083  0.00  0.00    +0.350 C 
BRANCH   6   7
ATOM      7  C   LIG    1       -4.782   3.368   3.136  0.00  0.00    +0.020 A 
ATOM      8  C   LIG    1       -5.576   2.862   4.089  0.00  0.00    -0.020 A 
ATOM      9  C   LIG    1       -6.943   3.267   3.741  0.00  0.00    -0.130 A 
ATOM     10  C   LIG    1       -8.196   3.066   4.318  0.00  0.00    +0.060 A 
ATOM     11  C   LIG    1       -9.316   3.595   3.715  0.00  0.00    +0.000 A 
ATOM     12  C   LIG    1       -9.199   4.324   2.540  0.00  0.00    +0.050 A 
ATOM     13  C   LIG    1       -7.966   4.531   1.960  0.00  0.00    +0.020 A 
ATOM     14  C   LIG    1       -6.824   4.006   2.551  0.00  0.00    +0.060 A 
ATOM     15  O   LIG    1       -5.515   4.039   2.230  0.00  0.00    -0.190 OA
ENDBRANCH   6   7
ENDBRANCH   1   6
BRANCH   3  16
ATOM     16  C   LIG    1       -1.288   2.073   0.019  0.00  0.00    +0.340 C 
BRANCH  16  17
ATOM     17  N   LIG    1       -0.016   1.347   0.009  0.00  0.00    -0.530 N 
ATOM     18  C   LIG    1        0.002  -0.004   0.002  0.00  0.00    +0.500 C 
ATOM     19  C   LIG    1        1.321  -0.734   0.024  0.00  0.00    +0.310 C 
ATOM     20  O   LIG    1        2.312   0.043  -0.651  0.00  0.00    -0.300 OA
ATOM     21  C   LIG    1        2.372   1.365  -0.337  0.00  0.00    +0.090 A 
ATOM     22  C   LIG    1        3.580   2.039  -0.348  0.00  0.00    +0.070 A 
ATOM     23  C   LIG    1        3.622   3.385  -0.024  0.00  0.00    -0.090 A 
ATOM     24  C   LIG    1        2.460   4.057   0.311  0.00  0.00    +0.060 A 
ATOM     25  C   LIG    1        1.249   3.388   0.325  0.00  0.00    +0.030 A 
ATOM     26 BR   LIG    1        5.272   4.306  -0.040  0.00  0.00    -0.030 Br
ATOM     27  O   LIG    1       -1.038  -0.627  -0.023  0.00  0.00    -0.500 OA
ATOM     28  C   LIG    1        1.201   2.043   0.002  0.00  0.00    +0.120 A 
ENDBRANCH  16  17
ENDBRANCH   3  16
TORSDOF 4
