REMARK  Name = ZINCpe000000WXbQ.0
REMARK                            x       y       z     vdW  Elec       q    Type
REMARK                         _______ _______ _______ _____ _____    ______ ____
ROOT
ATOM      1  N   LIG    1        6.618   2.426  -1.719  0.00  0.00    -0.720 N 
ATOM      2  H   LIG    1        7.252   2.351  -0.989  0.00  0.00    +0.410 HD
ATOM      3  C   LIG    1        5.304   2.572  -1.459  0.00  0.00    +0.500 C 
ATOM      4  O   LIG    1        4.511   2.665  -2.372  0.00  0.00    -0.530 OA
ENDROOT
BRANCH   1   5
ATOM      5  C   LIG    1        7.089   2.379  -3.106  0.00  0.00    +0.290 C 
BRANCH   5   6
ATOM      6  C   LIG    1        8.609   2.208  -3.123  0.00  0.00    +0.180 C 
BRANCH   6   7
ATOM      7  O   LIG    1        8.952   0.938  -2.564  0.00  0.00    -0.380 OA
BRANCH   7  14
ATOM      8  C   LIG    1       10.261   0.462  -0.045  0.00  0.00    +0.020 C 
ATOM      9  C   LIG    1       10.680  -0.230  -1.343  0.00  0.00    -0.010 C 
ATOM     10  C   LIG    1       12.184  -0.509  -1.309  0.00  0.00    +0.020 C 
ATOM     11  C   LIG    1       12.604  -1.201  -2.608  0.00  0.00    +0.000 C 
ATOM     12  C   LIG    1       12.280  -0.294  -3.796  0.00  0.00    +0.010 C 
ATOM     13  C   LIG    1       10.776  -0.014  -3.830  0.00  0.00    -0.010 C 
ATOM     14  C   LIG    1       10.357   0.677  -2.532  0.00  0.00    +0.160 C 
ENDBRANCH   7  14
ENDBRANCH   6   7
ENDBRANCH   5   6
ENDBRANCH   1   5
BRANCH   3  15
ATOM     15  C   LIG    1        4.819   2.620  -0.033  0.00  0.00    +0.340 C 
BRANCH  15  16
ATOM     16  N   LIG    1        3.363   2.784  -0.016  0.00  0.00    -0.530 N 
ATOM     17  C   LIG    1        2.823   4.029  -0.004  0.00  0.00    +0.630 A 
ATOM     18  N   LIG    1        1.541   4.245   0.009  0.00  0.00    -0.530 NA
ATOM     19  C   LIG    1        0.652   3.240   0.013  0.00  0.00    +0.330 A 
ATOM     20  C   LIG    1        1.117   1.915   0.002  0.00  0.00    -0.340 A 
ATOM     21  C   LIG    1       -0.013   1.076   0.008  0.00  0.00    +0.330 A 
ATOM     22  N   LIG    1       -1.080   1.825   0.017  0.00  0.00    -0.270 NA
ATOM     23  N   LIG    1       -0.705   3.174   0.026  0.00  0.00    -0.350 N 
ATOM     24  C   LIG    1       -1.619   4.319   0.041  0.00  0.00    +0.370 C 
ATOM     25  C   LIG    1        2.563   1.692  -0.014  0.00  0.00    +0.580 A 
ATOM     26  O   LIG    1        3.029   0.567  -0.025  0.00  0.00    -0.510 OA
ENDBRANCH  15  16
ENDBRANCH   3  15
TORSDOF 6
