REMARK  Name = ZINCvU000000064Q.0
REMARK                            x       y       z     vdW  Elec       q    Type
REMARK                         _______ _______ _______ _____ _____    ______ ____
ROOT
ATOM      1  C   LIG    1        4.118  -0.286  -0.726  0.00  0.00    +0.520 C 
ATOM      2  N   LIG    1        3.268   0.742  -0.536  0.00  0.00    -0.610 N 
ATOM      3  H   LIG    1        3.612   1.641  -0.420  0.00  0.00    +0.430 HD
ATOM      4  O   LIG    1        3.687  -1.411  -0.871  0.00  0.00    -0.490 OA
ENDROOT
BRANCH   2   5
ATOM      5  C   LIG    1        1.897   0.514  -0.505  0.00  0.00    +0.270 A 
ATOM      6  N   LIG    1        0.990   1.423  -0.330  0.00  0.00    -0.490 NA
ATOM      7  C   LIG    1       -0.273   1.021  -0.329  0.00  0.00    +0.140 A 
ATOM      8  C   LIG    1       -0.458  -0.299  -0.514  0.00  0.00    -0.100 A 
ATOM      9  S   LIG    1        1.122  -1.056  -0.699  0.00  0.00    +0.200 S 
BRANCH   7  10
ATOM     10  C   LIG    1       -1.405   1.962  -0.144  0.00  0.00    -0.030 A 
ATOM     11  C   LIG    1       -2.434   2.011  -1.083  0.00  0.00    -0.060 A 
ATOM     12  C   LIG    1       -3.487   2.885  -0.902  0.00  0.00    -0.010 A 
ATOM     13  C   LIG    1       -3.517   3.718   0.202  0.00  0.00    -0.070 A 
ATOM     14  C   LIG    1       -2.495   3.677   1.133  0.00  0.00    -0.010 A 
ATOM     15  C   LIG    1       -4.666   4.674   0.389  0.00  0.00    +0.090 C 
ATOM     16  C   LIG    1       -2.399   1.109  -2.289  0.00  0.00    +0.090 C 
ATOM     17  C   LIG    1       -1.440   2.804   0.966  0.00  0.00    -0.050 A 
ATOM     18  C   LIG    1       -0.328   2.760   1.982  0.00  0.00    +0.090 C 
ENDBRANCH   7  10
ENDBRANCH   2   5
BRANCH   1  19
ATOM     19  C   LIG    1        5.604  -0.039  -0.759  0.00  0.00    +0.270 C 
BRANCH  19  20
ATOM     20  N   LIG    1        6.306  -1.306  -0.978  0.00  0.00    -0.710 N 
ATOM     21  H   LIG    1        5.854  -2.040  -1.423  0.00  0.00    +0.410 HD
ATOM     22  C   LIG    1        7.578  -1.453  -0.559  0.00  0.00    +0.570 C 
ATOM     23  O   LIG    1        8.144  -0.534  -0.001  0.00  0.00    -0.530 OA
BRANCH  22  24
ATOM     24  C   LIG    1        8.286  -2.732  -0.780  0.00  0.00    -0.140 A 
ATOM     25  C   LIG    1        7.637  -3.792  -1.416  0.00  0.00    +0.050 A 
ATOM     26  C   LIG    1        8.305  -4.981  -1.622  0.00  0.00    +0.000 A 
ATOM     27  C   LIG    1        9.611  -5.129  -1.192  0.00  0.00    +0.040 A 
ATOM     28  C   LIG    1       10.259  -4.084  -0.556  0.00  0.00    +0.000 A 
ATOM     29  C   LIG    1        9.604  -2.888  -0.348  0.00  0.00    +0.080 A 
ENDBRANCH  22  24
ENDBRANCH  19  20
BRANCH  19  30
ATOM     30  C   LIG    1        5.935   0.929  -1.896  0.00  0.00    +0.060 C 
BRANCH  30  31
ATOM     31  C   LIG    1        7.424   1.278  -1.853  0.00  0.00    +0.100 C 
BRANCH  31  33
ATOM     32  C   LIG    1        9.594   2.716  -2.986  0.00  0.00    +0.140 C 
ATOM     33  S   LIG    1        7.816   2.426  -3.201  0.00  0.00    -0.270 S 
ENDBRANCH  31  33
ENDBRANCH  30  31
ENDBRANCH  19  30
ENDBRANCH   1  19
TORSDOF 8
