REMARK  Name = ZINCpk00000KfKxN.0
REMARK                            x       y       z     vdW  Elec       q    Type
REMARK                         _______ _______ _______ _____ _____    ______ ____
ROOT
ATOM      1  O   LIG    1       -3.840   2.199   1.543  0.00  0.00    -0.520 OA
ATOM      2  C   LIG    1       -3.402   2.818   2.490  0.00  0.00    +0.510 C 
ATOM      3  N   LIG    1       -4.209   3.131   3.522  0.00  0.00    -0.610 N 
ATOM      4  C   LIG    1       -3.692   3.881   4.676  0.00  0.00    +0.270 C 
ATOM      5  C   LIG    1       -4.014   3.102   5.955  0.00  0.00    +0.040 C 
ATOM      6  C   LIG    1       -5.518   2.820   6.010  0.00  0.00    +0.030 C 
ATOM      7  C   LIG    1       -5.923   1.964   4.808  0.00  0.00    +0.260 C 
ATOM      8  C   LIG    1       -5.624   2.735   3.514  0.00  0.00    +0.290 C 
ENDROOT
BRANCH   7   9
ATOM      9  N   LIG    1       -7.356   1.667   4.880  0.00  0.00    -0.370 N 
ATOM     10  C   LIG    1       -8.362   2.441   4.438  0.00  0.00    +0.470 A 
ATOM     11  N   LIG    1       -9.488   1.824   4.686  0.00  0.00    -0.540 NA
ATOM     12  C   LIG    1       -9.243   0.658   5.282  0.00  0.00    +0.420 A 
ATOM     13  N   LIG    1       -7.951   0.515   5.418  0.00  0.00    -0.320 NA
ENDBRANCH   7   9
BRANCH   2  14
ATOM     14  C   LIG    1       -1.954   3.238   2.510  0.00  0.00    +0.330 C 
BRANCH  14  15
ATOM     15  N   LIG    1       -1.296   2.781   1.284  0.00  0.00    -0.540 N 
ATOM     16  C   LIG    1       -0.714   1.569   1.249  0.00  0.00    +0.530 C 
ATOM     17  C   LIG    1       -0.013   1.086   0.008  0.00  0.00    +0.090 C 
ATOM     18  C   LIG    1       -0.749   1.591  -1.234  0.00  0.00    +0.100 C 
ATOM     19  C   LIG    1       -1.015   3.067  -1.096  0.00  0.00    -0.120 A 
ATOM     20  C   LIG    1       -0.999   3.882  -2.210  0.00  0.00    +0.050 A 
ATOM     21  C   LIG    1       -1.245   5.237  -2.079  0.00  0.00    -0.010 A 
ATOM     22  C   LIG    1       -1.507   5.779  -0.835  0.00  0.00    +0.040 A 
ATOM     23  C   LIG    1       -1.524   4.968   0.284  0.00  0.00    -0.030 A 
ATOM     24  O   LIG    1       -0.752   0.859   2.231  0.00  0.00    -0.520 OA
ATOM     25  C   LIG    1       -1.278   3.608   0.156  0.00  0.00    +0.170 A 
ENDBRANCH  14  15
ENDBRANCH   2  14
TORSDOF 3
