REMARK  Name = ZINCbw0000001MV7.0
REMARK                            x       y       z     vdW  Elec       q    Type
REMARK                         _______ _______ _______ _____ _____    ______ ____
ROOT
ATOM      1  C   LIG    1       -0.013   1.086   0.008  0.00  0.00    +0.150 C 
ATOM      2  C   LIG    1       -0.718   1.572   1.248  0.00  0.00    +0.010 A 
ATOM      3  C   LIG    1       -2.085   1.795   1.243  0.00  0.00    +0.050 A 
ATOM      4  C   LIG    1       -2.703   2.240   2.411  0.00  0.00    +0.230 A 
ATOM      5  N   LIG    1       -1.992   2.457   3.511  0.00  0.00    -0.440 NA
ATOM      6  C   LIG    1       -0.690   2.259   3.542  0.00  0.00    +0.210 A 
ATOM      7 CL   LIG    1        0.188   2.560   5.009  0.00  0.00    +0.010 Cl
ATOM      8  C   LIG    1       -0.012   1.811   2.418  0.00  0.00    -0.120 A 
ATOM      9 BR   LIG    1        1.857   1.530   2.479  0.00  0.00    +0.010 Br
ENDROOT
BRANCH   4  10
ATOM     10  C   LIG    1       -4.117   2.469   2.423  0.00  0.00    +0.260 C 
ATOM     11  N   LIG    1       -5.238   2.651   2.433  0.00  0.00    -0.360 NA
ENDBRANCH   4  10
TORSDOF 1
