REMARK  Name = ZINCnE000001SOK8.1
REMARK                            x       y       z     vdW  Elec       q    Type
REMARK                         _______ _______ _______ _____ _____    ______ ____
ROOT
ATOM      1  O   LIG    1        1.130   2.871   0.007  0.00  0.00    -0.520 OA
ATOM      2  C   LIG    1        1.147   1.655   0.000  0.00  0.00    +0.570 C 
ATOM      3  N   LIG    1       -0.011   0.966   0.007  0.00  0.00    -0.750 N 
ATOM      4  H   LIG    1        0.002  -0.004   0.002  0.00  0.00    +0.390 HD
ENDROOT
BRANCH   2   5
ATOM      5  C   LIG    1        2.434   0.935  -0.016  0.00  0.00    -0.290 A 
ATOM      6  C   LIG    1        2.458  -0.461  -0.018  0.00  0.00    +0.080 A 
ATOM      7  C   LIG    1        3.665  -1.128  -0.038  0.00  0.00    -0.180 A 
ATOM      8  C   LIG    1        4.856  -0.419  -0.045  0.00  0.00    +0.070 A 
ATOM      9  C   LIG    1        4.845   0.962  -0.039  0.00  0.00    -0.140 A 
ATOM     10 CL   LIG    1        3.693  -2.864  -0.046  0.00  0.00    -0.130 Cl
ATOM     11  C   LIG    1        3.641   1.649  -0.024  0.00  0.00    +0.310 A 
ATOM     12  O   LIG    1        3.630   3.005  -0.017  0.00  0.00    -0.660 OA
ENDBRANCH   2   5
BRANCH   3  13
ATOM     13  C   LIG    1       -1.290   1.681   0.017  0.00  0.00    +0.260 C 
BRANCH  13  14
ATOM     14  C   LIG    1       -2.439   0.671   0.017  0.00  0.00    +0.100 C 
BRANCH  14  15
ATOM     15  C   LIG    1       -3.754   1.407   0.028  0.00  0.00    +0.170 A 
ATOM     16  C   LIG    1       -4.691   1.144  -0.954  0.00  0.00    -0.020 A 
ATOM     17  C   LIG    1       -5.898   1.827  -0.935  0.00  0.00    +0.130 A 
ATOM     18  C   LIG    1       -6.118   2.751   0.074  0.00  0.00    -0.250 A 
ATOM     19  C   LIG    1       -5.134   2.961   1.021  0.00  0.00    +0.330 A 
ATOM     20  N   LIG    1       -4.000   2.290   0.976  0.00  0.00    -0.470 NA
BRANCH  18  21
ATOM     21  C   LIG    1       -7.414   3.518   0.137  0.00  0.00    +0.520 C 
ATOM     22  F   LIG    1       -7.920   3.686  -1.156  0.00  0.00    -0.180 F 
ATOM     23  F   LIG    1       -7.186   4.771   0.716  0.00  0.00    -0.170 F 
ATOM     24  F   LIG    1       -8.338   2.808   0.911  0.00  0.00    -0.180 F 
ENDBRANCH  18  21
ENDBRANCH  14  15
ENDBRANCH  13  14
ENDBRANCH   3  13
TORSDOF 5
