REMARK  Name = ZINCpk00000ebJ03.1
REMARK                            x       y       z     vdW  Elec       q    Type
REMARK                         _______ _______ _______ _____ _____    ______ ____
ROOT
ATOM      1  C   LIG    1        2.537   1.240  -0.114  0.00  0.00    +0.140 A 
ATOM      2  C   LIG    1        2.606  -0.069   0.374  0.00  0.00    +0.040 A 
ATOM      3  C   LIG    1        3.842  -0.691   0.393  0.00  0.00    +0.110 A 
ATOM      4  C   LIG    1        4.947   0.027  -0.078  0.00  0.00    +0.020 A 
ATOM      5  N   LIG    1        4.788   1.268  -0.525  0.00  0.00    -0.200 NA
ATOM      6  N   LIG    1        3.641   1.845  -0.547  0.00  0.00    -0.200 NA
ENDROOT
BRANCH   1  18
ATOM      7  O   LIG    1        2.200   3.955  -0.836  0.00  0.00    -0.490 OA
ATOM      8  C   LIG    1        1.178   3.361  -0.545  0.00  0.00    +0.540 A 
ATOM      9  N   LIG    1       -0.004   4.003  -0.576  0.00  0.00    -0.630 N 
ATOM     10  H   LIG    1       -0.034   4.939  -0.831  0.00  0.00    +0.420 HD
ATOM     11  C   LIG    1       -1.175   3.347  -0.256  0.00  0.00    +0.200 A 
ATOM     12  C   LIG    1       -2.390   4.025  -0.300  0.00  0.00    -0.030 A 
ATOM     13  C   LIG    1       -3.557   3.367   0.025  0.00  0.00    +0.090 A 
ATOM     14  C   LIG    1       -3.534   2.030   0.398  0.00  0.00    -0.020 A 
ATOM     15  C   LIG    1       -2.355   1.344   0.449  0.00  0.00    +0.090 A 
ATOM     16  C   LIG    1       -1.155   1.992   0.122  0.00  0.00    -0.140 A 
ATOM     17  C   LIG    1        0.074   1.287   0.171  0.00  0.00    +0.170 A 
ATOM     18  C   LIG    1        1.239   1.948  -0.155  0.00  0.00    -0.150 A 
ENDBRANCH   1  18
BRANCH   4  19
ATOM     19  C   LIG    1        6.289  -0.595  -0.079  0.00  0.00    +0.580 C 
ATOM     20  N   LIG    1        7.391   0.181  -0.090  0.00  0.00    -0.590 N 
ATOM     21  C   LIG    1        7.286   1.643   0.028  0.00  0.00    +0.290 C 
ATOM     22  C   LIG    1        8.084   2.286  -1.106  0.00  0.00    +0.180 C 
ATOM     23  N   LIG    1        9.455   1.759  -1.098  0.00  0.00    -0.690 NA
ATOM     24  H   LIG    1       10.035   2.250  -1.761  0.00  0.00    +0.350 HD
ATOM     25  C   LIG    1        9.471   0.312  -1.355  0.00  0.00    +0.170 C 
ATOM     26  C   LIG    1        8.730  -0.412  -0.226  0.00  0.00    +0.290 C 
ATOM     27  O   LIG    1        6.398  -1.805  -0.070  0.00  0.00    -0.530 OA
ENDBRANCH   4  19
TORSDOF 2
