REMARK  Name = ZINCqH0000007pCi.0
REMARK                            x       y       z     vdW  Elec       q    Type
REMARK                         _______ _______ _______ _____ _____    ______ ____
ROOT
ATOM      1  N   LIG    1        3.425   1.734  -0.909  0.00  0.00    -0.720 N 
ATOM      2  H   LIG    1        3.317   2.681  -1.088  0.00  0.00    +0.400 HD
ATOM      3  C   LIG    1        4.436   1.051  -1.482  0.00  0.00    +0.570 C 
ATOM      4  O   LIG    1        4.572  -0.136  -1.258  0.00  0.00    -0.530 OA
ENDROOT
BRANCH   3   5
ATOM      5  C   LIG    1        5.379   1.745  -2.382  0.00  0.00    -0.150 A 
ATOM      6  C   LIG    1        5.217   3.112  -2.644  0.00  0.00    +0.060 A 
ATOM      7  C   LIG    1        6.085   3.765  -3.470  0.00  0.00    +0.020 A 
ATOM      8  C   LIG    1        7.132   3.075  -4.069  0.00  0.00    +0.070 A 
ATOM      9  C   LIG    1        7.306   1.701  -3.822  0.00  0.00    +0.040 A 
ATOM     10  N   LIG    1        8.395   1.306  -4.532  0.00  0.00    -0.480 NA
ATOM     11  C   LIG    1        8.884   2.322  -5.181  0.00  0.00    +0.280 A 
ATOM     12  C   LIG    1       10.095   2.272  -6.077  0.00  0.00    +0.190 C 
ATOM     13  N   LIG    1        8.145   3.437  -4.931  0.00  0.00    -0.490 N 
ATOM     14  C   LIG    1        8.382   4.775  -5.478  0.00  0.00    +0.330 C 
ATOM     15  C   LIG    1        6.422   1.038  -2.973  0.00  0.00    +0.160 A 
ENDBRANCH   3   5
BRANCH   1  16
ATOM     16  C   LIG    1        2.490   1.045  -0.016  0.00  0.00    +0.320 C 
BRANCH  16  20
ATOM     17  C   LIG    1       -1.237   3.137   0.031  0.00  0.00    +0.130 A 
ATOM     18  C   LIG    1       -1.218   1.750   0.017  0.00  0.00    -0.070 A 
ATOM     19  C   LIG    1       -0.013   1.076   0.008  0.00  0.00    +0.070 A 
ATOM     20  C   LIG    1        1.176   1.783   0.000  0.00  0.00    -0.130 A 
ATOM     21  C   LIG    1        1.160   3.165   0.007  0.00  0.00    +0.060 A 
ATOM     22  C   LIG    1       -0.043   3.844   0.023  0.00  0.00    -0.020 A 
BRANCH  17  24
ATOM     23  C   LIG    1       -3.611   3.009   0.053  0.00  0.00    +0.250 C 
ATOM     24  O   LIG    1       -2.422   3.802   0.045  0.00  0.00    -0.320 OA
ENDBRANCH  17  24
ENDBRANCH  16  20
BRANCH  16  25
ATOM     25  C   LIG    1        3.071   1.006   1.399  0.00  0.00    -0.060 C 
ATOM     26  C   LIG    1        4.337   1.823   1.665  0.00  0.00    +0.000 C 
ATOM     27  C   LIG    1        4.412   0.296   1.593  0.00  0.00    +0.030 C 
ENDBRANCH  16  25
ENDBRANCH   1  16
TORSDOF 5
