REMARK  Name = ZINCpe000000SURJ.0
REMARK                            x       y       z     vdW  Elec       q    Type
REMARK                         _______ _______ _______ _____ _____    ______ ____
ROOT
ATOM      1  C   LIG    1       -0.006   5.223   0.056  0.00  0.00    +0.520 C 
ATOM      2  N   LIG    1        0.924   6.008   0.635  0.00  0.00    -0.640 N 
ATOM      3  H   LIG    1        1.569   5.623   1.250  0.00  0.00    +0.410 HD
ATOM      4  O   LIG    1       -0.812   5.704  -0.713  0.00  0.00    -0.520 OA
ENDROOT
BRANCH   1   7
ATOM      5  C   LIG    1       -1.308   1.631   0.017  0.00  0.00    +0.220 C 
ATOM      6  C   LIG    1       -1.170   3.083  -0.438  0.00  0.00    +0.070 C 
ATOM      7  C   LIG    1       -0.044   3.748   0.362  0.00  0.00    +0.000 C 
ATOM      8  C   LIG    1        1.284   3.103  -0.042  0.00  0.00    +0.090 C 
ATOM      9  C   LIG    1        1.158   1.607  -0.000  0.00  0.00    +0.520 C 
ATOM     10  O   LIG    1        2.175   0.946   0.028  0.00  0.00    -0.550 OA
ATOM     11  N   LIG    1       -0.011   0.966   0.007  0.00  0.00    -0.710 N 
ATOM     12  H   LIG    1        0.002  -0.004   0.002  0.00  0.00    +0.400 HD
BRANCH   5  13
ATOM     13  C   LIG    1       -2.263   0.892  -0.922  0.00  0.00    +0.020 C 
BRANCH  13  15
ATOM     14  C   LIG    1       -3.264  -0.418   0.955  0.00  0.00    +0.030 C 
ATOM     15  C   LIG    1       -2.523  -0.515  -0.380  0.00  0.00    -0.030 C 
ATOM     16  C   LIG    1       -3.377  -1.296  -1.381  0.00  0.00    +0.030 C 
ENDBRANCH  13  15
ENDBRANCH   5  13
ENDBRANCH   1   7
BRANCH   2  17
ATOM     17  C   LIG    1        0.960   7.385   0.349  0.00  0.00    +0.000 A 
ATOM     18  C   LIG    1        1.838   8.286   0.860  0.00  0.00    +0.200 A 
ATOM     19  N   LIG    1        1.534   9.500   0.333  0.00  0.00    -0.360 N 
ATOM     20  N   LIG    1        0.438   9.335  -0.524  0.00  0.00    -0.280 NA
ATOM     21  C   LIG    1        0.099   8.071  -0.520  0.00  0.00    +0.270 A 
BRANCH  19  22
ATOM     22  C   LIG    1        2.228  10.759   0.612  0.00  0.00    +0.280 C 
ATOM     23  C   LIG    1        1.664  11.416   1.893  0.00  0.00    +0.060 C 
ATOM     24  C   LIG    1        2.937  12.028   2.519  0.00  0.00    +0.270 C 
ATOM     25  N   LIG    1        4.051  11.220   2.012  0.00  0.00    -0.720 N 
ATOM     26  H   LIG    1        4.939  11.206   2.401  0.00  0.00    +0.420 HD
ATOM     27  C   LIG    1        3.683  10.501   0.937  0.00  0.00    +0.510 C 
ATOM     28  O   LIG    1        4.411   9.754   0.318  0.00  0.00    -0.500 OA
ENDBRANCH  19  22
ENDBRANCH   2  17
TORSDOF 5
