REMARK  Name = ZINCpe000000XyuP.0
REMARK                            x       y       z     vdW  Elec       q    Type
REMARK                         _______ _______ _______ _____ _____    ______ ____
ROOT
ATOM      1  C   LIG    1        1.470  -1.250   0.416  0.00  0.00    +0.160 C 
ATOM      2  C   LIG    1        1.666   0.233   0.233  0.00  0.00    +0.190 A 
ATOM      3  C   LIG    1        2.917   0.734   0.031  0.00  0.00    -0.230 A 
ATOM      4  C   LIG    1        3.073   2.125  -0.137  0.00  0.00    +0.540 A 
ATOM      5  N   LIG    1        1.976   2.911  -0.092  0.00  0.00    -0.630 N 
ATOM      6  H   LIG    1        2.059   3.870  -0.206  0.00  0.00    +0.420 HD
ATOM      7  C   LIG    1        0.751   2.350   0.112  0.00  0.00    +0.440 A 
ATOM      8  O   LIG    1        4.178   2.610  -0.320  0.00  0.00    -0.530 OA
ATOM      9  N   LIG    1        0.615   1.051   0.269  0.00  0.00    -0.510 NA
ENDROOT
BRANCH   7  10
ATOM     10  C   LIG    1       -0.447   3.216   0.154  0.00  0.00    -0.030 A 
ATOM     11  C   LIG    1       -0.338   4.603  -0.003  0.00  0.00    -0.010 A 
ATOM     12  C   LIG    1       -1.483   5.373   0.038  0.00  0.00    +0.280 A 
ATOM     13  N   LIG    1       -2.664   4.820   0.231  0.00  0.00    -0.470 NA
ATOM     14  C   LIG    1       -2.811   3.519   0.389  0.00  0.00    +0.270 A 
ATOM     15  C   LIG    1       -1.720   2.673   0.356  0.00  0.00    +0.050 A 
ENDBRANCH   7  10
BRANCH   3  16
ATOM     16  C   LIG    1        4.113  -0.182  -0.011  0.00  0.00    +0.140 C 
BRANCH  16  17
ATOM     17  C   LIG    1        4.420  -0.541  -1.442  0.00  0.00    +0.520 C 
ATOM     18  N   LIG    1        5.456  -1.356  -1.724  0.00  0.00    -0.610 N 
ATOM     19  C   LIG    1        6.364  -1.818  -0.664  0.00  0.00    +0.280 C 
ATOM     20  C   LIG    1        7.804  -1.544  -1.097  0.00  0.00    +0.170 C 
ATOM     21  N   LIG    1        8.038  -2.141  -2.419  0.00  0.00    -0.540 NA
ATOM     22  C   LIG    1        7.179  -1.526  -3.440  0.00  0.00    +0.170 C 
ATOM     23  C   LIG    1        9.455  -2.046  -2.796  0.00  0.00    +0.190 C 
ATOM     24  C   LIG    1        5.711  -1.803  -3.102  0.00  0.00    +0.230 C 
ATOM     25  C   LIG    1        4.803  -1.037  -4.067  0.00  0.00    +0.050 C 
ATOM     26  O   LIG    1        3.736  -0.097  -2.339  0.00  0.00    -0.520 OA
ENDBRANCH  16  17
ENDBRANCH   3  16
TORSDOF 3
