REMARK  Name = ZINCpe000000UTIJ.1
REMARK                            x       y       z     vdW  Elec       q    Type
REMARK                         _______ _______ _______ _____ _____    ______ ____
ROOT
ATOM      1  N   LIG    1       -0.747   8.203   0.954  0.00  0.00    -0.520 NA
ATOM      2  C   LIG    1       -1.484   7.614  -0.172  0.00  0.00    +0.190 C 
ATOM      3  C   LIG    1       -1.464   6.089  -0.055  0.00  0.00    +0.070 C 
ATOM      4  C   LIG    1       -0.012   5.601  -0.060  0.00  0.00    -0.010 C 
ATOM      5  C   LIG    1        0.746   6.266   1.092  0.00  0.00    +0.040 C 
ATOM      6  C   LIG    1        0.661   7.786   0.942  0.00  0.00    +0.180 C 
ENDROOT
BRANCH   4   7
ATOM      7  C   LIG    1        0.017   4.104   0.115  0.00  0.00    +0.510 C 
ATOM      8  N   LIG    1        1.196   3.452   0.141  0.00  0.00    -0.660 N 
ATOM      9  H   LIG    1        2.027   3.951   0.114  0.00  0.00    +0.420 HD
ATOM     10  O   LIG    1       -1.021   3.487   0.233  0.00  0.00    -0.460 OA
BRANCH   8  11
ATOM     11  C   LIG    1        1.220   2.059   0.207  0.00  0.00    +0.350 A 
ATOM     12  C   LIG    1        2.434   1.387   0.121  0.00  0.00    -0.060 A 
ATOM     13  C   LIG    1        2.444   0.005   0.188  0.00  0.00    +0.090 A 
ATOM     14  C   LIG    1        1.235  -0.660   0.339  0.00  0.00    -0.170 A 
ATOM     15  C   LIG    1        0.066   0.072   0.418  0.00  0.00    +0.290 A 
ATOM     16  C   LIG    1        1.197  -2.164   0.417  0.00  0.00    +0.100 C 
ATOM     17  N   LIG    1        0.087   1.390   0.351  0.00  0.00    -0.470 NA
ENDBRANCH   8  11
ENDBRANCH   4   7
BRANCH   1  18
ATOM     18  C   LIG    1       -0.863   9.667   0.950  0.00  0.00    +0.180 C 
ATOM     19  C   LIG    1       -0.553  10.201  -0.450  0.00  0.00    +0.020 C 
BRANCH  18  26
ATOM     20  C   LIG    1       -5.483  13.389   2.492  0.00  0.00    +0.300 C 
ATOM     21  N   LIG    1       -4.120  13.006   2.114  0.00  0.00    -0.740 N 
ATOM     22  H   LIG    1       -3.435  13.685   2.019  0.00  0.00    +0.400 HD
ATOM     23  C   LIG    1       -3.820  11.710   1.900  0.00  0.00    +0.690 C 
ATOM     24  N   LIG    1       -2.566  11.357   1.553  0.00  0.00    -0.690 N 
ATOM     25  H   LIG    1       -1.880  12.037   1.457  0.00  0.00    +0.410 HD
ATOM     26  C   LIG    1       -2.265  10.061   1.339  0.00  0.00    +0.520 C 
ATOM     27  O   LIG    1       -3.122   9.212   1.458  0.00  0.00    -0.440 OA
ATOM     28  O   LIG    1       -4.679  10.858   2.020  0.00  0.00    -0.530 OA
ENDBRANCH  18  26
ENDBRANCH   1  18
TORSDOF 4
