REMARK  Name = ZINCrH000004mW1A.0
REMARK                            x       y       z     vdW  Elec       q    Type
REMARK                         _______ _______ _______ _____ _____    ______ ____
ROOT
ATOM      1  C   LIG    1       -0.007   1.375  -0.007  0.00  0.00    +0.160 A 
ATOM      2  C   LIG    1        0.018  -0.009  -0.024  0.00  0.00    -0.070 A 
ATOM      3  C   LIG    1        1.228  -0.679  -0.041  0.00  0.00    +0.150 A 
ATOM      4  C   LIG    1        2.415   0.030  -0.043  0.00  0.00    -0.700 A 
ATOM      5  C   LIG    1        2.398   1.412  -0.025  0.00  0.00    +0.170 A 
ATOM      6  C   LIG    1        1.189   2.091  -0.008  0.00  0.00    +0.100 A 
ENDROOT
BRANCH   6   7
ATOM      7  N   LIG    1        1.170   3.492   0.009  0.00  0.00    -0.670 N 
ATOM      8  H   LIG    1        0.468   3.973  -0.457  0.00  0.00    +0.420 HD
ATOM      9  C   LIG    1        2.126   4.171   0.673  0.00  0.00    +0.510 C 
ATOM     10  O   LIG    1        3.048   3.574   1.187  0.00  0.00    -0.510 OA
BRANCH   9  11
ATOM     11  C   LIG    1        2.050   5.673   0.776  0.00  0.00    +0.060 C 
BRANCH  11  12
ATOM     12  C   LIG    1        3.248   6.190   1.574  0.00  0.00    +0.040 C 
BRANCH  12  13
ATOM     13  C   LIG    1        3.171   7.715   1.678  0.00  0.00    -0.020 C 
ATOM     14  C   LIG    1        3.369   8.351   0.287  0.00  0.00    +0.010 C 
ATOM     15  C   LIG    1        4.192   9.633   0.569  0.00  0.00    +0.000 C 
ATOM     16  C   LIG    1        5.162   9.177   1.688  0.00  0.00    +0.000 C 
ATOM     17  C   LIG    1        4.310   8.240   2.569  0.00  0.00    +0.010 C 
ENDBRANCH  12  13
ENDBRANCH  11  12
ENDBRANCH   9  11
ENDBRANCH   6   7
BRANCH   4  18
ATOM     18  S   LIG    1        3.952  -0.830  -0.065  0.00  0.00    +2.690 S 
ATOM     19  O   LIG    1        3.697  -2.123   0.466  0.00  0.00    -0.950 OA
ATOM     20  O   LIG    1        4.917   0.058   0.482  0.00  0.00    -0.950 OA
BRANCH  18  21
ATOM     21  N   LIG    1        4.367  -1.051  -1.653  0.00  0.00    -1.000 NA
ATOM     22  C   LIG    1        3.942  -2.257  -2.377  0.00  0.00    +0.290 C 
ATOM     23  C   LIG    1        3.217  -1.826  -3.661  0.00  0.00    +0.010 C 
ATOM     24  C   LIG    1        4.128  -0.897  -4.467  0.00  0.00    +0.010 C 
ATOM     25  C   LIG    1        4.438   0.356  -3.646  0.00  0.00    +0.010 C 
ATOM     26  C   LIG    1        5.172  -0.047  -2.363  0.00  0.00    +0.290 C 
ENDBRANCH  18  21
ENDBRANCH   4  18
BRANCH   1  28
ATOM     27  C   LIG    1       -2.381   1.237  -0.001  0.00  0.00    +0.250 C 
ATOM     28  O   LIG    1       -1.196   2.035   0.005  0.00  0.00    -0.310 OA
ENDBRANCH   1  28
TORSDOF 7
