REMARK  Name = ZINCqH0000033bBi.0
REMARK                            x       y       z     vdW  Elec       q    Type
REMARK                         _______ _______ _______ _____ _____    ______ ____
ROOT
ATOM      1  C   LIG    1       -3.794  -0.601   0.018  0.00  0.00    -0.000 A 
ATOM      2  N   LIG    1       -2.525  -0.241   0.013  0.00  0.00    -0.260 NA
ATOM      3  N   LIG    1       -2.429   1.040   0.019  0.00  0.00    -0.230 N 
ATOM      4  C   LIG    1       -3.667   1.600   0.034  0.00  0.00    +0.180 A 
ATOM      5  C   LIG    1       -4.564   0.587   0.027  0.00  0.00    +0.020 A 
ENDROOT
BRANCH   3   6
ATOM      6  C   LIG    1       -1.224   1.754   0.017  0.00  0.00    +0.130 A 
ATOM      7  C   LIG    1       -1.239   3.143   0.030  0.00  0.00    +0.060 A 
ATOM      8  C   LIG    1       -0.049   3.845   0.022  0.00  0.00    +0.060 A 
ATOM      9  C   LIG    1        1.155   3.166   0.008  0.00  0.00    +0.080 A 
ATOM     10  C   LIG    1        1.173   1.783   0.000  0.00  0.00    -0.160 A 
ATOM     11  C   LIG    1       -0.013   1.076   0.008  0.00  0.00    +0.090 A 
BRANCH  10  12
ATOM     12  C   LIG    1        2.489   1.048  -0.016  0.00  0.00    +0.510 C 
ATOM     13  F   LIG    1        2.344  -0.181   0.638  0.00  0.00    -0.170 F 
ATOM     14  F   LIG    1        3.459   1.813   0.638  0.00  0.00    -0.170 F 
ATOM     15  F   LIG    1        2.883   0.827  -1.340  0.00  0.00    -0.170 F 
ENDBRANCH  10  12
ENDBRANCH   3   6
BRANCH   1  18
ATOM     16  N   LIG    1       -3.458  -3.025   0.003  0.00  0.00    -0.640 N 
ATOM     17  H   LIG    1       -2.501  -2.866  -0.001  0.00  0.00    +0.420 HD
ATOM     18  C   LIG    1       -4.313  -1.983   0.012  0.00  0.00    +0.620 C 
ATOM     19  O   LIG    1       -5.513  -2.182   0.017  0.00  0.00    -0.490 OA
BRANCH  16  24
ATOM     20  N   LIG    1       -3.207  -5.467  -0.012  0.00  0.00    -0.390 N 
ATOM     21  N   LIG    1       -4.089  -6.554  -0.014  0.00  0.00    -0.290 NA
ATOM     22  C   LIG    1       -5.313  -6.093  -0.006  0.00  0.00    +0.250 A 
ATOM     23  C   LIG    1       -5.260  -4.697   0.008  0.00  0.00    -0.100 A 
ATOM     24  C   LIG    1       -3.949  -4.329  -0.002  0.00  0.00    +0.300 A 
BRANCH  20  25
ATOM     25  C   LIG    1       -1.743  -5.542  -0.019  0.00  0.00    +0.320 C 
BRANCH  25  27
ATOM     26  C   LIG    1        0.300  -5.656   1.414  0.00  0.00    +0.030 C 
ATOM     27  C   LIG    1       -1.228  -5.577   1.421  0.00  0.00    -0.000 C 
ENDBRANCH  25  27
ENDBRANCH  20  25
ENDBRANCH  16  24
ENDBRANCH   1  18
TORSDOF 6
