REMARK  Name = ZINCvU00000007Re.0
REMARK                            x       y       z     vdW  Elec       q    Type
REMARK                         _______ _______ _______ _____ _____    ______ ____
ROOT
ATOM      1  O   LIG    1       -2.975   0.821  -1.080  0.00  0.00    -0.510 OA
ATOM      2  C   LIG    1       -2.643  -0.078  -1.823  0.00  0.00    +0.540 C 
ATOM      3  N   LIG    1       -1.869  -1.081  -1.363  0.00  0.00    -0.600 N 
ENDROOT
BRANCH   3   4
ATOM      4  C   LIG    1       -1.376  -2.108  -2.284  0.00  0.00    +0.320 C 
BRANCH   4   5
ATOM      5  C   LIG    1       -2.293  -3.304  -2.240  0.00  0.00    -0.110 A 
ATOM      6  C   LIG    1       -2.128  -4.265  -1.260  0.00  0.00    +0.020 A 
ATOM      7  C   LIG    1       -2.972  -5.359  -1.216  0.00  0.00    +0.000 A 
ATOM      8  C   LIG    1       -3.973  -5.497  -2.159  0.00  0.00    +0.010 A 
ATOM      9  C   LIG    1       -4.134  -4.540  -3.143  0.00  0.00    +0.000 A 
ATOM     10  C   LIG    1       -3.294  -3.442  -3.183  0.00  0.00    +0.010 A 
ENDBRANCH   4   5
ENDBRANCH   3   4
BRANCH   3  11
ATOM     11  C   LIG    1       -1.520  -1.144   0.059  0.00  0.00    +0.350 C 
BRANCH  11  12
ATOM     12  C   LIG    1       -0.240  -0.385   0.296  0.00  0.00    -0.110 A 
ATOM     13  C   LIG    1       -0.283   0.962   0.604  0.00  0.00    +0.040 A 
ATOM     14  C   LIG    1        0.891   1.658   0.822  0.00  0.00    +0.000 A 
ATOM     15  C   LIG    1        2.108   1.008   0.732  0.00  0.00    +0.010 A 
ATOM     16  C   LIG    1        2.150  -0.339   0.424  0.00  0.00    +0.000 A 
ATOM     17  C   LIG    1        0.976  -1.036   0.207  0.00  0.00    +0.010 A 
ENDBRANCH  11  12
ENDBRANCH   3  11
BRANCH   2  18
ATOM     18  C   LIG    1       -3.095  -0.074  -3.260  0.00  0.00    +0.070 C 
BRANCH  18  19
ATOM     19  S   LIG    1       -4.216   1.325  -3.537  0.00  0.00    +0.110 S 
BRANCH  19  20
ATOM     20  C   LIG    1       -4.633   1.167  -5.242  0.00  0.00    +0.190 A 
ATOM     21  N   LIG    1       -4.189   0.234  -6.052  0.00  0.00    -0.310 NA
ATOM     22  N   LIG    1       -4.766   0.474  -7.310  0.00  0.00    -0.470 N 
ATOM     23  H   LIG    1       -4.635  -0.045  -8.118  0.00  0.00    +0.440 HD
ATOM     24  C   LIG    1       -5.537   1.576  -7.171  0.00  0.00    +0.330 A 
ATOM     25  N   LIG    1       -5.446   1.980  -5.920  0.00  0.00    -0.470 NA
BRANCH  24  26
ATOM     26  C   LIG    1       -6.341   2.215  -8.235  0.00  0.00    -0.010 A 
ATOM     27  C   LIG    1       -6.344   1.685  -9.525  0.00  0.00    +0.040 A 
ATOM     28  C   LIG    1       -7.100   2.283 -10.513  0.00  0.00    +0.040 A 
ATOM     29  C   LIG    1       -7.846   3.412 -10.229  0.00  0.00    +0.050 A 
ATOM     30  C   LIG    1       -7.845   3.947  -8.953  0.00  0.00    +0.050 A 
ATOM     31  C   LIG    1       -7.097   3.355  -7.954  0.00  0.00    -0.050 A 
ATOM     32 BR   LIG    1       -7.095   4.088  -6.211  0.00  0.00    +0.010 Br
ENDBRANCH  24  26
ENDBRANCH  19  20
ENDBRANCH  18  19
ENDBRANCH   2  18
TORSDOF 8
