REMARK  Name = ZINCvU00000007Re.1
REMARK                            x       y       z     vdW  Elec       q    Type
REMARK                         _______ _______ _______ _____ _____    ______ ____
ROOT
ATOM      1  O   LIG    1        5.540   1.613   0.050  0.00  0.00    -0.520 OA
ATOM      2  C   LIG    1        5.061   2.724  -0.036  0.00  0.00    +0.540 C 
ATOM      3  N   LIG    1        5.868   3.799  -0.135  0.00  0.00    -0.590 N 
ENDROOT
BRANCH   3   4
ATOM      4  C   LIG    1        5.296   5.148  -0.123  0.00  0.00    +0.320 C 
BRANCH   4   5
ATOM      5  C   LIG    1        5.341   5.700   1.279  0.00  0.00    -0.110 A 
ATOM      6  C   LIG    1        4.235   5.590   2.101  0.00  0.00    +0.010 A 
ATOM      7  C   LIG    1        4.279   6.092   3.388  0.00  0.00    +0.000 A 
ATOM      8  C   LIG    1        5.425   6.713   3.850  0.00  0.00    +0.010 A 
ATOM      9  C   LIG    1        6.529   6.827   3.026  0.00  0.00    +0.000 A 
ATOM     10  C   LIG    1        6.487   6.320   1.740  0.00  0.00    +0.020 A 
ENDBRANCH   4   5
ENDBRANCH   3   4
BRANCH   3  11
ATOM     11  C   LIG    1        7.317   3.619  -0.256  0.00  0.00    +0.350 C 
BRANCH  11  12
ATOM     12  C   LIG    1        7.691   3.519  -1.712  0.00  0.00    -0.110 A 
ATOM     13  C   LIG    1        7.725   2.284  -2.333  0.00  0.00    +0.030 A 
ATOM     14  C   LIG    1        8.064   2.193  -3.671  0.00  0.00    +0.000 A 
ATOM     15  C   LIG    1        8.379   3.334  -4.383  0.00  0.00    +0.010 A 
ATOM     16  C   LIG    1        8.351   4.568  -3.760  0.00  0.00    +0.000 A 
ATOM     17  C   LIG    1        8.007   4.660  -2.425  0.00  0.00    +0.010 A 
ENDBRANCH  11  12
ENDBRANCH   3  11
BRANCH   2  18
ATOM     18  C   LIG    1        3.565   2.902  -0.033  0.00  0.00    +0.110 C 
BRANCH  18  19
ATOM     19  S   LIG    1        2.764   1.279  -0.040  0.00  0.00    +0.090 S 
BRANCH  19  20
ATOM     20  C   LIG    1        1.072   1.773  -0.035  0.00  0.00    +0.250 A 
ATOM     21  N   LIG    1        0.629   3.011  -0.027  0.00  0.00    -0.530 NA
ATOM     22  C   LIG    1       -0.712   3.009  -0.025  0.00  0.00    +0.260 A 
ATOM     23  N   LIG    1       -1.136   1.766  -0.037  0.00  0.00    -0.260 NA
ATOM     24  N   LIG    1        0.004   0.945  -0.038  0.00  0.00    -0.460 N 
ATOM     25  H   LIG    1        0.021  -0.024  -0.043  0.00  0.00    +0.450 HD
BRANCH  22  26
ATOM     26  C   LIG    1       -1.576   4.215  -0.016  0.00  0.00    +0.010 A 
ATOM     27  C   LIG    1       -1.004   5.486  -0.004  0.00  0.00    +0.070 A 
ATOM     28  C   LIG    1       -1.813   6.604  -0.002  0.00  0.00    +0.030 A 
ATOM     29  C   LIG    1       -3.189   6.466   0.000  0.00  0.00    +0.040 A 
ATOM     30  C   LIG    1       -3.763   5.208  -0.006  0.00  0.00    +0.040 A 
ATOM     31  C   LIG    1       -2.964   4.082  -0.014  0.00  0.00    -0.070 A 
ATOM     32 BR   LIG    1       -3.751   2.362  -0.023  0.00  0.00    -0.010 Br
ENDBRANCH  22  26
ENDBRANCH  19  20
ENDBRANCH  18  19
ENDBRANCH   2  18
TORSDOF 8
