REMARK  Name = ZINCrH000004vKA6.0
REMARK                            x       y       z     vdW  Elec       q    Type
REMARK                         _______ _______ _______ _____ _____    ______ ____
ROOT
ATOM      1  C   LIG    1       -3.426   2.342   0.029  0.00  0.00    +0.490 C 
ATOM      2  O   LIG    1       -3.184   3.534   0.035  0.00  0.00    -0.590 OA
ENDROOT
BRANCH   1   6
ATOM      3  O   LIG    1       -4.709   1.502  -3.488  0.00  0.00    -0.520 OA
ATOM      4  C   LIG    1       -5.146   1.912  -2.434  0.00  0.00    +0.520 C 
ATOM      5  C   LIG    1       -5.114   1.024  -1.219  0.00  0.00    +0.110 C 
ATOM      6  C   LIG    1       -4.855   1.863   0.033  0.00  0.00    +0.080 C 
ATOM      7  C   LIG    1       -5.782   3.050   0.043  0.00  0.00    -0.110 A 
ATOM      8  C   LIG    1       -6.268   3.540   1.239  0.00  0.00    +0.100 A 
ATOM      9  C   LIG    1       -7.119   4.630   1.247  0.00  0.00    -0.040 A 
ATOM     10  C   LIG    1       -7.486   5.234   0.056  0.00  0.00    +0.130 A 
ATOM     11  C   LIG    1       -7.001   4.747  -1.144  0.00  0.00    -0.050 A 
ATOM     12  F   LIG    1       -8.317   6.299   0.067  0.00  0.00    -0.130 F 
ATOM     13  C   LIG    1       -6.147   3.653  -1.153  0.00  0.00    +0.210 A 
ATOM     14  N   LIG    1       -5.655   3.156  -2.364  0.00  0.00    -0.660 N 
ATOM     15  H   LIG    1       -5.680   3.712  -3.158  0.00  0.00    +0.410 HD
ENDBRANCH   1   6
BRANCH   1  16
ATOM     16  N   LIG    1       -2.430   1.463   0.020  0.00  0.00    -0.640 NA
ATOM     17  C   LIG    1       -1.166   1.887   0.017  0.00  0.00    +0.480 A 
ATOM     18  C   LIG    1       -0.013   1.076   0.008  0.00  0.00    -0.090 A 
ATOM     19  C   LIG    1        1.071   1.883   0.002  0.00  0.00    +0.190 A 
ATOM     20  N   LIG    1        0.656   3.181   0.013  0.00  0.00    -0.480 N 
ATOM     21  H   LIG    1        1.231   3.962   0.011  0.00  0.00    +0.450 HD
ATOM     22  N   LIG    1       -0.746   3.193   0.026  0.00  0.00    -0.480 N 
ATOM     23  H   LIG    1       -1.314   3.980   0.036  0.00  0.00    +0.460 HD
BRANCH  19  24
ATOM     24  C   LIG    1        2.506   1.422  -0.014  0.00  0.00    +0.140 C 
BRANCH  24  25
ATOM     25  C   LIG    1        3.017   1.393  -1.456  0.00  0.00    -0.010 C 
ATOM     26  C   LIG    1        2.244   0.338  -2.249  0.00  0.00    +0.020 C 
ATOM     27  C   LIG    1        2.755   0.309  -3.691  0.00  0.00    +0.000 C 
ATOM     28  C   LIG    1        4.245  -0.037  -3.698  0.00  0.00    +0.000 C 
ATOM     29  C   LIG    1        5.018   1.018  -2.904  0.00  0.00    +0.000 C 
ATOM     30  C   LIG    1        4.507   1.047  -1.462  0.00  0.00    +0.020 C 
ENDBRANCH  24  25
ENDBRANCH  19  24
ENDBRANCH   1  16
TORSDOF 4
