REMARK  Name = ZINCrH000004vKA6.1
REMARK                            x       y       z     vdW  Elec       q    Type
REMARK                         _______ _______ _______ _____ _____    ______ ____
ROOT
ATOM      1  N   LIG    1        7.745  -0.458  -1.807  0.00  0.00    -0.580 N 
ATOM      2  H   LIG    1        7.867  -1.314  -1.369  0.00  0.00    +0.430 HD
ENDROOT
BRANCH   1  14
ATOM      3  O   LIG    1       11.434  -2.209   0.700  0.00  0.00    -0.550 OA
ATOM      4  C   LIG    1       11.419  -1.426  -0.226  0.00  0.00    +0.530 C 
ATOM      5  C   LIG    1       10.306  -1.509  -1.232  0.00  0.00    +0.110 C 
ATOM      6  C   LIG    1       10.065  -0.131  -1.815  0.00  0.00    -0.370 C 
ATOM      7  C   LIG    1       11.257   0.694  -2.087  0.00  0.00    +0.010 A 
ATOM      8  C   LIG    1       11.252   1.675  -3.074  0.00  0.00    +0.090 A 
ATOM      9  C   LIG    1       12.396   2.418  -3.300  0.00  0.00    -0.040 A 
ATOM     10  C   LIG    1       13.537   2.186  -2.550  0.00  0.00    +0.090 A 
ATOM     11  C   LIG    1       13.549   1.214  -1.563  0.00  0.00    -0.060 A 
ATOM     12  F   LIG    1       14.650   2.916  -2.783  0.00  0.00    -0.150 F 
ATOM     13  C   LIG    1       12.412   0.463  -1.319  0.00  0.00    +0.150 A 
ATOM     14  C   LIG    1        8.812   0.324  -2.069  0.00  0.00    +0.410 C 
ATOM     15  O   LIG    1        8.633   1.566  -2.586  0.00  0.00    -0.690 OA
ATOM     16  N   LIG    1       12.395  -0.509  -0.319  0.00  0.00    -0.650 N 
ATOM     17  H   LIG    1       13.114  -0.523   0.333  0.00  0.00    +0.410 HD
ENDBRANCH   1  14
BRANCH   1  18
ATOM     18  C   LIG    1        6.532  -0.056  -2.148  0.00  0.00    +0.490 C 
ATOM     19  C   LIG    1        5.335  -0.806  -2.038  0.00  0.00    -0.100 C 
ATOM     20  C   LIG    1        4.318  -0.048  -2.488  0.00  0.00    +0.220 C 
ATOM     21  N   LIG    1        4.809   1.165  -2.894  0.00  0.00    -0.460 N 
ATOM     22  H   LIG    1        4.286   1.894  -3.263  0.00  0.00    +0.460 HD
ATOM     23  N   LIG    1        6.194   1.174  -2.680  0.00  0.00    -0.410 NA
ATOM     24  H   LIG    1        6.802   1.904  -2.873  0.00  0.00    +0.470 HD
BRANCH  20  25
ATOM     25  C   LIG    1        2.872  -0.469  -2.544  0.00  0.00    +0.150 C 
BRANCH  25  26
ATOM     26  C   LIG    1        2.151   0.017  -1.286  0.00  0.00    -0.010 C 
ATOM     27  C   LIG    1        0.716  -0.515  -1.282  0.00  0.00    +0.030 C 
ATOM     28  C   LIG    1       -0.005  -0.029  -0.024  0.00  0.00    +0.010 C 
ATOM     29  C   LIG    1       -0.030   1.501  -0.010  0.00  0.00    +0.000 C 
ATOM     30  C   LIG    1        1.405   2.034  -0.013  0.00  0.00    +0.000 C 
ATOM     31  C   LIG    1        2.126   1.547  -1.272  0.00  0.00    +0.010 C 
ENDBRANCH  25  26
ENDBRANCH  20  25
ENDBRANCH   1  18
TORSDOF 4
