REMARK  Name = ZINCrD000000fKQo.0
REMARK                            x       y       z     vdW  Elec       q    Type
REMARK                         _______ _______ _______ _____ _____    ______ ____
ROOT
ATOM      1  C   LIG    1        5.767   0.033   2.341  0.00  0.00    +0.530 C 
ATOM      2  N   LIG    1        4.831  -0.936   2.355  0.00  0.00    -0.650 N 
ATOM      3  H   LIG    1        5.009  -1.776   2.806  0.00  0.00    +0.430 HD
ATOM      4  O   LIG    1        5.508   1.119   1.867  0.00  0.00    -0.490 OA
ENDROOT
BRANCH   2   5
ATOM      5  C   LIG    1        3.607  -0.732   1.720  0.00  0.00    +0.230 A 
ATOM      6  C   LIG    1        3.510   0.170   0.673  0.00  0.00    +0.030 A 
ATOM      7  C   LIG    1        2.293   0.375   0.041  0.00  0.00    +0.100 A 
ATOM      8  C   LIG    1        1.157  -0.327   0.456  0.00  0.00    -0.000 A 
ATOM      9  O   LIG    1        0.102   0.056  -0.323  0.00  0.00    -0.300 OA
ATOM     10  C   LIG    1        0.509   1.291  -0.940  0.00  0.00    +0.440 C 
ATOM     11  C   LIG    1        1.241  -1.228   1.496  0.00  0.00    +0.120 A 
ATOM     12  O   LIG    1        1.944   1.192  -0.993  0.00  0.00    -0.300 OA
ATOM     13  C   LIG    1        2.467  -1.441   2.140  0.00  0.00    -0.210 A 
BRANCH  13  14
ATOM     14  C   LIG    1        2.561  -2.397   3.246  0.00  0.00    +0.410 C 
ATOM     15  O   LIG    1        3.599  -2.510   3.864  0.00  0.00    -0.470 OA
ATOM     16  C   LIG    1        1.369  -3.241   3.615  0.00  0.00    +0.090 C 
ENDBRANCH  13  14
ENDBRANCH   2   5
BRANCH   1  17
ATOM     17  C   LIG    1        7.134  -0.232   2.916  0.00  0.00    +0.100 C 
BRANCH  17  18
ATOM     18  S   LIG    1        8.159   1.256   2.751  0.00  0.00    -0.030 S 
BRANCH  18  22
ATOM     19  C   LIG    1       12.102  -0.012   4.588  0.00  0.00    +0.140 A 
ATOM     20  C   LIG    1       11.954   1.273   4.082  0.00  0.00    +0.010 A 
ATOM     21  C   LIG    1       10.752   1.659   3.522  0.00  0.00    +0.050 A 
ATOM     22  C   LIG    1        9.692   0.763   3.465  0.00  0.00    -0.110 A 
ATOM     23  C   LIG    1        9.840  -0.520   3.977  0.00  0.00    +0.010 A 
ATOM     24  C   LIG    1       11.043  -0.908   4.532  0.00  0.00    +0.040 A 
BRANCH  19  27
ATOM     25  C   LIG    1       15.117  -2.064   5.529  0.00  0.00    +0.110 C 
ATOM     26  C   LIG    1       13.758  -1.670   5.010  0.00  0.00    +0.510 C 
ATOM     27  N   LIG    1       13.322  -0.403   5.158  0.00  0.00    -0.680 N 
ATOM     28  H   LIG    1       13.851   0.237   5.657  0.00  0.00    +0.410 HD
ATOM     29  O   LIG    1       13.057  -2.493   4.460  0.00  0.00    -0.530 OA
ENDBRANCH  19  27
ENDBRANCH  18  22
ENDBRANCH  17  18
ENDBRANCH   1  17
TORSDOF 6
