REMARK  Name = ZINCvU0000000F4M.0
REMARK                            x       y       z     vdW  Elec       q    Type
REMARK                         _______ _______ _______ _____ _____    ______ ____
ROOT
ATOM      1  C   LIG    1        1.720   2.360  -5.221  0.00  0.00    -0.270 A 
ATOM      2  C   LIG    1        1.881   2.168  -6.539  0.00  0.00    +0.190 A 
ATOM      3  C   LIG    1        3.195   1.910  -6.950  0.00  0.00    -0.220 A 
ATOM      4  C   LIG    1        4.098   1.891  -5.900  0.00  0.00    +0.020 A 
ATOM      5  N   LIG    1        5.334   1.626  -6.427  0.00  0.00    -0.300 N 
ATOM      6  N   LIG    1        5.194   1.481  -7.810  0.00  0.00    -0.250 NA
ATOM      7  C   LIG    1        3.947   1.644  -8.137  0.00  0.00    +0.140 A 
ATOM      8  C   LIG    1        3.387   1.565  -9.534  0.00  0.00    +0.180 C 
ATOM      9  S   LIG    1        3.258   2.211  -4.388  0.00  0.00    +0.210 S 
ENDROOT
BRANCH   1  14
ATOM     10  C   LIG    1       -0.509   2.603  -1.019  0.00  0.00    +0.040 C 
ATOM     11  C   LIG    1        0.992   2.973  -0.886  0.00  0.00    +0.050 C 
ATOM     12  C   LIG    1        1.533   2.741  -2.313  0.00  0.00    +0.240 C 
ATOM     13  N   LIG    1        0.388   2.816  -3.232  0.00  0.00    -0.620 N 
ATOM     14  C   LIG    1        0.439   2.646  -4.568  0.00  0.00    +0.610 C 
ATOM     15  O   LIG    1       -0.577   2.730  -5.232  0.00  0.00    -0.520 OA
ATOM     16  C   LIG    1       -0.828   3.107  -2.449  0.00  0.00    +0.290 C 
BRANCH  10  20
ATOM     17  C   LIG    1       -2.858   4.665   1.894  0.00  0.00    +0.130 A 
ATOM     18  C   LIG    1       -2.888   3.280   1.832  0.00  0.00    -0.020 A 
ATOM     19  C   LIG    1       -2.128   2.615   0.889  0.00  0.00    +0.060 A 
ATOM     20  C   LIG    1       -1.337   3.330   0.008  0.00  0.00    -0.110 A 
ATOM     21  C   LIG    1       -1.301   4.711   0.072  0.00  0.00    +0.060 A 
ATOM     22  C   LIG    1       -2.064   5.380   1.009  0.00  0.00    -0.080 A 
BRANCH  17  24
ATOM     23  C   LIG    1       -3.526   6.748   2.827  0.00  0.00    +0.250 C 
ATOM     24  O   LIG    1       -3.606   5.321   2.820  0.00  0.00    -0.320 OA
ENDBRANCH  17  24
ENDBRANCH  10  20
ENDBRANCH   1  14
BRANCH   5  25
ATOM     25  C   LIG    1        6.530   1.519  -5.706  0.00  0.00    +0.140 A 
ATOM     26  C   LIG    1        6.866   2.485  -4.767  0.00  0.00    +0.010 A 
ATOM     27  C   LIG    1        8.044   2.374  -4.054  0.00  0.00    +0.030 A 
ATOM     28  C   LIG    1        8.894   1.308  -4.283  0.00  0.00    +0.020 A 
ATOM     29  C   LIG    1        8.565   0.347  -5.221  0.00  0.00    +0.020 A 
ATOM     30  C   LIG    1        7.387   0.449  -5.933  0.00  0.00    -0.070 A 
ATOM     31  C   LIG    1        7.030  -0.598  -6.956  0.00  0.00    +0.100 C 
ENDBRANCH   5  25
TORSDOF 4
