REMARK  Name = ZINCpk00000eai5k.2
REMARK                            x       y       z     vdW  Elec       q    Type
REMARK                         _______ _______ _______ _____ _____    ______ ____
ROOT
ATOM      1  C   LIG    1        0.187  -0.154  -0.168  0.00  0.00    +0.020 C 
ATOM      2  C   LIG    1        0.881  -0.652   1.103  0.00  0.00    +0.010 C 
ATOM      3  C   LIG    1        2.304  -0.089   1.152  0.00  0.00    +0.020 C 
ATOM      4  C   LIG    1        2.245   1.439   1.104  0.00  0.00    +0.170 C 
ATOM      5  N   LIG    1        1.573   1.866  -0.130  0.00  0.00    -0.530 NA
ATOM      6  C   LIG    1        1.621   3.327  -0.277  0.00  0.00    +0.190 C 
ATOM      7  C   LIG    1        0.190   1.377  -0.177  0.00  0.00    +0.200 C 
ENDROOT
BRANCH   7   8
ATOM      8  C   LIG    1       -0.475   1.872  -1.436  0.00  0.00    +0.130 A 
ATOM      9  C   LIG    1        0.111   2.005  -2.648  0.00  0.00    -0.120 A 
ATOM     10  C   LIG    1       -0.851   2.491  -3.540  0.00  0.00    +0.210 A 
ATOM     11  N   LIG    1       -1.972   2.652  -2.885  0.00  0.00    -0.290 NA
ATOM     12  N   LIG    1       -1.760   2.267  -1.555  0.00  0.00    -0.340 N 
ATOM     13  C   LIG    1       -2.757   2.290  -0.482  0.00  0.00    +0.320 C 
ENDBRANCH   7   8
BRANCH   1  14
ATOM     14  C   LIG    1       -1.255  -0.663  -0.196  0.00  0.00    +0.190 C 
BRANCH  14  15
ATOM     15  N   LIG    1       -1.866  -0.334  -1.490  0.00  0.00    -0.530 NA
ATOM     16  C   LIG    1       -1.200  -1.053  -2.584  0.00  0.00    +0.200 C 
BRANCH  15  17
ATOM     17  C   LIG    1       -3.308  -0.613  -1.478  0.00  0.00    +0.330 C 
BRANCH  17  21
ATOM     18  C   LIG    1       -4.702   0.238  -4.676  0.00  0.00    +0.160 A 
ATOM     19  N   LIG    1       -4.879   1.326  -3.988  0.00  0.00    -0.350 NA
ATOM     20  O   LIG    1       -4.449   1.186  -2.863  0.00  0.00    +0.110 OA
ATOM     21  C   LIG    1       -3.941  -0.041  -2.721  0.00  0.00    +0.190 A 
ATOM     22  N   LIG    1       -4.092  -0.652  -3.872  0.00  0.00    -0.470 NA
BRANCH  18  23
ATOM     23  C   LIG    1       -5.100   0.015  -6.112  0.00  0.00    +0.320 C 
BRANCH  23  25
ATOM     24  C   LIG    1       -4.299   0.224  -8.361  0.00  0.00    +0.220 C 
ATOM     25  O   LIG    1       -4.023   0.397  -6.970  0.00  0.00    -0.380 OA
ENDBRANCH  23  25
ENDBRANCH  18  23
ENDBRANCH  17  21
ENDBRANCH  15  17
ENDBRANCH  14  15
ENDBRANCH   1  14
TORSDOF 7
