REMARK  Name = ZINCpe00000VVH6B.0
REMARK                            x       y       z     vdW  Elec       q    Type
REMARK                         _______ _______ _______ _____ _____    ______ ____
ROOT
ATOM      1  N   LIG    1        2.015   1.111   1.907  0.00  0.00    -0.530 NA
ATOM      2  C   LIG    1        0.738   0.383   1.923  0.00  0.00    +0.200 C 
ATOM      3  C   LIG    1        0.092   0.462   0.537  0.00  0.00    +0.200 C 
ATOM      4  N   LIG    1       -0.112   1.871   0.174  0.00  0.00    -0.520 NA
ATOM      5  C   LIG    1        1.165   2.599   0.159  0.00  0.00    +0.190 C 
ATOM      6  C   LIG    1        1.810   2.520   1.544  0.00  0.00    +0.180 C 
ENDROOT
BRANCH   1   7
ATOM      7  C   LIG    1        2.703   0.994   3.200  0.00  0.00    +0.270 C 
ATOM      8  C   LIG    1        2.982  -0.480   3.498  0.00  0.00    +0.080 C 
BRANCH   7  13
ATOM      9  C   LIG    1        6.590   3.962   4.273  0.00  0.00    +0.210 C 
ATOM     10  C   LIG    1        5.654   3.002   3.587  0.00  0.00    +0.170 A 
ATOM     11  N   LIG    1        5.837   2.446   2.427  0.00  0.00    -0.390 NA
ATOM     12  O   LIG    1        4.904   1.719   2.158  0.00  0.00    +0.090 OA
ATOM     13  C   LIG    1        4.005   1.751   3.146  0.00  0.00    +0.190 A 
ATOM     14  N   LIG    1        4.475   2.562   4.063  0.00  0.00    -0.480 NA
ENDBRANCH   7  13
ENDBRANCH   1   7
BRANCH   4  15
ATOM     15  C   LIG    1       -0.800   1.987  -1.118  0.00  0.00    +0.180 C 
ATOM     16  C   LIG    1       -0.126   1.068  -2.139  0.00  0.00    +0.040 C 
BRANCH  15  17
ATOM     17  C   LIG    1       -2.244   1.586  -0.957  0.00  0.00    +0.520 C 
ATOM     18  N   LIG    1       -3.134   1.869  -1.929  0.00  0.00    -0.640 N 
ATOM     19  H   LIG    1       -2.846   2.331  -2.732  0.00  0.00    +0.420 HD
ATOM     20  O   LIG    1       -2.604   1.009   0.046  0.00  0.00    -0.450 OA
BRANCH  18  21
ATOM     21  C   LIG    1       -4.465   1.499  -1.780  0.00  0.00    +0.540 A 
ATOM     22  N   LIG    1       -4.840   0.865  -0.680  0.00  0.00    -0.500 NA
ATOM     23  C   LIG    1       -6.101   0.503  -0.505  0.00  0.00    +0.350 A 
ATOM     24  C   LIG    1       -7.029   0.786  -1.494  0.00  0.00    -0.110 A 
ATOM     25  C   LIG    1       -6.601   1.447  -2.635  0.00  0.00    +0.350 A 
ATOM     26  N   LIG    1       -5.327   1.785  -2.744  0.00  0.00    -0.550 NA
ENDBRANCH  18  21
ENDBRANCH  15  17
ENDBRANCH   4  15
TORSDOF 5
