REMARK  Name = ZINCrg000000rNLk.0
REMARK                            x       y       z     vdW  Elec       q    Type
REMARK                         _______ _______ _______ _____ _____    ______ ____
ROOT
ATOM      1  N   LIG    1        4.562   5.484  -0.898  0.00  0.00    -1.010 NA
ATOM      2  C   LIG    1        3.259   6.163  -0.906  0.00  0.00    +0.300 C 
ATOM      3  C   LIG    1        2.393   5.577   0.215  0.00  0.00    +0.290 C 
ATOM      4  N   LIG    1        2.428   4.111   0.118  0.00  0.00    -0.600 N 
ATOM      5  C   LIG    1        3.731   3.431   0.132  0.00  0.00    +0.260 C 
ATOM      6  C   LIG    1        1.286   3.402   0.023  0.00  0.00    +0.570 C 
ATOM      7  O   LIG    1        0.220   3.978  -0.083  0.00  0.00    -0.520 OA
ATOM      8  C   LIG    1        4.597   4.018  -0.996  0.00  0.00    +0.290 C 
ENDROOT
BRANCH   6   9
ATOM      9  C   LIG    1        1.328   1.926   0.048  0.00  0.00    -0.120 A 
ATOM     10  C   LIG    1        2.290   1.266   0.814  0.00  0.00    +0.070 A 
ATOM     11  C   LIG    1        2.325  -0.113   0.835  0.00  0.00    +0.030 A 
ATOM     12  C   LIG    1        1.408  -0.844   0.097  0.00  0.00    +0.100 A 
ATOM     13  C   LIG    1        0.449  -0.193  -0.668  0.00  0.00    +0.070 A 
ATOM     14  F   LIG    1       -0.443  -0.911  -1.386  0.00  0.00    -0.120 F 
ATOM     15  F   LIG    1        1.448  -2.194   0.121  0.00  0.00    -0.120 F 
ATOM     16  C   LIG    1        0.405   1.186  -0.696  0.00  0.00    +0.090 A 
ENDBRANCH   6   9
BRANCH   1  17
ATOM     17  S   LIG    1        5.966   6.354  -0.781  0.00  0.00    +2.780 S 
ATOM     18  O   LIG    1        5.643   7.689  -1.147  0.00  0.00    -0.970 OA
ATOM     19  O   LIG    1        6.968   5.590  -1.438  0.00  0.00    -0.970 OA
BRANCH  17  23
ATOM     20  C   LIG    1        8.220   8.649   1.409  0.00  0.00    +0.010 C 
ATOM     21  C   LIG    1        7.247   8.028   2.412  0.00  0.00    +0.200 C 
ATOM     22  C   LIG    1        5.998   7.530   1.675  0.00  0.00    +0.270 C 
ATOM     23  N   LIG    1        6.385   6.396   0.820  0.00  0.00    -1.010 NA
ATOM     24  C   LIG    1        7.150   5.298   1.432  0.00  0.00    +0.270 C 
ATOM     25  C   LIG    1        8.347   5.907   2.181  0.00  0.00    +0.140 C 
ATOM     26  C   LIG    1        9.054   4.814   2.985  0.00  0.00    +0.070 C 
ATOM     27  O   LIG    1        7.877   6.925   3.068  0.00  0.00    -0.370 OA
ENDBRANCH  17  23
ENDBRANCH   1  17
TORSDOF 3
