REMARK  Name = ZINCrD000000BtlN.0
REMARK                            x       y       z     vdW  Elec       q    Type
REMARK                         _______ _______ _______ _____ _____    ______ ____
ROOT
ATOM      1  C   LIG    1       -2.458   0.867   0.018  0.00  0.00    -0.080 A 
ATOM      2  C   LIG    1       -2.442  -0.528   0.005  0.00  0.00    +0.030 A 
ATOM      3  C   LIG    1       -3.631  -1.228   0.012  0.00  0.00    +0.120 A 
ATOM      4  C   LIG    1       -4.837  -0.550   0.021  0.00  0.00    -0.660 A 
ATOM      5  C   LIG    1       -4.859   0.834   0.029  0.00  0.00    +0.120 A 
ATOM      6  C   LIG    1       -3.677   1.546   0.028  0.00  0.00    +0.070 A 
ENDROOT
BRANCH   1   8
ATOM      7  O   LIG    1       -1.204   2.839   0.023  0.00  0.00    -0.520 OA
ATOM      8  C   LIG    1       -1.187   1.624   0.017  0.00  0.00    +0.560 C 
ATOM      9  N   LIG    1       -0.011   0.966   0.007  0.00  0.00    -0.720 N 
ATOM     10  H   LIG    1        0.002  -0.004   0.002  0.00  0.00    +0.400 HD
BRANCH   9  11
ATOM     11  C   LIG    1        1.248   1.716  -0.001  0.00  0.00    +0.330 C 
BRANCH  11  12
ATOM     12  C   LIG    1        2.406   0.752  -0.017  0.00  0.00    -0.150 A 
ATOM     13  C   LIG    1        3.124   0.554  -1.181  0.00  0.00    +0.070 A 
ATOM     14  C   LIG    1        4.188  -0.329  -1.196  0.00  0.00    +0.000 A 
ATOM     15  C   LIG    1        4.533  -1.017  -0.047  0.00  0.00    +0.060 A 
ATOM     16  C   LIG    1        3.815  -0.821   1.118  0.00  0.00    -0.020 A 
ATOM     17  C   LIG    1        2.755   0.068   1.136  0.00  0.00    +0.110 A 
ATOM     18  F   LIG    1        2.057   0.265   2.276  0.00  0.00    -0.130 F 
ENDBRANCH  11  12
ENDBRANCH   9  11
ENDBRANCH   1   8
BRANCH   4  19
ATOM     19  S   LIG    1       -6.351  -1.452   0.023  0.00  0.00    +2.680 S 
ATOM     20  O   LIG    1       -7.332  -0.586   0.577  0.00  0.00    -0.950 OA
ATOM     21  O   LIG    1       -6.053  -2.733   0.559  0.00  0.00    -0.950 OA
BRANCH  19  22
ATOM     22  N   LIG    1       -6.779  -1.694  -1.558  0.00  0.00    -0.990 NA
ATOM     23  C   LIG    1       -7.612  -0.708  -2.209  0.00  0.00    +0.280 C 
ATOM     24  C   LIG    1       -9.100  -1.055  -1.997  0.00  0.00    +0.010 C 
ATOM     25  C   LIG    1       -9.465  -2.242  -2.786  0.00  0.00    +0.000 C 
ATOM     26  C   LIG    1       -8.719  -3.513  -2.392  0.00  0.00    +0.010 C 
ATOM     27  C   LIG    1       -7.393  -3.558  -3.111  0.00  0.00    +0.020 C 
ATOM     28  C   LIG    1       -6.299  -2.910  -2.243  0.00  0.00    +0.270 C 
ENDBRANCH  19  22
ENDBRANCH   4  19
TORSDOF 5
