REMARK  Name = ZINCpk000000oD7p.0
REMARK                            x       y       z     vdW  Elec       q    Type
REMARK                         _______ _______ _______ _____ _____    ______ ____
ROOT
ATOM      1  N   LIG    1        0.803   0.712   4.604  0.00  0.00    -0.740 N 
ATOM      2  H   LIG    1        1.741   0.583   4.392  0.00  0.00    +0.400 HD
ATOM      3  C   LIG    1       -0.046   1.164   3.660  0.00  0.00    +0.710 C 
ATOM      4  N   LIG    1        0.408   1.436   2.421  0.00  0.00    -0.730 N 
ATOM      5  H   LIG    1        1.346   1.307   2.208  0.00  0.00    +0.400 HD
ATOM      6  O   LIG    1       -1.221   1.325   3.926  0.00  0.00    -0.590 OA
ENDROOT
BRANCH   4   7
ATOM      7  C   LIG    1       -0.515   1.927   1.394  0.00  0.00    +0.260 C 
ATOM      8  C   LIG    1       -0.679   3.441   1.538  0.00  0.00    +0.020 C 
BRANCH   7   9
ATOM      9  C   LIG    1        0.046   1.604   0.008  0.00  0.00    +0.180 C 
BRANCH   9  10
ATOM     10  N   LIG    1        0.300   0.161  -0.094  0.00  0.00    -0.530 NA
ATOM     11  C   LIG    1        1.240  -0.133  -1.185  0.00  0.00    +0.150 C 
ATOM     12  C   LIG    1        1.522  -1.638  -1.217  0.00  0.00    +0.220 C 
ATOM     13  O   LIG    1        0.287  -2.346  -1.360  0.00  0.00    -0.390 OA
ATOM     14  C   LIG    1       -0.651  -2.083  -0.314  0.00  0.00    +0.220 C 
ATOM     15  C   LIG    1       -0.955  -0.583  -0.273  0.00  0.00    +0.150 C 
ENDBRANCH   9  10
ENDBRANCH   7   9
ENDBRANCH   4   7
BRANCH   1  16
ATOM     16  C   LIG    1        0.310   0.416   5.952  0.00  0.00    +0.340 C 
BRANCH  16  20
ATOM     17  C   LIG    1        3.494  -1.024   8.334  0.00  0.00    +0.410 A 
ATOM     18  C   LIG    1        3.249   0.346   8.314  0.00  0.00    -0.110 A 
ATOM     19  C   LIG    1        2.211   0.833   7.540  0.00  0.00    +0.120 A 
ATOM     20  C   LIG    1        1.450  -0.070   6.809  0.00  0.00    -0.230 A 
ATOM     21  C   LIG    1        1.745  -1.417   6.879  0.00  0.00    +0.320 A 
ATOM     22  N   LIG    1        2.745  -1.852   7.622  0.00  0.00    -0.540 NA
BRANCH  17  23
ATOM     23  N   LIG    1        4.533  -1.526   9.108  0.00  0.00    -0.610 N 
BRANCH  23  25
ATOM     24  C   LIG    1        4.633  -0.581  11.361  0.00  0.00    +0.020 C 
ATOM     25  C   LIG    1        5.295  -0.631   9.982  0.00  0.00    +0.280 C 
ENDBRANCH  23  25
BRANCH  23  26
ATOM     26  C   LIG    1        4.867  -2.952   9.049  0.00  0.00    +0.280 C 
ATOM     27  C   LIG    1        5.909  -3.187   7.954  0.00  0.00    -0.000 C 
ENDBRANCH  23  26
ENDBRANCH  17  23
ENDBRANCH  16  20
ENDBRANCH   1  16
TORSDOF 8
