REMARK  Name = ZINCrD0000070VQi.0
REMARK                            x       y       z     vdW  Elec       q    Type
REMARK                         _______ _______ _______ _____ _____    ______ ____
ROOT
ATOM      1  C   LIG    1        2.475   1.081  -0.016  0.00  0.00    +0.400 C 
ATOM      2  O   LIG    1        2.497  -0.132  -0.024  0.00  0.00    -0.420 OA
ENDROOT
BRANCH   1   6
ATOM      3  C   LIG    1       -1.236   3.135   0.031  0.00  0.00    -0.050 A 
ATOM      4  C   LIG    1       -1.215   1.751   0.017  0.00  0.00    +0.010 A 
ATOM      5  C   LIG    1       -0.013   1.076   0.008  0.00  0.00    +0.090 A 
ATOM      6  C   LIG    1        1.188   1.793   0.000  0.00  0.00    -0.170 A 
ATOM      7  C   LIG    1        1.158   3.192   0.008  0.00  0.00    +0.060 A 
ATOM      8  C   LIG    1       -0.052   3.852   0.023  0.00  0.00    +0.010 A 
BRANCH   3   9
ATOM      9  C   LIG    1       -2.554   3.864   0.047  0.00  0.00    +0.080 C 
BRANCH   9  10
ATOM     10  C   LIG    1       -3.014   4.119  -1.389  0.00  0.00    +0.260 C 
BRANCH  10  13
ATOM     11  C   LIG    1       -6.215   5.891  -2.517  0.00  0.00    +0.090 C 
ATOM     12  C   LIG    1       -4.897   5.161  -2.533  0.00  0.00    +0.510 C 
ATOM     13  N   LIG    1       -4.296   4.828  -1.373  0.00  0.00    -0.740 N 
ATOM     14  H   LIG    1       -4.712   5.059  -0.528  0.00  0.00    +0.400 HD
ATOM     15  O   LIG    1       -4.376   4.873  -3.590  0.00  0.00    -0.540 OA
ENDBRANCH  10  13
ENDBRANCH   9  10
ENDBRANCH   3   9
ENDBRANCH   1   6
BRANCH   1  16
ATOM     16  C   LIG    1        3.767   1.858  -0.025  0.00  0.00    +0.240 C 
BRANCH  16  17
ATOM     17  O   LIG    1        4.887   0.934  -0.041  0.00  0.00    -0.340 OA
BRANCH  17  18
ATOM     18  C   LIG    1        6.124   1.472  -0.050  0.00  0.00    +0.540 C 
ATOM     19  O   LIG    1        6.261   2.681  -0.044  0.00  0.00    -0.500 OA
BRANCH  18  20
ATOM     20  C   LIG    1        7.301   0.602  -0.066  0.00  0.00    -0.270 A 
ATOM     21  C   LIG    1        8.596   1.024  -0.076  0.00  0.00    +0.120 A 
ATOM     22  C   LIG    1        9.523  -0.001  -0.091  0.00  0.00    -0.130 A 
ATOM     23  C   LIG    1        8.975  -1.237  -0.093  0.00  0.00    -0.190 A 
ATOM     24  C   LIG    1        9.773  -2.528  -0.109  0.00  0.00    +0.120 C 
ATOM     25  C   LIG    1       11.209  -2.212  -0.534  0.00  0.00    +0.020 C 
ATOM     26  C   LIG    1       11.736  -1.050   0.312  0.00  0.00    +0.020 C 
ATOM     27  C   LIG    1       11.027   0.239  -0.105  0.00  0.00    +0.100 C 
ATOM     28  S   LIG    1        7.269  -1.154  -0.068  0.00  0.00    +0.260 S 
ENDBRANCH  18  20
ENDBRANCH  17  18
ENDBRANCH  16  17
ENDBRANCH   1  16
TORSDOF 8
