REMARK  Name = ZINCrg00000SjSwm.0
REMARK                            x       y       z     vdW  Elec       q    Type
REMARK                         _______ _______ _______ _____ _____    ______ ____
ROOT
ATOM      1  C   LIG    1        9.251   2.737   1.598  0.00  0.00    -0.720 A 
ATOM      2  C   LIG    1        7.997   2.840   1.121  0.00  0.00    +0.220 A 
ATOM      3  C   LIG    1        7.340   2.002   0.054  0.00  0.00    +0.430 C 
ATOM      4  N   LIG    1        5.903   2.335   0.061  0.00  0.00    -0.610 N 
ATOM      5  C   LIG    1        5.524   3.751   0.185  0.00  0.00    +0.310 C 
ATOM      6  C   LIG    1        6.000   4.284   1.540  0.00  0.00    +0.330 C 
ATOM      7  C   LIG    1        4.966   1.371  -0.037  0.00  0.00    +0.620 C 
ATOM      8  O   LIG    1        3.789   1.670  -0.082  0.00  0.00    -0.520 OA
ATOM      9  N   LIG    1        7.383   3.858   1.768  0.00  0.00    -0.350 N 
ATOM     10  N   LIG    1        8.300   4.402   2.671  0.00  0.00    -0.270 NA
ATOM     11  C   LIG    1        9.421   3.730   2.572  0.00  0.00    +0.320 A 
ENDROOT
BRANCH   7  12
ATOM     12  C   LIG    1        5.370  -0.047  -0.090  0.00  0.00    -0.120 A 
ATOM     13  C   LIG    1        4.524  -1.119  -0.071  0.00  0.00    +0.130 A 
ATOM     14  N   LIG    1        5.293  -2.224  -0.132  0.00  0.00    -0.350 N 
ATOM     15  N   LIG    1        6.625  -1.789  -0.196  0.00  0.00    -0.040 NA
ATOM     16  C   LIG    1        3.019  -1.075   0.004  0.00  0.00    +0.180 C 
ATOM     17  N   LIG    1        6.632  -0.502  -0.169  0.00  0.00    -0.190 NA
BRANCH  14  18
ATOM     18  C   LIG    1        4.827  -3.613  -0.137  0.00  0.00    +0.250 C 
ATOM     19  C   LIG    1        5.280  -4.299  -1.427  0.00  0.00    +0.060 C 
ATOM     20  C   LIG    1        5.416  -4.353   1.067  0.00  0.00    +0.060 C 
ENDBRANCH  14  18
ENDBRANCH   7  12
BRANCH   1  22
ATOM     21  N   LIG    1        9.772   0.294   0.710  0.00  0.00    -1.120 NA
ATOM     22  S   LIG    1       10.463   1.563   1.091  0.00  0.00    +2.440 S 
ATOM     23  O   LIG    1       11.126   2.073  -0.058  0.00  0.00    -0.930 OA
ATOM     24  C   LIG    1       11.550   1.219   2.501  0.00  0.00    -0.210 C 
BRANCH  21  26
ATOM     25  C   LIG    1        9.781  -2.024  -0.092  0.00  0.00    +0.120 C 
ATOM     26  C   LIG    1       10.478  -0.745   0.291  0.00  0.00    +0.560 C 
ATOM     27  O   LIG    1       11.689  -0.666   0.217  0.00  0.00    -0.590 OA
ENDBRANCH  21  26
ENDBRANCH   1  22
TORSDOF 4
