REMARK  Name = ZINCpk00000KfLPq.1
REMARK                            x       y       z     vdW  Elec       q    Type
REMARK                         _______ _______ _______ _____ _____    ______ ____
ROOT
ATOM      1  N   LIG    1       -2.774   3.571   2.491  0.00  0.00    -0.440 N 
ATOM      2  C   LIG    1       -1.609   4.435   2.256  0.00  0.00    +0.260 C 
ATOM      3  C   LIG    1       -0.807   3.894   1.070  0.00  0.00    +0.270 C 
ATOM      4  N   LIG    1       -0.370   2.522   1.360  0.00  0.00    -0.370 N 
ATOM      5  C   LIG    1       -1.546   1.665   1.568  0.00  0.00    +0.310 C 
ATOM      6  H   LIG    1        0.199   2.519   2.192  0.00  0.00    +0.420 HD
ATOM      7  C   LIG    1       -2.353   2.188   2.758  0.00  0.00    +0.190 C 
ATOM      8  C   LIG    1       -1.487   2.151   4.018  0.00  0.00    +0.040 C 
ENDROOT
BRANCH   4   9
ATOM      9  C   LIG    1        0.414   2.009   0.229  0.00  0.00    +0.160 C 
ATOM     10  C   LIG    1        1.651   2.887   0.021  0.00  0.00    +0.050 C 
ATOM     11  C   LIG    1        2.139   2.799  -1.413  0.00  0.00    +0.050 C 
ATOM     12  C   LIG    1        2.681   1.433  -1.793  0.00  0.00    +0.020 C 
ATOM     13  C   LIG    1        1.565   0.386  -1.801  0.00  0.00    +0.280 C 
ATOM     14  N   LIG    1        1.413  -0.150  -0.439  0.00  0.00    -0.540 N 
ATOM     15  C   LIG    1        0.872   0.597   0.525  0.00  0.00    +0.500 C 
ATOM     16  O   LIG    1        0.747   0.143   1.643  0.00  0.00    -0.550 OA
BRANCH  14  17
ATOM     17  C   LIG    1        1.859  -1.513  -0.139  0.00  0.00    +0.220 C 
BRANCH  17  18
ATOM     18  C   LIG    1        0.724  -2.476  -0.375  0.00  0.00    +0.490 C 
ATOM     19  O   LIG    1        0.886  -3.669  -0.184  0.00  0.00    -0.680 OA
ATOM     20  O   LIG    1       -0.357  -2.062  -0.758  0.00  0.00    -0.690 OA
ENDBRANCH  17  18
ENDBRANCH  14  17
ENDBRANCH   4   9
BRANCH   1  25
ATOM     21  C   LIG    1       -4.902   7.019   5.174  0.00  0.00    +0.160 C 
ATOM     22  C   LIG    1       -4.553   5.605   4.789  0.00  0.00    +0.090 A 
ATOM     23  C   LIG    1       -4.997   4.544   5.463  0.00  0.00    -0.090 A 
ATOM     24  S   LIG    1       -4.365   3.096   4.683  0.00  0.00    +0.140 S 
ATOM     25  C   LIG    1       -3.555   4.060   3.526  0.00  0.00    +0.210 A 
ATOM     26  N   LIG    1       -3.783   5.316   3.755  0.00  0.00    -0.500 NA
ENDBRANCH   1  25
TORSDOF 4
