REMARK  Name = ZINCpk00000KfLPq.2
REMARK                            x       y       z     vdW  Elec       q    Type
REMARK                         _______ _______ _______ _____ _____    ______ ____
ROOT
ATOM      1  N   LIG    1       -5.350   1.556   0.816  0.00  0.00    -0.450 N 
ATOM      2  C   LIG    1       -4.429   2.134   1.805  0.00  0.00    +0.260 C 
ATOM      3  C   LIG    1       -4.315   1.190   3.004  0.00  0.00    +0.290 C 
ATOM      4  N   LIG    1       -3.818  -0.117   2.552  0.00  0.00    -0.390 N 
ATOM      5  C   LIG    1       -4.761  -0.692   1.583  0.00  0.00    +0.280 C 
ATOM      6  H   LIG    1       -2.916  -0.001   2.115  0.00  0.00    +0.420 HD
ATOM      7  C   LIG    1       -4.879   0.237   0.373  0.00  0.00    +0.130 C 
ATOM      8  C   LIG    1       -5.876  -0.352  -0.627  0.00  0.00    +0.090 C 
ENDROOT
BRANCH   4   9
ATOM      9  C   LIG    1       -3.692  -1.018   3.705  0.00  0.00    +0.180 C 
ATOM     10  C   LIG    1       -2.638  -2.088   3.409  0.00  0.00    +0.070 C 
ATOM     11  C   LIG    1       -1.516  -1.516   2.562  0.00  0.00    +0.020 C 
ATOM     12  C   LIG    1       -0.680  -0.471   3.279  0.00  0.00    +0.030 C 
ATOM     13  C   LIG    1       -1.503   0.788   3.558  0.00  0.00    +0.260 C 
ATOM     14  N   LIG    1       -2.216   0.610   4.834  0.00  0.00    -0.570 N 
ATOM     15  C   LIG    1       -3.247  -0.231   4.921  0.00  0.00    +0.500 C 
ATOM     16  O   LIG    1       -3.830  -0.365   5.975  0.00  0.00    -0.490 OA
BRANCH  14  17
ATOM     17  C   LIG    1       -1.789   1.363   6.017  0.00  0.00    +0.220 C 
BRANCH  17  18
ATOM     18  C   LIG    1       -2.530   2.674   6.073  0.00  0.00    +0.490 C 
ATOM     19  O   LIG    1       -2.320   3.454   6.985  0.00  0.00    -0.670 OA
ATOM     20  O   LIG    1       -3.340   2.954   5.205  0.00  0.00    -0.690 OA
ENDBRANCH  17  18
ENDBRANCH  14  17
ENDBRANCH   4   9
BRANCH   1  25
ATOM     21  C   LIG    1       -7.517   5.084  -1.731  0.00  0.00    +0.160 C 
ATOM     22  C   LIG    1       -6.478   4.024  -1.470  0.00  0.00    +0.080 A 
ATOM     23  C   LIG    1       -5.496   3.749  -2.329  0.00  0.00    -0.060 A 
ATOM     24  S   LIG    1       -4.510   2.463  -1.640  0.00  0.00    +0.060 S 
ATOM     25  C   LIG    1       -5.521   2.411  -0.262  0.00  0.00    +0.220 A 
ATOM     26  N   LIG    1       -6.467   3.291  -0.370  0.00  0.00    -0.440 NA
ENDBRANCH   1  25
TORSDOF 4
