REMARK  Name = ZINCrD00000rSVsD.0
REMARK                            x       y       z     vdW  Elec       q    Type
REMARK                         _______ _______ _______ _____ _____    ______ ____
ROOT
ATOM      1  C   LIG    1        4.124   2.412  -3.197  0.00  0.00    +0.010 C 
ATOM      2  C   LIG    1        5.527   1.827  -3.339  0.00  0.00    +0.070 C 
ATOM      3  C   LIG    1        6.573   2.819  -2.906  0.00  0.00    -0.040 C 
ATOM      4  C   LIG    1        7.217   2.638  -1.779  0.00  0.00    -0.080 C 
ATOM      5  C   LIG    1        8.269   3.626  -1.344  0.00  0.00    +0.260 C 
ATOM      6  O   LIG    1        8.735   3.277  -0.038  0.00  0.00    -0.380 OA
ATOM      7  C   LIG    1        8.006   3.902   1.021  0.00  0.00    +0.190 C 
ATOM      8  C   LIG    1        7.439   2.833   1.956  0.00  0.00    +0.040 C 
ATOM      9  C   LIG    1        6.020   3.220   2.376  0.00  0.00    +0.050 C 
ATOM     10  C   LIG    1        5.107   2.033   2.202  0.00  0.00    +0.510 C 
ATOM     11  N   LIG    1        3.884   2.206   1.638  0.00  0.00    -0.740 N 
ATOM     12  H   LIG    1        3.563   3.091   1.397  0.00  0.00    +0.400 HD
ATOM     13  C   LIG    1        3.070   1.005   1.400  0.00  0.00    +0.280 C 
ATOM     14  C   LIG    1        2.490   1.048  -0.016  0.00  0.00    +0.280 C 
ATOM     15  N   LIG    1        3.429   1.735  -0.910  0.00  0.00    -0.720 N 
ATOM     16  H   LIG    1        4.137   2.283  -0.537  0.00  0.00    +0.400 HD
ATOM     17  O   LIG    1        5.466   0.933   2.564  0.00  0.00    -0.520 OA
ATOM     18  C   LIG    1        3.313   1.571  -2.245  0.00  0.00    +0.530 C 
ATOM     19  O   LIG    1        2.540   0.745  -2.689  0.00  0.00    -0.530 OA
ENDROOT
BRANCH  14  20
ATOM     20  C   LIG    1        1.175   1.783   0.000  0.00  0.00    -0.100 A 
ATOM     21  C   LIG    1       -0.013   1.076   0.008  0.00  0.00    +0.020 A 
ATOM     22  C   LIG    1       -1.219   1.751   0.017  0.00  0.00    +0.000 A 
ATOM     23  C   LIG    1       -1.238   3.133   0.030  0.00  0.00    +0.000 A 
ATOM     24  C   LIG    1       -0.050   3.840   0.022  0.00  0.00    +0.000 A 
ATOM     25  C   LIG    1        1.156   3.165   0.008  0.00  0.00    +0.000 A 
ENDBRANCH  14  20
BRANCH   1  26
ATOM     26  C   LIG    1        4.186   3.855  -2.700  0.00  0.00    +0.040 C 
BRANCH  26  28
ATOM     27  C   LIG    1        2.824   5.865  -2.114  0.00  0.00    +0.020 C 
ATOM     28  C   LIG    1        2.783   4.464  -2.728  0.00  0.00    -0.030 C 
ATOM     29  C   LIG    1        2.295   4.555  -4.175  0.00  0.00    +0.020 C 
ENDBRANCH  26  28
ENDBRANCH   1  26
TORSDOF 3
