REMARK  Name = ZINCrg00001JduVZ.0
REMARK                            x       y       z     vdW  Elec       q    Type
REMARK                         _______ _______ _______ _____ _____    ______ ____
ROOT
ATOM      1  C   LIG    1       -3.364   1.730   2.508  0.00  0.00    +0.280 C 
ENDROOT
BRANCH   1   2
ATOM      2  C   LIG    1       -2.718   1.677   3.869  0.00  0.00    +0.510 C 
ATOM      3  N   LIG    1       -2.803   2.738   4.696  0.00  0.00    -0.680 N 
ATOM      4  H   LIG    1       -3.337   3.508   4.445  0.00  0.00    +0.410 HD
ATOM      5  O   LIG    1       -2.122   0.681   4.219  0.00  0.00    -0.480 OA
BRANCH   3   6
ATOM      6  C   LIG    1       -2.121   2.728   5.918  0.00  0.00    +0.150 A 
ATOM      7  C   LIG    1       -2.672   3.356   7.027  0.00  0.00    -0.030 A 
ATOM      8  C   LIG    1       -1.999   3.340   8.233  0.00  0.00    +0.030 A 
ATOM      9  C   LIG    1       -0.773   2.708   8.334  0.00  0.00    -0.010 A 
ATOM     10  C   LIG    1       -0.219   2.087   7.230  0.00  0.00    +0.030 A 
ATOM     11  C   LIG    1       -0.889   2.095   6.023  0.00  0.00    +0.010 A 
ENDBRANCH   3   6
ENDBRANCH   1   2
BRANCH   1  12
ATOM     12  N   LIG    1       -3.131   0.464   1.808  0.00  0.00    -1.090 NA
ATOM     13  H   LIG    1       -3.160  -0.373   2.297  0.00  0.00    +0.440 HD
BRANCH  12  14
ATOM     14  S   LIG    1       -2.818   0.463   0.182  0.00  0.00    +2.690 S 
ATOM     15  O   LIG    1       -2.539  -0.884  -0.172  0.00  0.00    -0.940 OA
ATOM     16  O   LIG    1       -3.850   1.228  -0.426  0.00  0.00    -0.950 OA
BRANCH  14  20
ATOM     17  C   LIG    1        1.028   2.774  -0.452  0.00  0.00    -0.110 A 
ATOM     18  C   LIG    1        1.066   1.394  -0.231  0.00  0.00    +0.070 A 
ATOM     19  C   LIG    1       -0.108   0.698  -0.036  0.00  0.00    +0.130 A 
ATOM     20  C   LIG    1       -1.323   1.362  -0.062  0.00  0.00    -0.660 A 
ATOM     21  C   LIG    1       -1.368   2.729  -0.275  0.00  0.00    +0.110 A 
ATOM     22  C   LIG    1       -0.202   3.439  -0.472  0.00  0.00    +0.060 A 
BRANCH  17  24
ATOM     23  C   LIG    1        2.232   5.012  -0.898  0.00  0.00    +0.090 C 
ATOM     24  C   LIG    1        2.277   3.524  -0.661  0.00  0.00    +0.390 C 
ATOM     25  O   LIG    1        3.342   2.945  -0.643  0.00  0.00    -0.440 OA
ENDBRANCH  17  24
ENDBRANCH  14  20
ENDBRANCH  12  14
ENDBRANCH   1  12
BRANCH   1  26
ATOM     26  C   LIG    1       -4.869   1.956   2.666  0.00  0.00    +0.070 C 
BRANCH  26  27
ATOM     27  C   LIG    1       -5.467   0.822   3.458  0.00  0.00    +0.510 C 
ATOM     28  O   LIG    1       -4.780  -0.128   3.770  0.00  0.00    -0.520 OA
ATOM     29  N   LIG    1       -6.764   0.864   3.821  0.00  0.00    -0.850 N 
ATOM     30  H   LIG    1       -7.149   0.134   4.330  0.00  0.00    +0.410 HD
ATOM     31  H   LIG    1       -7.313   1.623   3.571  0.00  0.00    +0.400 HD
ENDBRANCH  26  27
ENDBRANCH   1  26
TORSDOF 8
