REMARK  Name = ZINCtV00000L6jmG.0
REMARK                            x       y       z     vdW  Elec       q    Type
REMARK                         _______ _______ _______ _____ _____    ______ ____
ROOT
ATOM      1  C   LIG    1        4.457  -5.817  -0.069  0.00  0.00    +0.000 A 
ATOM      2  C   LIG    1        5.637  -6.489  -0.084  0.00  0.00    -0.050 A 
ATOM      3  C   LIG    1        5.293  -7.911  -0.087  0.00  0.00    -0.140 A 
ATOM      4  C   LIG    1        6.038  -9.092  -0.099  0.00  0.00    +0.080 A 
ATOM      5  C   LIG    1        5.394 -10.298  -0.098  0.00  0.00    +0.000 A 
ATOM      6  C   LIG    1        4.008 -10.355  -0.084  0.00  0.00    +0.070 A 
ATOM      7  C   LIG    1        3.255  -9.201  -0.072  0.00  0.00    +0.030 A 
ATOM      8  C   LIG    1        3.886  -7.963  -0.073  0.00  0.00    +0.080 A 
ATOM      9  O   LIG    1        3.432  -6.695  -0.058  0.00  0.00    -0.160 OA
ENDROOT
BRANCH   1  10
ATOM     10  C   LIG    1        4.317  -4.355  -0.061  0.00  0.00    +0.550 C 
ATOM     11  O   LIG    1        5.307  -3.650  -0.067  0.00  0.00    -0.470 OA
BRANCH  10  12
ATOM     12  O   LIG    1        3.090  -3.795  -0.046  0.00  0.00    -0.320 OA
BRANCH  12  13
ATOM     13  C   LIG    1        3.028  -2.344  -0.039  0.00  0.00    +0.240 C 
BRANCH  13  15
ATOM     14  O   LIG    1        0.699  -2.732  -0.018  0.00  0.00    -0.410 OA
ATOM     15  C   LIG    1        1.587  -1.903  -0.023  0.00  0.00    +0.430 C 
BRANCH  15  16
ATOM     16  C   LIG    1        1.270  -0.529  -0.013  0.00  0.00    -0.310 A 
ATOM     17  C   LIG    1        0.002  -0.004   0.002  0.00  0.00    +0.150 A 
ATOM     18  C   LIG    1       -0.017   1.367   0.010  0.00  0.00    +0.020 A 
ATOM     19  C   LIG    1        1.191   1.953   0.001  0.00  0.00    -0.150 A 
ATOM     20 CL   LIG    1        1.451   3.670   0.007  0.00  0.00    +0.000 Cl
ATOM     21  S   LIG    1        2.436   0.787  -0.017  0.00  0.00    +0.280 S 
ENDBRANCH  15  16
ENDBRANCH  13  15
ENDBRANCH  12  13
ENDBRANCH  10  12
ENDBRANCH   1  10
BRANCH   2  22
ATOM     22  C   LIG    1        7.021  -5.892  -0.095  0.00  0.00    +0.180 C 
BRANCH  22  23
ATOM     23  S   LIG    1        7.593  -5.659   1.610  0.00  0.00    -0.240 S 
BRANCH  23  24
ATOM     24  C   LIG    1        9.245  -4.944   1.393  0.00  0.00    +0.040 C 
ATOM     25  C   LIG    1       10.159  -5.967   0.716  0.00  0.00    +0.030 C 
ATOM     26  C   LIG    1       11.553  -5.364   0.532  0.00  0.00    +0.010 C 
ATOM     27  C   LIG    1       12.130  -4.989   1.899  0.00  0.00    +0.000 C 
ATOM     28  C   LIG    1       11.216  -3.965   2.575  0.00  0.00    +0.020 C 
ATOM     29  C   LIG    1        9.823  -4.569   2.759  0.00  0.00    +0.040 C 
ENDBRANCH  23  24
ENDBRANCH  22  23
ENDBRANCH   2  22
TORSDOF 8
