REMARK  Name = ZINCpk00000kJ3IH.0
REMARK                            x       y       z     vdW  Elec       q    Type
REMARK                         _______ _______ _______ _____ _____    ______ ____
ROOT
ATOM      1  C   LIG    1       -2.247  -5.102   1.511  0.00  0.00    +0.430 A 
ATOM      2  C   LIG    1       -1.777  -4.154   0.586  0.00  0.00    -0.060 A 
ATOM      3  N   LIG    1       -0.926  -4.190  -0.467  0.00  0.00    -0.450 NA
ATOM      4  C   LIG    1       -0.839  -3.004  -0.996  0.00  0.00    +0.480 A 
ATOM      5  N   LIG    1       -1.631  -2.131  -0.312  0.00  0.00    -0.470 N 
ATOM      6  C   LIG    1       -2.236  -2.830   0.702  0.00  0.00    +0.300 A 
ATOM      7  N   LIG    1       -3.098  -2.528   1.667  0.00  0.00    -0.540 NA
ATOM      8  C   LIG    1       -3.511  -3.450   2.511  0.00  0.00    +0.560 A 
ATOM      9  N   LIG    1       -3.104  -4.704   2.445  0.00  0.00    -0.570 NA
ENDROOT
BRANCH   1  10
ATOM     10  N   LIG    1       -1.827  -6.419   1.450  0.00  0.00    -0.460 N 
ATOM     11  C   LIG    1       -0.362  -6.508   1.512  0.00  0.00    +0.260 C 
BRANCH  10  12
ATOM     12  C   LIG    1       -2.449  -7.220   2.513  0.00  0.00    +0.280 C 
BRANCH  12  20
ATOM     13  C   LIG    1       -4.040  -8.453   0.441  0.00  0.00    +0.100 C 
ATOM     14  C   LIG    1       -3.039  -9.275   1.211  0.00  0.00    -0.070 A 
ATOM     15  C   LIG    1       -2.880 -10.617   0.922  0.00  0.00    +0.040 A 
ATOM     16  C   LIG    1       -1.967 -11.373   1.633  0.00  0.00    +0.000 A 
ATOM     17  C   LIG    1       -1.208 -10.785   2.630  0.00  0.00    +0.090 A 
ATOM     18  C   LIG    1       -1.364  -9.439   2.914  0.00  0.00    -0.010 A 
ATOM     19  F   LIG    1       -0.315 -11.523   3.324  0.00  0.00    -0.140 F 
ATOM     20  C   LIG    1       -2.278  -8.685   2.203  0.00  0.00    -0.060 A 
ENDBRANCH  12  20
ENDBRANCH  10  12
ENDBRANCH   1  10
BRANCH   5  21
ATOM     21  C   LIG    1       -1.801  -0.705  -0.602  0.00  0.00    +0.260 C 
BRANCH  21  22
ATOM     22  C   LIG    1       -2.356  -0.535  -2.018  0.00  0.00    +0.180 C 
BRANCH  22  23
ATOM     23  O   LIG    1       -2.631   0.846  -2.259  0.00  0.00    -0.540 OA
ATOM     24  H   LIG    1       -2.987   1.028  -3.140  0.00  0.00    +0.380 HD
ENDBRANCH  22  23
ENDBRANCH  21  22
BRANCH  21  25
ATOM     25  C   LIG    1       -0.449   0.002  -0.496  0.00  0.00    +0.180 C 
BRANCH  25  26
ATOM     26  O   LIG    1       -0.632   1.409  -0.665  0.00  0.00    -0.540 OA
ATOM     27  H   LIG    1        0.186   1.922  -0.609  0.00  0.00    +0.380 HD
ENDBRANCH  25  26
ENDBRANCH  21  25
ENDBRANCH   5  21
TORSDOF 8
