REMARK  Name = ZINCpe000000TT6z.0
REMARK                            x       y       z     vdW  Elec       q    Type
REMARK                         _______ _______ _______ _____ _____    ______ ____
ROOT
ATOM      1  N   LIG    1       -2.955  -3.956  -2.788  0.00  0.00    -0.540 NA
ATOM      2  C   LIG    1       -1.940  -4.668  -2.001  0.00  0.00    +0.180 C 
ATOM      3  C   LIG    1       -2.631  -5.679  -1.079  0.00  0.00    +0.300 C 
ATOM      4  N   LIG    1       -3.500  -6.539  -1.896  0.00  0.00    -0.600 N 
ATOM      5  C   LIG    1       -4.451  -5.894  -2.814  0.00  0.00    +0.300 C 
ATOM      6  C   LIG    1       -3.427  -7.881  -1.806  0.00  0.00    +0.610 C 
ATOM      7  O   LIG    1       -2.553  -8.399  -1.137  0.00  0.00    -0.550 OA
ATOM      8  C   LIG    1       -3.688  -4.875  -3.668  0.00  0.00    +0.170 C 
ENDROOT
BRANCH   6   9
ATOM      9  C   LIG    1       -4.406  -8.722  -2.517  0.00  0.00    -0.060 A 
ATOM     10  C   LIG    1       -4.373 -10.081  -2.628  0.00  0.00    +0.230 A 
ATOM     11  N   LIG    1       -5.454 -10.443  -3.357  0.00  0.00    -0.460 N 
ATOM     12  C   LIG    1       -6.131  -9.311  -3.682  0.00  0.00    +0.400 A 
ATOM     13  C   LIG    1       -5.827 -11.809  -3.730  0.00  0.00    +0.330 C 
ATOM     14  N   LIG    1       -5.509  -8.285  -3.177  0.00  0.00    -0.460 NA
ENDBRANCH   6   9
BRANCH   1  15
ATOM     15  C   LIG    1       -2.350  -2.861  -3.558  0.00  0.00    +0.360 C 
BRANCH  15  19
ATOM     16  C   LIG    1       -0.598  -0.669  -1.319  0.00  0.00    +0.170 A 
ATOM     17  N   LIG    1       -1.773  -0.118  -1.397  0.00  0.00    -0.350 NA
ATOM     18  O   LIG    1       -2.488  -0.758  -2.139  0.00  0.00    +0.090 OA
ATOM     19  C   LIG    1       -1.820  -1.814  -2.612  0.00  0.00    +0.190 A 
ATOM     20  N   LIG    1       -0.616  -1.767  -2.095  0.00  0.00    -0.470 NA
BRANCH  16  21
ATOM     21  C   LIG    1        0.567  -0.172  -0.502  0.00  0.00    +0.270 C 
ATOM     22  C   LIG    1        0.320  -0.477   0.977  0.00  0.00    +0.040 C 
BRANCH  21  23
ATOM     23  O   LIG    1        0.707   1.238  -0.681  0.00  0.00    -0.370 OA
BRANCH  23  25
ATOM     24  C   LIG    1        2.082   3.224  -0.769  0.00  0.00    +0.040 C 
ATOM     25  C   LIG    1        2.051   1.708  -0.560  0.00  0.00    +0.160 C 
ENDBRANCH  23  25
ENDBRANCH  21  23
ENDBRANCH  16  21
ENDBRANCH  15  19
ENDBRANCH   1  15
TORSDOF 6
