REMARK  Name = ZINCvU0000000ILF.0
REMARK                            x       y       z     vdW  Elec       q    Type
REMARK                         _______ _______ _______ _____ _____    ______ ____
ROOT
ATOM      1  C   LIG    1       -1.319   5.361  -2.227  0.00  0.00    -0.130 A 
ATOM      2  C   LIG    1       -0.120   4.928  -1.743  0.00  0.00    +0.120 A 
ATOM      3  C   LIG    1       -0.054   3.737  -1.004  0.00  0.00    -0.160 A 
ATOM      4  C   LIG    1       -1.231   3.014  -0.736  0.00  0.00    +0.160 A 
ATOM      5  O   LIG    1       -1.183   1.893   0.018  0.00  0.00    -0.270 OA
ATOM      6  C   LIG    1       -0.014   1.213   0.009  0.00  0.00    +0.520 A 
ATOM      7  C   LIG    1        1.237   1.988   0.001  0.00  0.00    -0.130 A 
ATOM      8  O   LIG    1        0.002  -0.004   0.002  0.00  0.00    -0.400 OA
ATOM      9  C   LIG    1       -2.441   3.465  -1.243  0.00  0.00    -0.010 A 
ATOM     10  C   LIG    1        1.194   3.254  -0.531  0.00  0.00    +0.190 A 
ATOM     11  C   LIG    1       -2.483   4.632  -1.987  0.00  0.00    +0.170 A 
ENDROOT
BRANCH   7  12
ATOM     12  C   LIG    1        2.494   1.424   0.546  0.00  0.00    +0.290 A 
ATOM     13  N   LIG    1        3.658   2.039   0.576  0.00  0.00    -0.290 NA
ATOM     14  N   LIG    1        4.571   1.154   1.173  0.00  0.00    -0.470 N 
ATOM     15  H   LIG    1        5.513   1.317   1.341  0.00  0.00    +0.440 HD
ATOM     16  C   LIG    1        3.879   0.028   1.464  0.00  0.00    +0.330 A 
ATOM     17  N   LIG    1        2.632   0.206   1.081  0.00  0.00    -0.500 NA
BRANCH  16  18
ATOM     18  C   LIG    1        4.428  -1.189   2.102  0.00  0.00    +0.000 A 
ATOM     19  C   LIG    1        5.775  -1.245   2.460  0.00  0.00    -0.020 A 
ATOM     20  C   LIG    1        6.284  -2.382   3.055  0.00  0.00    +0.060 A 
ATOM     21  C   LIG    1        5.462  -3.467   3.296  0.00  0.00    -0.050 A 
ATOM     22  C   LIG    1        4.120  -3.421   2.943  0.00  0.00    +0.130 A 
ATOM     23  C   LIG    1        3.599  -2.282   2.351  0.00  0.00    +0.050 A 
BRANCH  22  24
ATOM     24  O   LIG    1        3.317  -4.490   3.184  0.00  0.00    -0.310 OA
ATOM     25  C   LIG    1        3.920  -5.628   3.803  0.00  0.00    +0.250 C 
ENDBRANCH  22  24
ENDBRANCH  16  18
ENDBRANCH   7  12
BRANCH  11  26
ATOM     26  O   LIG    1       -3.667   5.070  -2.486  0.00  0.00    -0.490 OA
ATOM     27  H   LIG    1       -4.149   5.662  -1.893  0.00  0.00    +0.400 HD
ENDBRANCH  11  26
BRANCH   1  28
ATOM     28  C   LIG    1       -1.387   6.635  -3.028  0.00  0.00    +0.090 C 
BRANCH  28  29
ATOM     29  C   LIG    1       -1.440   6.299  -4.519  0.00  0.00    +0.010 C 
BRANCH  29  30
ATOM     30  C   LIG    1       -1.509   7.593  -5.332  0.00  0.00    +0.000 C 
BRANCH  30  31
ATOM     31  C   LIG    1       -1.563   7.256  -6.824  0.00  0.00    +0.000 C 
BRANCH  31  33
ATOM     32  C   LIG    1       -1.685   8.214  -9.128  0.00  0.00    +0.000 C 
ATOM     33  C   LIG    1       -1.631   8.551  -7.636  0.00  0.00    -0.010 C 
ENDBRANCH  31  33
ENDBRANCH  30  31
ENDBRANCH  29  30
ENDBRANCH  28  29
ENDBRANCH   1  28
TORSDOF 9
