REMARK  Name = ZINCvU0000000Eqt.0
REMARK                            x       y       z     vdW  Elec       q    Type
REMARK                         _______ _______ _______ _____ _____    ______ ____
ROOT
ATOM      1  C   LIG    1       -4.295   1.494   0.032  0.00  0.00    +0.140 A 
ATOM      2  N   LIG    1       -4.435   2.800   0.076  0.00  0.00    -0.290 NA
ATOM      3  N   LIG    1       -5.683   3.110   0.075  0.00  0.00    -0.250 NA
ATOM      4  C   LIG    1       -6.415   2.021   0.040  0.00  0.00    +0.220 A 
ATOM      5  N   LIG    1       -5.548   0.953   0.011  0.00  0.00    -0.440 N 
ENDROOT
BRANCH   4   6
ATOM      6  C   LIG    1       -7.891   1.955   0.032  0.00  0.00    -0.010 A 
ATOM      7  C   LIG    1       -8.553   1.173  -0.916  0.00  0.00    +0.040 A 
ATOM      8  C   LIG    1       -9.932   1.112  -0.914  0.00  0.00    +0.030 A 
ATOM      9  C   LIG    1      -10.659   1.831   0.017  0.00  0.00    +0.050 A 
ATOM     10  C   LIG    1      -10.010   2.612   0.957  0.00  0.00    +0.030 A 
ATOM     11  C   LIG    1       -8.631   2.679   0.971  0.00  0.00    -0.000 A 
ATOM     12 CL   LIG    1       -7.818   3.660   2.150  0.00  0.00    -0.040 Cl
ENDBRANCH   4   6
BRANCH   5  13
ATOM     13  C   LIG    1       -5.897  -0.469  -0.034  0.00  0.00    +0.230 C 
ATOM     14  C   LIG    1       -5.366  -1.184   1.226  0.00  0.00    +0.020 C 
ATOM     15  C   LIG    1       -4.911  -2.573   0.711  0.00  0.00    +0.030 C 
ATOM     16  C   LIG    1       -4.297  -2.241  -0.672  0.00  0.00    +0.040 C 
ATOM     17  C   LIG    1       -5.218  -1.141  -1.240  0.00  0.00    +0.020 C 
ENDBRANCH   5  13
BRANCH   1  18
ATOM     18  S   LIG    1       -2.772   0.607   0.012  0.00  0.00    +0.100 S 
BRANCH  18  19
ATOM     19  C   LIG    1       -1.603   1.988   0.057  0.00  0.00    +0.100 C 
BRANCH  19  22
ATOM     20  N   LIG    1        0.850   2.306   0.071  0.00  0.00    -0.670 N 
ATOM     21  H   LIG    1        0.696   3.263   0.036  0.00  0.00    +0.420 HD
ATOM     22  C   LIG    1       -0.194   1.454   0.047  0.00  0.00    +0.540 C 
ATOM     23  O   LIG    1        0.001   0.258   0.013  0.00  0.00    -0.490 OA
BRANCH  20  30
ATOM     24  C   LIG    1        3.131   2.513   0.867  0.00  0.00    -0.050 A 
ATOM     25  C   LIG    1        4.431   2.008   0.936  0.00  0.00    +0.110 A 
ATOM     26  C   LIG    1        4.745   0.828   0.297  0.00  0.00    +0.030 A 
ATOM     27  C   LIG    1        3.775   0.137  -0.413  0.00  0.00    +0.010 A 
ATOM     28  C   LIG    1        2.483   0.623  -0.486  0.00  0.00    +0.040 A 
ATOM     29 CL   LIG    1        4.185  -1.349  -1.212  0.00  0.00    -0.050 Cl
ATOM     30  C   LIG    1        2.151   1.812   0.146  0.00  0.00    +0.210 A 
BRANCH  24  32
ATOM     31  N   LIG    1        2.535   4.712   2.054  0.00  0.00    -0.400 NA
ATOM     32  C   LIG    1        2.799   3.739   1.529  0.00  0.00    +0.240 C 
ENDBRANCH  24  32
ENDBRANCH  20  30
ENDBRANCH  19  22
ENDBRANCH  18  19
ENDBRANCH   1  18
TORSDOF 7
