REMARK  Name = ZINCrH000004sYst.1
REMARK                            x       y       z     vdW  Elec       q    Type
REMARK                         _______ _______ _______ _____ _____    ______ ____
ROOT
ATOM      1  C   LIG    1       -0.940  -1.105  -2.081  0.00  0.00    +0.560 C 
ATOM      2  N   LIG    1       -1.506   0.062  -2.446  0.00  0.00    -0.710 N 
ATOM      3  H   LIG    1       -1.469   0.352  -3.370  0.00  0.00    +0.400 HD
ATOM      4  O   LIG    1       -0.987  -1.468  -0.922  0.00  0.00    -0.520 OA
ENDROOT
BRANCH   1  11
ATOM      5  C   LIG    1        2.932  -6.397  -6.503  0.00  0.00    +0.370 C 
ATOM      6  N   LIG    1        2.244  -5.524  -5.548  0.00  0.00    -0.510 N 
ATOM      7  C   LIG    1        1.698  -4.368  -5.983  0.00  0.00    +0.550 A 
ATOM      8  C   LIG    1        1.011  -3.506  -5.000  0.00  0.00    -0.160 A 
ATOM      9  C   LIG    1        0.424  -2.300  -5.373  0.00  0.00    +0.140 A 
ATOM     10  C   LIG    1       -0.211  -1.528  -4.426  0.00  0.00    +0.030 A 
ATOM     11  C   LIG    1       -0.259  -1.945  -3.093  0.00  0.00    -0.060 A 
ATOM     12  C   LIG    1        0.326  -3.151  -2.712  0.00  0.00    +0.070 A 
ATOM     13  C   LIG    1        0.961  -3.934  -3.662  0.00  0.00    +0.170 A 
ATOM     14  N   LIG    1        1.557  -5.142  -3.325  0.00  0.00    -0.580 N 
ATOM     15  H   LIG    1        1.530  -5.450  -2.405  0.00  0.00    +0.450 HD
ATOM     16  O   LIG    1        1.770  -4.046  -7.153  0.00  0.00    -0.470 OA
ATOM     17  C   LIG    1        2.170  -5.889  -4.259  0.00  0.00    +0.530 A 
ATOM     18  S   LIG    1        2.886  -7.369  -3.783  0.00  0.00    -0.530 S 
ENDBRANCH   1  11
BRANCH   2  19
ATOM     19  C   LIG    1       -2.180   0.893  -1.445  0.00  0.00    +0.320 C 
BRANCH  19  20
ATOM     20  C   LIG    1       -3.211   1.759  -2.122  0.00  0.00    -0.090 A 
ATOM     21  C   LIG    1       -2.928   2.345  -3.341  0.00  0.00    +0.030 A 
ATOM     22  C   LIG    1       -3.875   3.135  -3.965  0.00  0.00    +0.040 A 
ATOM     23  C   LIG    1       -5.103   3.348  -3.364  0.00  0.00    -0.030 A 
ATOM     24  C   LIG    1       -5.383   2.765  -2.141  0.00  0.00    +0.040 A 
ATOM     25 CL   LIG    1       -6.290   4.346  -4.143  0.00  0.00    -0.060 Cl
ATOM     26  C   LIG    1       -4.438   1.971  -1.520  0.00  0.00    +0.050 A 
ENDBRANCH  19  20
BRANCH  19  27
ATOM     27  C   LIG    1       -1.150   1.781  -0.743  0.00  0.00    -0.060 C 
ATOM     28  C   LIG    1       -0.013   1.086   0.008  0.00  0.00    +0.030 C 
ATOM     29  C   LIG    1       -1.136   1.773   0.788  0.00  0.00    +0.040 C 
ENDBRANCH  19  27
ENDBRANCH   2  19
TORSDOF 4
