REMARK  Name = ZINCpe000027pHlJ.0
REMARK                            x       y       z     vdW  Elec       q    Type
REMARK                         _______ _______ _______ _____ _____    ______ ____
ROOT
ATOM      1  C   LIG    1       -4.948  -0.292  -0.080  0.00  0.00    +0.320 C 
ATOM      2  C   LIG    1       -3.611  -1.025   0.030  0.00  0.00    -0.020 C 
ATOM      3  C   LIG    1       -3.591  -1.817   1.343  0.00  0.00    +0.040 C 
ATOM      4  C   LIG    1       -4.624  -2.942   1.246  0.00  0.00    +0.070 C 
ATOM      5  C   LIG    1       -5.933  -2.392   0.758  0.00  0.00    +0.520 C 
ATOM      6  O   LIG    1       -6.934  -3.056   0.927  0.00  0.00    -0.550 OA
ATOM      7  N   LIG    1       -6.055  -1.213   0.147  0.00  0.00    -0.600 N 
ATOM      8  C   LIG    1       -7.384  -0.818  -0.324  0.00  0.00    +0.290 C 
ENDROOT
BRANCH   1  12
ATOM      9  C   LIG    1       -4.937   2.974  -3.882  0.00  0.00    +0.360 C 
ATOM     10  N   LIG    1       -5.069   1.737  -3.107  0.00  0.00    -0.370 N 
ATOM     11  C   LIG    1       -4.850   1.604  -1.782  0.00  0.00    +0.260 A 
ATOM     12  C   LIG    1       -5.075   0.310  -1.455  0.00  0.00    -0.260 A 
ATOM     13  C   LIG    1       -5.452  -0.369  -2.619  0.00  0.00    +0.250 A 
ATOM     14  N   LIG    1       -5.448   0.486  -3.610  0.00  0.00    -0.290 NA
ENDBRANCH   1  12
BRANCH   2  15
ATOM     15  C   LIG    1       -2.466  -0.010   0.025  0.00  0.00    +0.300 C 
BRANCH  15  16
ATOM     16  N   LIG    1       -1.184  -0.719   0.009  0.00  0.00    -0.680 N 
ATOM     17  H   LIG    1       -1.166  -1.688   0.004  0.00  0.00    +0.420 HD
BRANCH  16  18
ATOM     18  C   LIG    1        0.002  -0.004   0.002  0.00  0.00    +0.490 A 
ATOM     19  N   LIG    1       -0.016   1.314   0.009  0.00  0.00    -0.550 NA
ATOM     20  C   LIG    1        1.117   2.024   0.002  0.00  0.00    +0.290 A 
ATOM     21  C   LIG    1        2.324   1.423  -0.013  0.00  0.00    +0.110 A 
ATOM     22  N   LIG    1        2.404   0.056  -0.021  0.00  0.00    -0.360 N 
ATOM     23  C   LIG    1        3.415  -0.835  -0.034  0.00  0.00    +0.370 A 
ATOM     24  N   LIG    1        2.887  -2.034  -0.035  0.00  0.00    -0.260 NA
ATOM     25  N   LIG    1        1.602  -1.953  -0.023  0.00  0.00    -0.250 NA
ATOM     26  C   LIG    1        1.245  -0.683  -0.013  0.00  0.00    +0.110 A 
ENDBRANCH  16  18
ENDBRANCH  15  16
ENDBRANCH   2  15
TORSDOF 4
