REMARK  Name = ZINCrD00000l4LF0.0
REMARK                            x       y       z     vdW  Elec       q    Type
REMARK                         _______ _______ _______ _____ _____    ______ ____
ROOT
ATOM      1  C   LIG    1        7.755  -1.555  -0.040  0.00  0.00    +0.300 C 
ENDROOT
BRANCH   1   2
ATOM      2  N   LIG    1        6.470  -0.843  -0.024  0.00  0.00    -0.540 NA
ATOM      3  C   LIG    1        5.704  -1.111  -1.249  0.00  0.00    +0.200 C 
ATOM      4  C   LIG    1        4.412  -0.291  -1.229  0.00  0.00    +0.190 C 
ATOM      5  N   LIG    1        3.630  -0.643  -0.035  0.00  0.00    -0.490 N 
ATOM      6  C   LIG    1        4.396  -0.375   1.190  0.00  0.00    +0.200 C 
ATOM      7  C   LIG    1        5.688  -1.195   1.170  0.00  0.00    +0.180 C 
BRANCH   5   8
ATOM      8  C   LIG    1        2.406   0.036  -0.020  0.00  0.00    +0.060 A 
ATOM      9  C   LIG    1        2.379   1.422  -0.013  0.00  0.00    -0.010 A 
ATOM     10  C   LIG    1        1.169   2.090   0.002  0.00  0.00    +0.010 A 
ATOM     11  C   LIG    1       -0.017   1.379   0.010  0.00  0.00    +0.030 A 
ATOM     12  C   LIG    1        0.002  -0.004   0.002  0.00  0.00    -0.010 A 
ATOM     13  C   LIG    1        1.210  -0.680  -0.013  0.00  0.00    +0.130 A 
BRANCH  13  14
ATOM     14  O   LIG    1        1.230  -2.040  -0.020  0.00  0.00    -0.490 OA
ATOM     15  H   LIG    1        1.228  -2.429  -0.906  0.00  0.00    +0.390 HD
ENDBRANCH  13  14
ENDBRANCH   5   8
ENDBRANCH   1   2
BRANCH   1  19
ATOM     16  C   LIG    1        9.059  -1.775   3.380  0.00  0.00    +0.060 A 
ATOM     17  N   LIG    1        9.597  -0.689   2.881  0.00  0.00    -0.330 NA
ATOM     18  O   LIG    1        9.244  -0.506   1.739  0.00  0.00    +0.120 OA
ATOM     19  C   LIG    1        8.399  -1.459   1.319  0.00  0.00    -0.030 A 
ATOM     20  C   LIG    1        8.242  -2.321   2.349  0.00  0.00    -0.050 A 
BRANCH  16  26
ATOM     21  C   LIG    1       10.099  -1.667   5.648  0.00  0.00    +0.150 A 
ATOM     22  C   LIG    1       10.280  -2.187   6.920  0.00  0.00    -0.080 A 
ATOM     23  C   LIG    1        9.634  -3.350   7.290  0.00  0.00    +0.060 A 
ATOM     24  C   LIG    1        8.803  -4.003   6.397  0.00  0.00    -0.030 A 
ATOM     25  C   LIG    1        8.608  -3.492   5.129  0.00  0.00    +0.070 A 
ATOM     26  C   LIG    1        9.259  -2.324   4.743  0.00  0.00    -0.060 A 
BRANCH  21  28
ATOM     27  C   LIG    1       11.576   0.092   6.259  0.00  0.00    +0.240 C 
ATOM     28  O   LIG    1       10.734  -0.524   5.282  0.00  0.00    -0.290 OA
ENDBRANCH  21  28
ENDBRANCH  16  26
ENDBRANCH   1  19
TORSDOF 6
