REMARK  Name = ZINCpk00000y6ufS.0
REMARK                            x       y       z     vdW  Elec       q    Type
REMARK                         _______ _______ _______ _____ _____    ______ ____
ROOT
ATOM      1  C   LIG    1        2.108  -0.001   1.144  0.00  0.00    +0.160 C 
ATOM      2  C   LIG    1        2.108   1.530   1.164  0.00  0.00    +0.160 C 
ATOM      3  N   LIG    1        1.362   2.030   0.000  0.00  0.00    -0.520 NA
ATOM      4  C   LIG    1       -0.019   1.527   0.010  0.00  0.00    +0.150 C 
ATOM      5  C   LIG    1        0.002  -0.004   0.002  0.00  0.00    +0.230 C 
ATOM      6  O   LIG    1        0.757  -0.472   1.123  0.00  0.00    -0.380 OA
ENDROOT
BRANCH   1   7
ATOM      7  C   LIG    1        2.814  -0.529   2.394  0.00  0.00    +0.320 C 
BRANCH   7   8
ATOM      8  N   LIG    1        2.914  -1.989   2.318  0.00  0.00    -0.690 N 
ATOM      9  H   LIG    1        2.556  -2.460   1.550  0.00  0.00    +0.420 HD
BRANCH   8  15
ATOM     10  C   LIG    1        4.354  -6.267   4.286  0.00  0.00    +0.320 C 
ATOM     11  N   LIG    1        4.225  -4.808   4.305  0.00  0.00    -0.490 N 
ATOM     12  C   LIG    1        4.707  -4.086   5.357  0.00  0.00    +0.160 A 
ATOM     13  C   LIG    1        4.593  -2.741   5.384  0.00  0.00    +0.190 A 
ATOM     14  N   LIG    1        4.009  -2.067   4.394  0.00  0.00    -0.510 NA
ATOM     15  C   LIG    1        3.521  -2.697   3.347  0.00  0.00    +0.350 A 
ATOM     16  C   LIG    1        3.621  -4.160   3.284  0.00  0.00    +0.480 A 
ATOM     17  O   LIG    1        3.175  -4.776   2.331  0.00  0.00    -0.530 OA
ENDBRANCH   8  15
ENDBRANCH   7   8
ENDBRANCH   1   7
BRANCH   3  18
ATOM     18  C   LIG    1        1.387   3.498  -0.050  0.00  0.00    +0.320 C 
BRANCH  18  19
ATOM     19  C   LIG    1        0.812   4.054   1.228  0.00  0.00    -0.270 A 
ATOM     20  C   LIG    1        1.497   4.337   2.340  0.00  0.00    +0.230 A 
ATOM     21  N   LIG    1        0.765   4.819   3.325  0.00  0.00    -0.470 NA
ATOM     22  C   LIG    1       -0.500   4.948   3.108  0.00  0.00    +0.080 A 
ATOM     23  S   LIG    1       -0.882   4.438   1.522  0.00  0.00    +0.130 S 
BRANCH  22  24
ATOM     24  C   LIG    1       -1.497   5.474   4.109  0.00  0.00    +0.030 C 
ATOM     25  C   LIG    1       -0.948   6.073   5.405  0.00  0.00    +0.060 C 
ATOM     26  C   LIG    1       -1.644   4.710   5.427  0.00  0.00    +0.060 C 
ENDBRANCH  22  24
ENDBRANCH  18  19
ENDBRANCH   3  18
TORSDOF 6
