REMARK  Name = ZINCvU0000000BYG.0
REMARK                            x       y       z     vdW  Elec       q    Type
REMARK                         _______ _______ _______ _____ _____    ______ ____
ROOT
ATOM      1  C   LIG    1       -3.724   3.134   0.160  0.00  0.00    +0.330 C 
ENDROOT
BRANCH   1   2
ATOM      2  C   LIG    1       -4.582   3.207  -1.077  0.00  0.00    -0.240 A 
ATOM      3  C   LIG    1       -5.277   2.192  -1.592  0.00  0.00    +0.030 A 
ATOM      4  C   LIG    1       -5.994   2.496  -2.736  0.00  0.00    +0.000 A 
ATOM      5  C   LIG    1       -5.882   3.759  -3.150  0.00  0.00    -0.050 A 
ATOM      6  S   LIG    1       -4.827   4.646  -2.058  0.00  0.00    +0.180 S 
ENDBRANCH   1   2
BRANCH   1   7
ATOM      7  C   LIG    1       -4.606   3.062   1.380  0.00  0.00    +0.500 C 
ATOM      8  N   LIG    1       -5.545   2.101   1.476  0.00  0.00    -0.720 N 
ATOM      9  H   LIG    1       -5.654   1.455   0.761  0.00  0.00    +0.400 HD
ATOM     10  O   LIG    1       -4.471   3.870   2.274  0.00  0.00    -0.500 OA
BRANCH   8  11
ATOM     11  C   LIG    1       -6.403   2.031   2.662  0.00  0.00    +0.260 C 
BRANCH  11  12
ATOM     12  C   LIG    1       -7.375   0.857   2.520  0.00  0.00    +0.070 C 
BRANCH  12  13
ATOM     13  C   LIG    1       -8.257   0.785   3.740  0.00  0.00    -0.090 A 
ATOM     14  C   LIG    1       -7.870   0.026   4.829  0.00  0.00    +0.010 A 
ATOM     15  C   LIG    1       -8.677  -0.036   5.949  0.00  0.00    +0.000 A 
ATOM     16  C   LIG    1       -9.876   0.653   5.977  0.00  0.00    +0.000 A 
ATOM     17  C   LIG    1      -10.264   1.408   4.886  0.00  0.00    +0.000 A 
ATOM     18  C   LIG    1       -9.455   1.474   3.768  0.00  0.00    +0.010 A 
ENDBRANCH  12  13
ENDBRANCH  11  12
ENDBRANCH   8  11
ENDBRANCH   1   7
BRANCH   1  19
ATOM     19  N   LIG    1       -2.878   4.328   0.239  0.00  0.00    -0.530 N 
ATOM     20  C   LIG    1       -1.536   4.204   0.246  0.00  0.00    +0.510 C 
ATOM     21  O   LIG    1       -0.837   5.184   0.391  0.00  0.00    -0.470 OA
BRANCH  19  25
ATOM     22  C   LIG    1       -4.625   8.110   0.440  0.00  0.00    +0.130 A 
ATOM     23  C   LIG    1       -5.417   6.975   0.522  0.00  0.00    -0.040 A 
ATOM     24  C   LIG    1       -4.839   5.722   0.461  0.00  0.00    +0.050 A 
ATOM     25  C   LIG    1       -3.465   5.599   0.306  0.00  0.00    +0.120 A 
ATOM     26  C   LIG    1       -2.671   6.735   0.224  0.00  0.00    +0.090 A 
ATOM     27  C   LIG    1       -3.250   7.988   0.290  0.00  0.00    -0.050 A 
ATOM     28 CL   LIG    1       -2.258   9.409   0.188  0.00  0.00    -0.050 Cl
BRANCH  22  30
ATOM     29  C   LIG    1       -6.614   9.394   0.659  0.00  0.00    +0.250 C 
ATOM     30  O   LIG    1       -5.195   9.343   0.505  0.00  0.00    -0.300 OA
ENDBRANCH  22  30
ENDBRANCH  19  25
BRANCH  20  31
ATOM     31  C   LIG    1       -0.904   2.847   0.074  0.00  0.00    +0.190 C 
ATOM     32 CL   LIG    1        0.887   3.025  -0.013  0.00  0.00    -0.110 Cl
ENDBRANCH  20  31
ENDBRANCH   1  19
TORSDOF 9
