REMARK  Name = ZINCpk000000h28L.0
REMARK                            x       y       z     vdW  Elec       q    Type
REMARK                         _______ _______ _______ _____ _____    ______ ____
ROOT
ATOM      1  N   LIG    1       -0.753   1.587   1.194  0.00  0.00    -0.500 NA
ATOM      2  C   LIG    1       -0.013   1.086   0.008  0.00  0.00    +0.170 C 
ATOM      3  C   LIG    1       -0.806   1.620  -1.204  0.00  0.00    +0.030 C 
ATOM      4  C   LIG    1       -2.235   1.858  -0.674  0.00  0.00    +0.250 C 
ATOM      5  C   LIG    1       -2.185   1.447   0.813  0.00  0.00    +0.190 C 
ENDROOT
BRANCH   4   6
ATOM      6  N   LIG    1       -3.193   1.021  -1.402  0.00  0.00    -0.710 N 
ATOM      7  H   LIG    1       -3.442   0.151  -1.051  0.00  0.00    +0.410 HD
ATOM      8  C   LIG    1       -3.728   1.459  -2.559  0.00  0.00    +0.610 C 
ATOM      9  O   LIG    1       -3.416   2.548  -2.998  0.00  0.00    -0.490 OA
BRANCH   8  10
ATOM     10  C   LIG    1       -4.698   0.611  -3.296  0.00  0.00    +0.140 A 
ATOM     11  N   LIG    1       -5.120  -0.573  -2.940  0.00  0.00    -0.350 NA
ATOM     12  O   LIG    1       -5.909  -0.998  -3.757  0.00  0.00    +0.100 OA
ATOM     13  C   LIG    1       -6.073  -0.107  -4.740  0.00  0.00    +0.190 A 
ATOM     14  C   LIG    1       -6.968  -0.257  -5.944  0.00  0.00    +0.260 C 
ATOM     15  N   LIG    1       -5.315   0.922  -4.458  0.00  0.00    -0.440 NA
ENDBRANCH   8  10
ENDBRANCH   4   6
BRANCH   1  16
ATOM     16  C   LIG    1       -0.442   0.788   2.386  0.00  0.00    +0.220 C 
BRANCH  16  19
ATOM     17  C   LIG    1        2.556   2.321   4.104  0.00  0.00    +0.170 A 
ATOM     18  C   LIG    1        1.249   2.073   3.709  0.00  0.00    -0.040 A 
ATOM     19  C   LIG    1        0.978   1.056   2.814  0.00  0.00    -0.000 A 
ATOM     20  C   LIG    1        2.007   0.280   2.314  0.00  0.00    -0.050 A 
ATOM     21  C   LIG    1        3.316   0.527   2.703  0.00  0.00    +0.170 A 
ATOM     22  C   LIG    1        3.590   1.547   3.601  0.00  0.00    -0.170 A 
BRANCH  17  24
ATOM     23  C   LIG    1        4.189   3.520   5.348  0.00  0.00    +0.250 C 
ATOM     24  O   LIG    1        2.821   3.321   4.985  0.00  0.00    -0.310 OA
ENDBRANCH  17  24
BRANCH  21  25
ATOM     25  O   LIG    1        4.328  -0.233   2.208  0.00  0.00    -0.310 OA
ATOM     26  C   LIG    1        5.649   0.074   2.656  0.00  0.00    +0.250 C 
ENDBRANCH  21  25
ENDBRANCH  16  19
ENDBRANCH   1  16
TORSDOF 6
