REMARK  Name = ZINCrD000000CO9E.0
REMARK                            x       y       z     vdW  Elec       q    Type
REMARK                         _______ _______ _______ _____ _____    ______ ____
ROOT
ATOM      1  S   LIG    1        2.725   4.159   0.023  0.00  0.00    +2.690 S 
ATOM      2  O   LIG    1        3.700   3.275   0.559  0.00  0.00    -0.950 OA
ATOM      3  O   LIG    1        2.509   5.472   0.522  0.00  0.00    -0.950 OA
ENDROOT
BRANCH   1  10
ATOM      4  O   LIG    1       -4.678   1.397   0.153  0.00  0.00    -0.510 OA
ATOM      5  C   LIG    1       -3.618   1.979   0.057  0.00  0.00    +0.520 C 
ATOM      6  C   LIG    1       -3.593   3.399  -0.443  0.00  0.00    +0.090 C 
ATOM      7  C   LIG    1       -2.496   4.184   0.277  0.00  0.00    +0.110 C 
ATOM      8  C   LIG    1       -1.212   3.397   0.249  0.00  0.00    -0.140 A 
ATOM      9  C   LIG    1        0.001   4.050   0.162  0.00  0.00    +0.170 A 
ATOM     10  C   LIG    1        1.178   3.323   0.136  0.00  0.00    -0.700 A 
ATOM     11  C   LIG    1        1.143   1.942   0.197  0.00  0.00    +0.170 A 
ATOM     12  C   LIG    1       -0.068   1.283   0.285  0.00  0.00    -0.030 A 
ATOM     13  C   LIG    1       -1.250   2.009   0.306  0.00  0.00    +0.220 A 
ATOM     14  N   LIG    1       -2.479   1.349   0.399  0.00  0.00    -0.670 N 
ATOM     15  H   LIG    1       -2.512   0.430   0.709  0.00  0.00    +0.420 HD
ENDBRANCH   1  10
BRANCH   1  16
ATOM     16  N   LIG    1        3.077   4.323  -1.587  0.00  0.00    -1.040 N 
ATOM     17  H   LIG    1        3.882   3.922  -1.951  0.00  0.00    +0.430 HD
BRANCH  16  18
ATOM     18  C   LIG    1        2.214   5.041  -2.423  0.00  0.00    +0.180 A 
ATOM     19  C   LIG    1        1.551   6.160  -1.942  0.00  0.00    -0.010 A 
ATOM     20  C   LIG    1        0.699   6.868  -2.770  0.00  0.00    +0.040 A 
ATOM     21  C   LIG    1        0.504   6.463  -4.077  0.00  0.00    +0.010 A 
ATOM     22  C   LIG    1        1.161   5.348  -4.565  0.00  0.00    -0.010 A 
ATOM     23  C   LIG    1        2.022   4.636  -3.744  0.00  0.00    +0.070 A 
BRANCH  23  24
ATOM     24  N   LIG    1        2.692   3.510  -4.238  0.00  0.00    -0.500 N 
ATOM     25  C   LIG    1        3.624   3.881  -5.311  0.00  0.00    +0.180 C 
ATOM     26  C   LIG    1        4.441   2.655  -5.725  0.00  0.00    +0.020 C 
ATOM     27  C   LIG    1        3.492   1.554  -6.205  0.00  0.00    +0.010 C 
ATOM     28  C   LIG    1        2.501   1.220  -5.086  0.00  0.00    +0.020 C 
ATOM     29  C   LIG    1        1.740   2.488  -4.691  0.00  0.00    +0.170 C 
ENDBRANCH  23  24
ENDBRANCH  16  18
ENDBRANCH   1  16
TORSDOF 4
