REMARK  Name = ZINCrD0000071spd.0
REMARK                            x       y       z     vdW  Elec       q    Type
REMARK                         _______ _______ _______ _____ _____    ______ ____
ROOT
ATOM      1  N   LIG    1        7.243  -2.588   2.543  0.00  0.00    -0.680 N 
ATOM      2  H   LIG    1        6.494  -3.193   2.658  0.00  0.00    +0.410 HD
ATOM      3  C   LIG    1        7.227  -1.676   1.551  0.00  0.00    +0.710 C 
ATOM      4  N   LIG    1        6.125  -1.529   0.788  0.00  0.00    -0.630 N 
ATOM      5  C   LIG    1        6.045  -0.468  -0.227  0.00  0.00    +0.310 C 
ATOM      6  C   LIG    1        4.741   0.309  -0.017  0.00  0.00    +0.190 C 
ATOM      7  N   LIG    1        3.611  -0.630  -0.010  0.00  0.00    -0.490 N 
ATOM      8  C   LIG    1        3.709  -1.573   1.112  0.00  0.00    +0.190 C 
ATOM      9  C   LIG    1        4.971  -2.427   0.949  0.00  0.00    +0.280 C 
ATOM     10  O   LIG    1        8.206  -0.985   1.343  0.00  0.00    -0.570 OA
ENDROOT
BRANCH   1  16
ATOM     11  N   LIG    1       11.566  -2.747   5.923  0.00  0.00    -0.390 N 
ATOM     12  N   LIG    1       11.887  -1.387   5.974  0.00  0.00    -0.230 NA
ATOM     13  C   LIG    1       11.062  -0.704   5.233  0.00  0.00    +0.280 A 
ATOM     14  C   LIG    1       10.119  -1.644   4.638  0.00  0.00    -0.210 A 
ATOM     15  C   LIG    1        9.027  -1.513   3.771  0.00  0.00    +0.160 A 
ATOM     16  C   LIG    1        8.344  -2.663   3.408  0.00  0.00    +0.060 A 
ATOM     17  C   LIG    1        8.757  -3.893   3.916  0.00  0.00    +0.330 A 
ATOM     18  N   LIG    1        9.789  -3.990   4.725  0.00  0.00    -0.480 NA
ATOM     19  C   LIG    1       10.480  -2.923   5.106  0.00  0.00    +0.300 A 
BRANCH  11  21
ATOM     20  C   LIG    1       13.738  -3.842   6.177  0.00  0.00    +0.050 C 
ATOM     21  C   LIG    1       12.277  -3.814   6.631  0.00  0.00    +0.270 C 
ATOM     22  C   LIG    1       12.216  -3.556   8.137  0.00  0.00    +0.050 C 
ENDBRANCH  11  21
ENDBRANCH   1  16
BRANCH   7  23
ATOM     23  C   LIG    1        2.393   0.053   0.015  0.00  0.00    +0.110 A 
ATOM     24  C   LIG    1        1.198  -0.655   0.025  0.00  0.00    -0.020 A 
ATOM     25  C   LIG    1       -0.004   0.024   0.049  0.00  0.00    +0.030 A 
ATOM     26  C   LIG    1       -0.020   1.406   0.063  0.00  0.00    -0.020 A 
ATOM     27  C   LIG    1        1.168   2.114   0.053  0.00  0.00    +0.030 A 
ATOM     28  C   LIG    1        2.374   1.442   0.029  0.00  0.00    -0.040 A 
ENDBRANCH   7  23
TORSDOF 3
