REMARK  Name = ZINCkj000005iJzr.1
REMARK                            x       y       z     vdW  Elec       q    Type
REMARK                         _______ _______ _______ _____ _____    ______ ____
ROOT
ATOM      1  C   LIG    1        0.250   0.897   2.614  0.00  0.00    +0.300 C 
ENDROOT
BRANCH   1   5
ATOM      2  C   LIG    1        0.495   1.904   6.760  0.00  0.00    +0.150 A 
ATOM      3  C   LIG    1        1.181   2.659   5.820  0.00  0.00    -0.010 A 
ATOM      4  C   LIG    1        1.101   2.331   4.481  0.00  0.00    +0.080 A 
ATOM      5  C   LIG    1        0.337   1.252   4.076  0.00  0.00    -0.170 A 
ATOM      6  C   LIG    1       -0.353   0.501   5.011  0.00  0.00    +0.070 A 
ATOM      7  C   LIG    1       -0.271   0.822   6.352  0.00  0.00    -0.070 A 
BRANCH   2   9
ATOM      8  C   LIG    1       -0.160   1.403   8.990  0.00  0.00    +0.250 C 
ATOM      9  O   LIG    1        0.573   2.224   8.079  0.00  0.00    -0.310 OA
ENDBRANCH   2   9
ENDBRANCH   1   5
BRANCH   1  10
ATOM     10  N   LIG    1        0.288  -0.560   2.463  0.00  0.00    -1.130 NA
ATOM     11  H   LIG    1       -0.451  -1.100   2.784  0.00  0.00    +0.430 HD
BRANCH  10  12
ATOM     12  S   LIG    1        1.591  -1.284   1.742  0.00  0.00    +2.630 S 
ATOM     13  O   LIG    1        1.737  -0.594   0.508  0.00  0.00    -0.960 OA
ATOM     14  O   LIG    1        1.284  -2.671   1.774  0.00  0.00    -0.930 OA
BRANCH  12  15
ATOM     15  C   LIG    1        2.982  -0.914   2.846  0.00  0.00    -0.520 C 
ATOM     16  C   LIG    1        3.996   0.132   2.379  0.00  0.00    +0.110 C 
ATOM     17  C   LIG    1        4.378  -1.350   2.395  0.00  0.00    +0.110 C 
ENDBRANCH  12  15
ENDBRANCH  10  12
ENDBRANCH   1  10
BRANCH   1  18
ATOM     18  C   LIG    1       -1.059   1.436   2.035  0.00  0.00    +0.270 C 
BRANCH  18  19
ATOM     19  N   LIG    1       -1.185   1.015   0.633  0.00  0.00    -0.390 N 
ATOM     20  C   LIG    1       -2.507   1.400   0.123  0.00  0.00    +0.320 C 
ATOM     21  C   LIG    1       -0.141   1.667  -0.169  0.00  0.00    +0.320 C 
ATOM     22  H   LIG    1       -1.079   0.013   0.573  0.00  0.00    +0.420 HD
ENDBRANCH  18  19
ENDBRANCH   1  18
TORSDOF 7
