REMARK  Name = ZINCpe000000ZguW.0
REMARK                            x       y       z     vdW  Elec       q    Type
REMARK                         _______ _______ _______ _____ _____    ______ ____
ROOT
ATOM      1  O   LIG    1        3.129  -0.096  -4.063  0.00  0.00    -0.580 OA
ATOM      2  C   LIG    1        2.127  -0.754  -3.865  0.00  0.00    +0.710 C 
ATOM      3  N   LIG    1        2.121  -2.073  -4.145  0.00  0.00    -0.630 N 
ATOM      4  C   LIG    1        0.887  -2.860  -4.013  0.00  0.00    +0.260 C 
ATOM      5  C   LIG    1        0.630  -3.591  -5.340  0.00  0.00    +0.020 C 
ATOM      6  C   LIG    1        1.866  -4.416  -5.708  0.00  0.00    +0.040 C 
ATOM      7  C   LIG    1        3.066  -3.484  -5.897  0.00  0.00    -0.020 C 
ATOM      8  C   LIG    1        3.349  -2.751  -4.582  0.00  0.00    +0.300 C 
ATOM      9  N   LIG    1        1.022  -0.167  -3.365  0.00  0.00    -0.740 N 
ATOM     10  H   LIG    1        0.201  -0.675  -3.274  0.00  0.00    +0.400 HD
ENDROOT
BRANCH   7  11
ATOM     11  C   LIG    1        4.292  -4.306  -6.297  0.00  0.00    +0.340 C 
BRANCH  11  12
ATOM     12  N   LIG    1        5.410  -3.405  -6.590  0.00  0.00    -0.290 N 
ATOM     13  C   LIG    1        6.633  -3.447  -6.014  0.00  0.00    +0.140 A 
ATOM     14  C   LIG    1        7.349  -2.444  -6.575  0.00  0.00    +0.140 A 
ATOM     15  N   LIG    1        6.535  -1.840  -7.449  0.00  0.00    -0.270 NA
ATOM     16  N   LIG    1        5.394  -2.433  -7.434  0.00  0.00    -0.080 NA
ENDBRANCH  11  12
ENDBRANCH   7  11
BRANCH   9  17
ATOM     17  C   LIG    1        1.061   1.240  -2.958  0.00  0.00    +0.430 C 
BRANCH  17  18
ATOM     18  C   LIG    1       -0.293   1.650  -2.437  0.00  0.00    +0.150 A 
ATOM     19  N   LIG    1       -1.276   2.151  -3.139  0.00  0.00    -0.270 NA
ATOM     20  N   LIG    1       -2.285   2.385  -2.371  0.00  0.00    -0.290 NA
ATOM     21  C   LIG    1       -1.989   2.045  -1.153  0.00  0.00    +0.190 A 
ATOM     22  C   LIG    1       -2.851   2.131   0.081  0.00  0.00    +0.160 C 
ATOM     23  C   LIG    1       -2.215   1.256   1.170  0.00  0.00    +0.030 C 
ATOM     24  C   LIG    1       -0.719   1.582   1.275  0.00  0.00    +0.040 C 
ATOM     25  C   LIG    1        0.001   1.085   0.016  0.00  0.00    +0.290 C 
ATOM     26  N   LIG    1       -0.717   1.571  -1.162  0.00  0.00    -0.460 N 
ENDBRANCH  17  18
ENDBRANCH   9  17
TORSDOF 4
