REMARK  Name = ZINCrD0000071DKz.0
REMARK                            x       y       z     vdW  Elec       q    Type
REMARK                         _______ _______ _______ _____ _____    ______ ____
ROOT
ATOM      1  N   LIG    1        1.545   3.478   1.609  0.00  0.00    -0.610 N 
ATOM      2  C   LIG    1        0.706   4.115   2.450  0.00  0.00    +0.530 C 
ATOM      3  O   LIG    1       -0.389   4.464   2.065  0.00  0.00    -0.480 OA
ENDROOT
BRANCH   2   4
ATOM      4  C   LIG    1        1.130   4.392   3.870  0.00  0.00    +0.150 C 
ATOM      5  C   LIG    1        2.150   5.539   3.890  0.00  0.00    +0.250 C 
ATOM      6  O   LIG    1        2.520   5.785   5.251  0.00  0.00    -0.300 OA
ATOM      7  C   LIG    1        1.507   5.857   6.157  0.00  0.00    +0.040 A 
ATOM      8  C   LIG    1        1.741   6.437   7.395  0.00  0.00    +0.030 A 
ATOM      9  C   LIG    1        0.722   6.515   8.327  0.00  0.00    +0.030 A 
ATOM     10  C   LIG    1       -0.531   6.015   8.027  0.00  0.00    +0.030 A 
ATOM     11  C   LIG    1       -0.770   5.435   6.795  0.00  0.00    +0.030 A 
ATOM     12  C   LIG    1        0.246   5.356   5.856  0.00  0.00    +0.050 A 
ATOM     13  O   LIG    1       -0.007   4.789   4.644  0.00  0.00    -0.280 OA
ENDBRANCH   2   4
BRANCH   1  14
ATOM     14  C   LIG    1        2.845   3.005   2.090  0.00  0.00    +0.270 C 
BRANCH  14  16
ATOM     15  C   LIG    1        5.280   3.545   2.229  0.00  0.00    +0.040 C 
ATOM     16  C   LIG    1        3.945   3.951   1.603  0.00  0.00    +0.000 C 
ENDBRANCH  14  16
ENDBRANCH   1  14
BRANCH   1  17
ATOM     17  C   LIG    1        1.156   3.260   0.213  0.00  0.00    +0.480 C 
BRANCH  17  18
ATOM     18  C   LIG    1        0.438   1.941   0.092  0.00  0.00    +0.140 A 
ATOM     19  N   LIG    1       -0.847   1.752   0.210  0.00  0.00    -0.250 NA
ATOM     20  N   LIG    1       -1.115   0.504   0.048  0.00  0.00    -0.270 NA
ATOM     21  C   LIG    1        0.001  -0.153  -0.181  0.00  0.00    +0.250 A 
ATOM     22  O   LIG    1        1.006   0.748  -0.157  0.00  0.00    -0.220 OA
BRANCH  21  23
ATOM     23  C   LIG    1        0.130  -1.598  -0.420  0.00  0.00    -0.160 A 
ATOM     24  C   LIG    1       -0.899  -2.489  -0.435  0.00  0.00    +0.100 A 
ATOM     25  C   LIG    1       -0.524  -3.790  -0.686  0.00  0.00    +0.020 A 
ATOM     26  C   LIG    1        0.788  -3.980  -0.865  0.00  0.00    -0.010 A 
ATOM     27  S   LIG    1        1.640  -2.448  -0.725  0.00  0.00    +0.170 S 
ENDBRANCH  21  23
ENDBRANCH  17  18
ENDBRANCH   1  17
TORSDOF 6
