REMARK  Name = ZINCpe00000bSUk2.1
REMARK                            x       y       z     vdW  Elec       q    Type
REMARK                         _______ _______ _______ _____ _____    ______ ____
ROOT
ATOM      1  C   LIG    1       -0.056  -0.201   0.107  0.00  0.00    +0.290 C 
ENDROOT
BRANCH   1   2
ATOM      2  C   LIG    1        1.442  -0.488  -0.013  0.00  0.00    +0.200 C 
ATOM      3  C   LIG    1        2.014   0.278  -1.207  0.00  0.00    +0.050 C 
BRANCH   2   5
ATOM      4  C   LIG    1        1.698  -0.512   2.410  0.00  0.00    +0.530 C 
ATOM      5  N   LIG    1        2.121  -0.060   1.213  0.00  0.00    -0.730 N 
ATOM      6  H   LIG    1        2.874   0.549   1.163  0.00  0.00    +0.400 HD
ATOM      7  O   LIG    1        0.820  -1.346   2.468  0.00  0.00    -0.500 OA
BRANCH   4   9
ATOM      8  C   LIG    1        2.101   1.532   3.756  0.00  0.00    +0.020 C 
ATOM      9  C   LIG    1        2.318   0.019   3.677  0.00  0.00    +0.170 C 
BRANCH   9  10
ATOM     10  N   LIG    1        1.690  -0.627   4.838  0.00  0.00    -0.520 NA
ATOM     11  C   LIG    1        0.250  -0.338   4.885  0.00  0.00    +0.200 C 
ATOM     12  C   LIG    1        2.349  -0.222   6.086  0.00  0.00    +0.190 C 
ENDBRANCH   9  10
ENDBRANCH   4   9
ENDBRANCH   2   5
BRANCH   2  13
ATOM     13  C   LIG    1        1.659  -1.989  -0.218  0.00  0.00    -0.050 C 
ATOM     14  C   LIG    1        2.432  -2.745   0.864  0.00  0.00    +0.030 C 
ATOM     15  C   LIG    1        3.087  -2.465  -0.491  0.00  0.00    +0.000 C 
ENDBRANCH   2  13
ENDBRANCH   1   2
BRANCH   1  16
ATOM     16  N   LIG    1       -0.264   1.235   0.304  0.00  0.00    -0.690 N 
ATOM     17  H   LIG    1        0.497   1.835   0.340  0.00  0.00    +0.410 HD
BRANCH  16  18
ATOM     18  C   LIG    1       -1.548   1.738   0.434  0.00  0.00    +0.460 A 
ATOM     19  C   LIG    1       -2.654   0.883   0.380  0.00  0.00    -0.060 A 
ATOM     20  C   LIG    1       -3.922   1.438   0.516  0.00  0.00    +0.170 A 
ATOM     21  N   LIG    1       -4.035   2.755   0.692  0.00  0.00    -0.530 NA
ATOM     22  C   LIG    1       -2.969   3.526   0.738  0.00  0.00    +0.410 A 
ATOM     23 CL   LIG    1       -3.174   5.234   0.970  0.00  0.00    +0.030 Cl
ATOM     24  N   LIG    1       -1.748   3.038   0.619  0.00  0.00    -0.560 NA
BRANCH  20  25
ATOM     25  C   LIG    1       -5.130   0.578   0.465  0.00  0.00    +0.580 C 
ATOM     26  O   LIG    1       -5.017  -0.620   0.303  0.00  0.00    -0.520 OA
ATOM     27  N   LIG    1       -6.354   1.127   0.598  0.00  0.00    -0.830 N 
ATOM     28  H   LIG    1       -7.144   0.565   0.565  0.00  0.00    +0.410 HD
ATOM     29  H   LIG    1       -6.445   2.084   0.727  0.00  0.00    +0.410 HD
ENDBRANCH  20  25
ENDBRANCH  16  18
ENDBRANCH   1  16
TORSDOF 8
