REMARK  Name = ZINCrH000004rvOi.0
REMARK                            x       y       z     vdW  Elec       q    Type
REMARK                         _______ _______ _______ _____ _____    ______ ____
ROOT
ATOM      1  C   LIG    1       -1.199   1.657  -0.225  0.00  0.00    +0.160 A 
ATOM      2  C   LIG    1       -1.430   2.866   0.424  0.00  0.00    +0.010 A 
ATOM      3  C   LIG    1       -2.614   3.542   0.224  0.00  0.00    +0.040 A 
ATOM      4  C   LIG    1       -3.587   3.006  -0.622  0.00  0.00    -0.020 A 
ATOM      5  C   LIG    1       -3.354   1.790  -1.268  0.00  0.00    +0.080 A 
ATOM      6  C   LIG    1       -2.166   1.122  -1.068  0.00  0.00    +0.020 A 
ENDROOT
BRANCH   4   7
ATOM      7  C   LIG    1       -4.860   3.726  -0.835  0.00  0.00    +0.210 A 
ATOM      8  N   LIG    1       -5.702   3.555  -1.833  0.00  0.00    -0.280 NA
ATOM      9  N   LIG    1       -6.709   4.345  -1.693  0.00  0.00    -0.290 NA
ATOM     10  C   LIG    1       -6.567   5.060  -0.613  0.00  0.00    +0.190 A 
ATOM     11  C   LIG    1       -7.522   6.093  -0.072  0.00  0.00    +0.150 C 
ATOM     12  C   LIG    1       -6.734   7.348   0.316  0.00  0.00    +0.030 C 
ATOM     13  C   LIG    1       -6.249   7.223   1.757  0.00  0.00    +0.020 C 
ATOM     14  C   LIG    1       -5.928   5.767   2.092  0.00  0.00    +0.030 C 
ATOM     15  C   LIG    1       -4.806   5.263   1.181  0.00  0.00    +0.280 C 
ATOM     16  N   LIG    1       -5.387   4.701  -0.038  0.00  0.00    -0.470 N 
ENDBRANCH   4   7
BRANCH   1  17
ATOM     17  N   LIG    1        0.003   0.978  -0.024  0.00  0.00    -1.060 N 
ATOM     18  H   LIG    1       -0.002   0.022   0.140  0.00  0.00    +0.430 HD
BRANCH  17  19
ATOM     19  S   LIG    1        1.438   1.803  -0.073  0.00  0.00    +2.690 S 
ATOM     20  O   LIG    1        2.464   0.832   0.082  0.00  0.00    -0.950 OA
ATOM     21  O   LIG    1        1.288   2.920   0.792  0.00  0.00    -0.950 OA
BRANCH  19  26
ATOM     22  C   LIG    1        2.030   4.031  -5.649  0.00  0.00    +0.090 C 
ATOM     23  C   LIG    1        1.882   3.475  -4.256  0.00  0.00    -0.020 A 
ATOM     24  C   LIG    1        1.349   4.260  -3.251  0.00  0.00    -0.010 A 
ATOM     25  C   LIG    1        1.213   3.749  -1.973  0.00  0.00    +0.130 A 
ATOM     26  C   LIG    1        1.611   2.453  -1.701  0.00  0.00    -0.680 A 
ATOM     27  C   LIG    1        2.148   1.670  -2.705  0.00  0.00    +0.130 A 
ATOM     28  C   LIG    1        2.279   2.179  -3.984  0.00  0.00    -0.010 A 
ENDBRANCH  19  26
ENDBRANCH  17  19
ENDBRANCH   1  17
TORSDOF 4
