REMARK  Name = ZINCpk000000nQrO.0
REMARK                            x       y       z     vdW  Elec       q    Type
REMARK                         _______ _______ _______ _____ _____    ______ ____
ROOT
ATOM      1  N   LIG    1        0.343   6.683  -5.257  0.00  0.00    -0.670 N 
ATOM      2  H   LIG    1        0.458   7.450  -4.674  0.00  0.00    +0.420 HD
ATOM      3  C   LIG    1       -0.664   5.814  -5.037  0.00  0.00    +0.500 C 
ATOM      4  O   LIG    1       -0.867   4.910  -5.820  0.00  0.00    -0.480 OA
ENDROOT
BRANCH   1   9
ATOM      5  C   LIG    1        4.007   7.475  -9.729  0.00  0.00    +0.260 A 
ATOM      6  N   LIG    1        3.318   8.192  -8.892  0.00  0.00    -0.480 NA
ATOM      7  C   LIG    1        2.638   7.359  -8.058  0.00  0.00    +0.040 A 
ATOM      8  C   LIG    1        1.762   7.566  -6.992  0.00  0.00    +0.050 A 
ATOM      9  C   LIG    1        1.222   6.480  -6.328  0.00  0.00    +0.150 A 
ATOM     10  C   LIG    1        1.554   5.184  -6.716  0.00  0.00    +0.060 A 
ATOM     11  C   LIG    1        2.414   4.971  -7.772  0.00  0.00    +0.070 A 
ATOM     12  C   LIG    1        2.963   6.051  -8.447  0.00  0.00    -0.000 A 
ATOM     13  O   LIG    1        3.817   6.168  -9.489  0.00  0.00    -0.210 OA
BRANCH   5  15
ATOM     14  C   LIG    1        6.330   7.555 -10.593  0.00  0.00    +0.060 C 
ATOM     15  C   LIG    1        4.893   8.032 -10.813  0.00  0.00    +0.110 C 
ATOM     16  C   LIG    1        4.397   7.545 -12.177  0.00  0.00    +0.060 C 
ENDBRANCH   5  15
ENDBRANCH   1   9
BRANCH   3  17
ATOM     17  C   LIG    1       -1.537   5.965  -3.818  0.00  0.00    +0.380 C 
BRANCH  17  18
ATOM     18  N   LIG    1       -2.549   4.905  -3.808  0.00  0.00    -0.350 N 
ATOM     19  C   LIG    1       -2.777   4.036  -2.801  0.00  0.00    +0.380 A 
ATOM     20  C   LIG    1       -3.787   3.220  -3.183  0.00  0.00    -0.810 A 
ATOM     21  C   LIG    1       -4.194   3.609  -4.463  0.00  0.00    +0.330 A 
ATOM     22  N   LIG    1       -3.453   4.620  -4.838  0.00  0.00    -0.260 NA
BRANCH  20  23
ATOM     23  S   LIG    1       -4.471   1.903  -2.233  0.00  0.00    +2.740 S 
ATOM     24  O   LIG    1       -4.183   2.198  -0.873  0.00  0.00    -0.960 OA
ATOM     25  O   LIG    1       -5.790   1.700  -2.721  0.00  0.00    -0.960 OA
BRANCH  23  26
ATOM     26  N   LIG    1       -3.618   0.534  -2.606  0.00  0.00    -1.250 NA
ATOM     27  H   LIG    1       -2.661   0.500  -2.447  0.00  0.00    +0.420 HD
ATOM     28  H   LIG    1       -4.074  -0.233  -2.986  0.00  0.00    +0.420 HD
ENDBRANCH  23  26
ENDBRANCH  20  23
ENDBRANCH  17  18
ENDBRANCH   3  17
TORSDOF 6
