REMARK  Name = ZINCrD000000AETU.0
REMARK                            x       y       z     vdW  Elec       q    Type
REMARK                         _______ _______ _______ _____ _____    ______ ____
ROOT
ATOM      1  N   LIG    1       -0.219   1.233   4.858  0.00  0.00    -0.130 N 
ATOM      2  N   LIG    1       -0.457   0.123   5.465  0.00  0.00    -0.040 NA
ATOM      3  N   LIG    1        0.351   0.011   6.464  0.00  0.00    -0.260 NA
ATOM      4  C   LIG    1        1.120   1.109   6.480  0.00  0.00    +0.210 A 
ATOM      5  N   LIG    1        0.737   1.853   5.461  0.00  0.00    -0.290 NA
ENDROOT
BRANCH   4   6
ATOM      6  C   LIG    1        2.194   1.426   7.454  0.00  0.00    -0.010 A 
ATOM      7  C   LIG    1        2.912   2.615   7.342  0.00  0.00    +0.090 A 
ATOM      8  C   LIG    1        3.909   2.905   8.251  0.00  0.00    +0.030 A 
ATOM      9  C   LIG    1        4.196   2.018   9.273  0.00  0.00    +0.100 A 
ATOM     10  C   LIG    1        3.486   0.836   9.389  0.00  0.00    -0.180 A 
ATOM     11  C   LIG    1        2.484   0.539   8.489  0.00  0.00    +0.120 A 
BRANCH  10  12
ATOM     12  C   LIG    1        3.805  -0.125  10.505  0.00  0.00    +0.510 C 
ATOM     13  F   LIG    1        4.195  -1.355   9.964  0.00  0.00    -0.170 F 
ATOM     14  F   LIG    1        2.669  -0.306  11.303  0.00  0.00    -0.170 F 
ATOM     15  F   LIG    1        4.844   0.393  11.285  0.00  0.00    -0.180 F 
ENDBRANCH  10  12
ENDBRANCH   4   6
BRANCH   1  16
ATOM     16  C   LIG    1       -0.927   1.718   3.671  0.00  0.00    +0.410 C 
BRANCH  16  18
ATOM     17  O   LIG    1        0.774   0.548   2.529  0.00  0.00    -0.510 OA
ATOM     18  C   LIG    1       -0.222   1.232   2.431  0.00  0.00    +0.500 C 
ATOM     19  N   LIG    1       -0.698   1.558   1.213  0.00  0.00    -0.720 N 
ATOM     20  H   LIG    1       -1.495   2.106   1.135  0.00  0.00    +0.410 HD
BRANCH  19  21
ATOM     21  C   LIG    1       -0.013   1.086   0.008  0.00  0.00    +0.320 C 
BRANCH  21  22
ATOM     22  C   LIG    1       -0.742   1.585  -1.213  0.00  0.00    -0.110 A 
ATOM     23  C   LIG    1       -1.750   0.824  -1.775  0.00  0.00    +0.050 A 
ATOM     24  C   LIG    1       -2.422   1.284  -2.892  0.00  0.00    +0.030 A 
ATOM     25  C   LIG    1       -2.078   2.500  -3.454  0.00  0.00    -0.020 A 
ATOM     26  C   LIG    1       -1.065   3.259  -2.894  0.00  0.00    +0.030 A 
ATOM     27 CL   LIG    1       -2.917   3.075  -4.861  0.00  0.00    -0.060 Cl
ATOM     28  C   LIG    1       -0.398   2.801  -1.774  0.00  0.00    +0.050 A 
ENDBRANCH  21  22
ENDBRANCH  19  21
ENDBRANCH  16  18
ENDBRANCH   1  16
TORSDOF 6
