REMARK  Name = ZINCrg00000fSfma.0
REMARK                            x       y       z     vdW  Elec       q    Type
REMARK                         _______ _______ _______ _____ _____    ______ ____
ROOT
ATOM      1  N   LIG    1       -4.505  -3.838  -2.302  0.00  0.00    -0.520 NA
ATOM      2  C   LIG    1       -3.402  -3.611  -3.245  0.00  0.00    +0.170 C 
ATOM      3  C   LIG    1       -2.068  -3.686  -2.494  0.00  0.00    +0.300 C 
ATOM      4  N   LIG    1       -2.118  -2.752  -1.359  0.00  0.00    -0.620 N 
ATOM      5  C   LIG    1       -3.265  -2.832  -0.442  0.00  0.00    +0.280 C 
ATOM      6  C   LIG    1       -1.137  -1.850  -1.161  0.00  0.00    +0.520 C 
ATOM      7  O   LIG    1       -0.196  -1.800  -1.925  0.00  0.00    -0.520 OA
ATOM      8  C   LIG    1       -4.555  -2.787  -1.277  0.00  0.00    +0.170 C 
ENDROOT
BRANCH   1   9
ATOM      9  C   LIG    1       -5.788  -3.945  -3.009  0.00  0.00    +0.230 C 
BRANCH   9  12
ATOM     10  N   LIG    1       -8.117  -4.591  -2.481  0.00  0.00    -0.630 N 
ATOM     11  H   LIG    1       -8.344  -4.410  -3.406  0.00  0.00    +0.420 HD
ATOM     12  C   LIG    1       -6.851  -4.418  -2.051  0.00  0.00    +0.520 C 
ATOM     13  O   LIG    1       -6.568  -4.644  -0.894  0.00  0.00    -0.490 OA
BRANCH  10  17
ATOM     14  C   LIG    1      -10.570  -6.140   1.573  0.00  0.00    +0.180 C 
ATOM     15  C   LIG    1      -10.169  -5.707   0.187  0.00  0.00    -0.020 A 
ATOM     16  C   LIG    1       -8.932  -5.340  -0.219  0.00  0.00    -0.040 A 
ATOM     17  C   LIG    1       -9.101  -5.029  -1.594  0.00  0.00    +0.250 A 
ATOM     18  N   LIG    1      -10.362  -5.240  -1.864  0.00  0.00    -0.390 NA
ATOM     19  O   LIG    1      -10.967  -5.617  -0.887  0.00  0.00    +0.100 OA
ENDBRANCH  10  17
ENDBRANCH   9  12
ENDBRANCH   1   9
BRANCH   6  20
ATOM     20  C   LIG    1       -1.208  -0.902   0.008  0.00  0.00    +0.170 C 
BRANCH  20  21
ATOM     21  C   LIG    1        0.002  -0.004   0.002  0.00  0.00    +0.060 A 
ATOM     22  C   LIG    1       -0.016   1.339   0.009  0.00  0.00    +0.140 A 
ATOM     23  N   LIG    1        1.305   1.774  -0.001  0.00  0.00    -0.420 N 
ATOM     24  C   LIG    1        2.007   2.958  -0.001  0.00  0.00    +0.220 A 
ATOM     25  C   LIG    1        3.328   2.913  -0.013  0.00  0.00    +0.010 A 
ATOM     26  S   LIG    1        3.746   1.190  -0.027  0.00  0.00    +0.160 S 
ATOM     27  C   LIG    1        2.062   0.643  -0.014  0.00  0.00    +0.160 A 
ATOM     28  N   LIG    1        1.280  -0.410  -0.012  0.00  0.00    -0.420 NA
ENDBRANCH  20  21
ENDBRANCH   6  20
TORSDOF 5
