REMARK  Name = ZINCrg000000sFmA.0
REMARK                            x       y       z     vdW  Elec       q    Type
REMARK                         _______ _______ _______ _____ _____    ______ ____
ROOT
ATOM      1  C   LIG    1       -4.410   3.486   7.037  0.00  0.00    +0.190 C 
ATOM      2  C   LIG    1       -3.741   4.849   7.225  0.00  0.00    +0.060 C 
ATOM      3  C   LIG    1       -5.239   3.150   8.278  0.00  0.00    +0.040 C 
ENDROOT
BRANCH   1   4
ATOM      4  N   LIG    1       -5.284   3.529   5.863  0.00  0.00    -1.110 NA
ATOM      5  H   LIG    1       -5.277   4.304   5.280  0.00  0.00    +0.420 HD
BRANCH   4   6
ATOM      6  S   LIG    1       -6.286   2.253   5.529  0.00  0.00    +2.720 S 
ATOM      7  O   LIG    1       -5.508   1.076   5.704  0.00  0.00    -0.950 OA
ATOM      8  O   LIG    1       -6.951   2.571   4.314  0.00  0.00    -0.960 OA
BRANCH   6  12
ATOM      9  C   LIG    1      -10.581   3.272   8.381  0.00  0.00    +0.370 C 
ATOM     10  N   LIG    1       -9.319   2.672   7.940  0.00  0.00    -0.360 N 
ATOM     11  C   LIG    1       -8.629   3.003   6.829  0.00  0.00    +0.370 A 
ATOM     12  C   LIG    1       -7.525   2.221   6.781  0.00  0.00    -0.820 A 
ATOM     13  C   LIG    1       -7.545   1.379   7.898  0.00  0.00    +0.330 A 
ATOM     14  N   LIG    1       -8.617   1.653   8.597  0.00  0.00    -0.290 NA
ENDBRANCH   6  12
ENDBRANCH   4   6
ENDBRANCH   1   4
BRANCH   1  15
ATOM     15  C   LIG    1       -3.336   2.415   6.835  0.00  0.00    +0.200 C 
BRANCH  15  16
ATOM     16  N   LIG    1       -2.449   2.813   5.734  0.00  0.00    -0.530 NA
ATOM     17  C   LIG    1       -1.177   2.079   5.791  0.00  0.00    +0.170 C 
ATOM     18  C   LIG    1       -0.215   2.648   4.743  0.00  0.00    +0.310 C 
ATOM     19  N   LIG    1       -0.886   2.629   3.434  0.00  0.00    -0.600 N 
ATOM     20  C   LIG    1       -2.224   3.230   3.329  0.00  0.00    +0.290 C 
ATOM     21  C   LIG    1       -0.288   2.079   2.358  0.00  0.00    +0.650 C 
ATOM     22  O   LIG    1        0.820   1.591   2.462  0.00  0.00    -0.570 OA
ATOM     23  C   LIG    1       -3.110   2.633   4.434  0.00  0.00    +0.160 C 
BRANCH  21  24
ATOM     24  O   LIG    1       -0.919   2.071   1.169  0.00  0.00    -0.360 OA
BRANCH  24  25
ATOM     25  C   LIG    1       -0.215   1.462   0.054  0.00  0.00    +0.140 C 
ATOM     26  C   LIG    1       -1.082   1.547  -1.204  0.00  0.00    +0.080 C 
ATOM     27  C   LIG    1        1.102   2.204  -0.184  0.00  0.00    +0.040 C 
ATOM     28  C   LIG    1        0.077  -0.005   0.375  0.00  0.00    +0.040 C 
ENDBRANCH  24  25
ENDBRANCH  21  24
ENDBRANCH  15  16
ENDBRANCH   1  15
TORSDOF 7
