REMARK  Name = ZINCqH0000050JFb.0
REMARK                            x       y       z     vdW  Elec       q    Type
REMARK                         _______ _______ _______ _____ _____    ______ ____
ROOT
ATOM      1  O   LIG    1       -5.186   4.936   0.077  0.00  0.00    -0.330 OA
ENDROOT
BRANCH   1   2
ATOM      2  C   LIG    1       -6.125   5.905   0.091  0.00  0.00    +0.560 C 
ATOM      3  O   LIG    1       -5.791   7.075   0.093  0.00  0.00    -0.490 OA
BRANCH   2   6
ATOM      4  C   LIG    1       -8.415   7.923   0.135  0.00  0.00    +0.170 C 
ATOM      5  C   LIG    1       -8.595   6.426   0.122  0.00  0.00    +0.190 A 
ATOM      6  C   LIG    1       -7.543   5.550   0.102  0.00  0.00    -0.330 A 
ATOM      7  S   LIG    1       -8.204   3.916   0.102  0.00  0.00    +0.250 S 
ATOM      8  C   LIG    1       -9.793   4.546   0.119  0.00  0.00    +0.130 A 
ATOM      9  N   LIG    1       -9.767   5.851   0.125  0.00  0.00    -0.480 NA
BRANCH   8  10
ATOM     10  C   LIG    1      -11.021   3.729   0.127  0.00  0.00    -0.080 A 
ATOM     11  C   LIG    1      -12.261   4.256   0.146  0.00  0.00    +0.000 A 
ATOM     12  S   LIG    1      -13.445   3.030   0.146  0.00  0.00    +0.200 S 
ATOM     13  C   LIG    1      -12.234   1.760   0.129  0.00  0.00    -0.040 A 
ATOM     14  C   LIG    1      -11.013   2.286   0.121  0.00  0.00    +0.030 A 
ENDBRANCH   8  10
ENDBRANCH   2   6
ENDBRANCH   1   2
BRANCH   1  15
ATOM     15  C   LIG    1       -3.820   5.356   0.066  0.00  0.00    +0.280 C 
BRANCH  15  16
ATOM     16  C   LIG    1       -2.923   4.145   0.052  0.00  0.00    +0.520 C 
ATOM     17  N   LIG    1       -1.584   4.299   0.040  0.00  0.00    -0.650 N 
ATOM     18  H   LIG    1       -1.198   5.189   0.040  0.00  0.00    +0.410 HD
ATOM     19  O   LIG    1       -3.405   3.032   0.051  0.00  0.00    -0.480 OA
BRANCH  17  20
ATOM     20  C   LIG    1       -0.753   3.179   0.026  0.00  0.00    +0.300 A 
ATOM     21  C   LIG    1       -1.157   1.879   0.017  0.00  0.00    -0.110 A 
ATOM     22  C   LIG    1       -0.013   1.076   0.008  0.00  0.00    +0.250 A 
ATOM     23  N   LIG    1        1.038   1.856   0.002  0.00  0.00    -0.280 NA
ATOM     24  N   LIG    1        0.599   3.187   0.013  0.00  0.00    -0.380 N 
BRANCH  24  25
ATOM     25  C   LIG    1        1.454   4.376   0.012  0.00  0.00    +0.250 C 
ATOM     26  C   LIG    1        2.326   4.377  -1.245  0.00  0.00    +0.050 C 
ATOM     27  C   LIG    1        2.349   4.362   1.253  0.00  0.00    +0.050 C 
ENDBRANCH  24  25
ENDBRANCH  17  20
ENDBRANCH  15  16
ENDBRANCH   1  15
TORSDOF 7
