REMARK  Name = ZINCrD000000C7uR.0
REMARK                            x       y       z     vdW  Elec       q    Type
REMARK                         _______ _______ _______ _____ _____    ______ ____
ROOT
ATOM      1  O   LIG    1        6.603  -3.468  -4.667  0.00  0.00    -0.560 OA
ATOM      2  C   LIG    1        5.415  -3.265  -4.505  0.00  0.00    +0.710 C 
ATOM      3  N   LIG    1        5.005  -2.258  -3.709  0.00  0.00    -0.630 N 
ATOM      4  C   LIG    1        5.974  -1.461  -2.941  0.00  0.00    +0.310 C 
ATOM      5  C   LIG    1        5.521  -1.423  -1.477  0.00  0.00    +0.170 C 
ATOM      6  N   LIG    1        4.133  -0.947  -1.410  0.00  0.00    -0.530 NA
ATOM      7  C   LIG    1        3.219  -1.870  -2.095  0.00  0.00    +0.160 C 
ATOM      8  C   LIG    1        3.577  -1.927  -3.584  0.00  0.00    +0.270 C 
ATOM      9  N   LIG    1        4.507  -4.048  -5.122  0.00  0.00    -0.690 N 
ATOM     10  H   LIG    1        3.562  -3.840  -5.056  0.00  0.00    +0.410 HD
ENDROOT
BRANCH   9  11
ATOM     11  C   LIG    1        4.929  -5.162  -5.857  0.00  0.00    +0.200 A 
ATOM     12  C   LIG    1        6.030  -5.896  -5.436  0.00  0.00    +0.010 A 
ATOM     13  C   LIG    1        6.446  -6.996  -6.161  0.00  0.00    +0.080 A 
ATOM     14  C   LIG    1        5.767  -7.370  -7.306  0.00  0.00    -0.070 A 
ATOM     15  C   LIG    1        4.666  -6.639  -7.731  0.00  0.00    +0.130 A 
ATOM     16  C   LIG    1        4.243  -5.538  -7.003  0.00  0.00    -0.020 A 
BRANCH  15  17
ATOM     17  O   LIG    1        4.000  -7.007  -8.857  0.00  0.00    -0.310 OA
BRANCH  17  18
ATOM     18  C   LIG    1        4.487  -8.156  -9.553  0.00  0.00    +0.610 C 
ATOM     19  F   LIG    1        5.808  -7.932  -9.955  0.00  0.00    -0.160 F 
ATOM     20  F   LIG    1        3.691  -8.392 -10.679  0.00  0.00    -0.130 F 
ATOM     21  F   LIG    1        4.439  -9.269  -8.707  0.00  0.00    -0.160 F 
ENDBRANCH  17  18
ENDBRANCH  15  17
ENDBRANCH   9  11
BRANCH   6  22
ATOM     22  C   LIG    1        3.717  -0.731  -0.018  0.00  0.00    +0.230 C 
BRANCH  22  23
ATOM     23  C   LIG    1        2.390  -0.017   0.006  0.00  0.00    -0.040 A 
ATOM     24  C   LIG    1        1.201  -0.730   0.011  0.00  0.00    -0.040 A 
ATOM     25  C   LIG    1        0.003  -0.041   0.032  0.00  0.00    +0.260 A 
ATOM     26  N   LIG    1       -0.017   1.277   0.047  0.00  0.00    -0.480 NA
ATOM     27  C   LIG    1        1.095   1.988   0.043  0.00  0.00    +0.260 A 
ATOM     28  C   LIG    1        2.329   1.368   0.023  0.00  0.00    -0.010 A 
ENDBRANCH  22  23
ENDBRANCH   6  22
TORSDOF 5
