REMARK  Name = ZINCrD000006V277.0
REMARK                            x       y       z     vdW  Elec       q    Type
REMARK                         _______ _______ _______ _____ _____    ______ ____
ROOT
ATOM      1  C   LIG    1       -0.479   4.668  -1.227  0.00  0.00    +0.570 C 
ATOM      2  N   LIG    1       -0.006   5.194  -0.080  0.00  0.00    -0.510 N 
ATOM      3  O   LIG    1       -0.071   5.075  -2.297  0.00  0.00    -0.490 OA
ENDROOT
BRANCH   1   7
ATOM      4  C   LIG    1       -3.397   1.585  -1.101  0.00  0.00    -0.660 A 
ATOM      5  C   LIG    1       -3.625   2.718  -1.861  0.00  0.00    +0.130 A 
ATOM      6  C   LIG    1       -2.682   3.723  -1.907  0.00  0.00    +0.050 A 
ATOM      7  C   LIG    1       -1.494   3.595  -1.183  0.00  0.00    -0.080 A 
ATOM      8  C   LIG    1       -1.268   2.446  -0.423  0.00  0.00    +0.050 A 
ATOM      9  C   LIG    1       -2.223   1.451  -0.382  0.00  0.00    +0.130 A 
BRANCH   4  10
ATOM     10  S   LIG    1       -4.608   0.306  -1.049  0.00  0.00    +2.690 S 
ATOM     11  O   LIG    1       -5.849   0.914  -1.379  0.00  0.00    -0.950 OA
ATOM     12  O   LIG    1       -4.389  -0.405   0.162  0.00  0.00    -0.950 OA
BRANCH  10  14
ATOM     13  C   LIG    1       -3.368  -1.883  -2.041  0.00  0.00    +0.300 C 
ATOM     14  N   LIG    1       -4.262  -0.748  -2.279  0.00  0.00    -1.000 NA
ATOM     15  C   LIG    1       -4.850  -0.544  -3.605  0.00  0.00    +0.310 C 
ENDBRANCH  10  14
ENDBRANCH   4  10
ENDBRANCH   1   7
BRANCH   2  16
ATOM     16  C   LIG    1       -0.494   4.747   1.147  0.00  0.00    +0.330 A 
ATOM     17  C   LIG    1       -1.518   5.445   1.777  0.00  0.00    -0.010 A 
ATOM     18  C   LIG    1       -1.993   4.989   2.995  0.00  0.00    +0.090 A 
ATOM     19  C   LIG    1       -1.426   3.846   3.541  0.00  0.00    -0.010 A 
ATOM     20  C   LIG    1       -0.408   3.206   2.862  0.00  0.00    +0.280 A 
ATOM     21  N   LIG    1        0.021   3.660   1.700  0.00  0.00    -0.480 NA
ENDBRANCH   2  16
BRANCH   2  22
ATOM     22  C   LIG    1        0.976   6.191  -0.121  0.00  0.00    +0.140 A 
ATOM     23  C   LIG    1        2.079   6.116   0.719  0.00  0.00    +0.010 A 
ATOM     24  C   LIG    1        3.049   7.098   0.673  0.00  0.00    +0.030 A 
ATOM     25  C   LIG    1        2.917   8.162  -0.201  0.00  0.00    +0.010 A 
ATOM     26  C   LIG    1        1.817   8.243  -1.035  0.00  0.00    +0.030 A 
ATOM     27  C   LIG    1        0.846   7.261  -0.997  0.00  0.00    +0.020 A 
ENDBRANCH   2  22
TORSDOF 5
