REMARK  Name = ZINCrD000000B5mw.0
REMARK                            x       y       z     vdW  Elec       q    Type
REMARK                         _______ _______ _______ _____ _____    ______ ____
ROOT
ATOM      1  C   LIG    1        0.002  -0.004   0.002  0.00  0.00    -0.060 A 
ATOM      2  C   LIG    1       -0.016   1.361   0.009  0.00  0.00    -0.100 A 
ATOM      3  C   LIG    1        1.322   1.783  -0.001  0.00  0.00    -0.040 A 
ATOM      4  C   LIG    1        2.090   0.671  -0.014  0.00  0.00    +0.230 A 
ATOM      5  O   LIG    1        1.290  -0.404  -0.012  0.00  0.00    -0.150 OA
ENDROOT
BRANCH   1   7
ATOM      6  O   LIG    1       -2.291  -0.402   0.023  0.00  0.00    -0.500 OA
ATOM      7  C   LIG    1       -1.173  -0.882   0.009  0.00  0.00    +0.600 C 
ATOM      8  N   LIG    1       -1.014  -2.220   0.001  0.00  0.00    -0.720 N 
ATOM      9  H   LIG    1       -0.123  -2.603  -0.011  0.00  0.00    +0.410 HD
BRANCH   8  10
ATOM     10  C   LIG    1       -2.188  -3.097   0.008  0.00  0.00    +0.280 C 
BRANCH  10  11
ATOM     11  C   LIG    1       -1.733  -4.558  -0.005  0.00  0.00    +0.080 C 
BRANCH  11  12
ATOM     12  C   LIG    1       -2.940  -5.460   0.003  0.00  0.00    -0.060 A 
ATOM     13  C   LIG    1       -3.478  -5.885   1.203  0.00  0.00    +0.010 A 
ATOM     14  C   LIG    1       -4.588  -6.708   1.212  0.00  0.00    +0.050 A 
ATOM     15  C   LIG    1       -5.155  -7.117   0.019  0.00  0.00    -0.010 A 
ATOM     16  C   LIG    1       -4.614  -6.696  -1.184  0.00  0.00    +0.100 A 
ATOM     17  F   LIG    1       -5.168  -7.094  -2.350  0.00  0.00    -0.140 F 
ATOM     18  C   LIG    1       -3.506  -5.867  -1.191  0.00  0.00    -0.010 A 
ENDBRANCH  11  12
ENDBRANCH  10  11
ENDBRANCH   8  10
ENDBRANCH   1   7
BRANCH   2  19
ATOM     19  C   LIG    1       -1.238   2.244   0.020  0.00  0.00    -0.230 C 
BRANCH  19  20
ATOM     20  S   LIG    1       -1.719   2.589   1.735  0.00  0.00    +2.500 S 
ATOM     21  O   LIG    1       -0.751   3.415   2.368  0.00  0.00    -0.930 OA
ATOM     22  O   LIG    1       -2.201   1.410   2.365  0.00  0.00    -0.920 OA
BRANCH  20  23
ATOM     23  C   LIG    1       -3.142   3.618   1.593  0.00  0.00    -0.660 A 
ATOM     24  C   LIG    1       -2.999   4.992   1.545  0.00  0.00    +0.110 A 
ATOM     25  C   LIG    1       -4.116   5.800   1.429  0.00  0.00    -0.010 A 
ATOM     26  C   LIG    1       -5.375   5.233   1.372  0.00  0.00    +0.070 A 
ATOM     27  C   LIG    1       -5.519   3.860   1.425  0.00  0.00    -0.010 A 
ATOM     28  C   LIG    1       -4.402   3.052   1.536  0.00  0.00    +0.130 A 
ENDBRANCH  20  23
ENDBRANCH  19  20
ENDBRANCH   2  19
TORSDOF 7
