REMARK  Name = ZINCqH0000036TyT.0
REMARK                            x       y       z     vdW  Elec       q    Type
REMARK                         _______ _______ _______ _____ _____    ______ ____
ROOT
ATOM      1  C   LIG    1        4.471   5.733   0.256  0.00  0.00    +0.240 A 
ATOM      2  C   LIG    1        4.468   4.469   0.848  0.00  0.00    -0.090 A 
ATOM      3  C   LIG    1        3.347   3.675   0.732  0.00  0.00    +0.320 A 
ATOM      4  N   LIG    1        2.283   4.096   0.072  0.00  0.00    -0.540 NA
ATOM      5  C   LIG    1        2.245   5.287  -0.503  0.00  0.00    +0.340 A 
ATOM      6  C   LIG    1        3.336   6.141  -0.436  0.00  0.00    -0.020 A 
ENDROOT
BRANCH   1  16
ATOM      7  C   LIG    1        5.387  12.144  -0.255  0.00  0.00    +0.040 C 
ATOM      8  C   LIG    1        6.109  10.817  -0.498  0.00  0.00    +0.010 C 
ATOM      9  C   LIG    1        6.314  10.111   0.855  0.00  0.00    +0.300 C 
ATOM     10  N   LIG    1        6.502   8.693   0.634  0.00  0.00    -0.620 N 
ATOM     11  C   LIG    1        7.846   8.115   0.617  0.00  0.00    +0.300 C 
ATOM     12  C   LIG    1        8.894   8.940  -0.156  0.00  0.00    -0.240 C 
ATOM     13  S   LIG    1        8.222   9.563  -1.705  0.00  0.00    +1.240 S 
ATOM     14  O   LIG    1        9.288   9.892  -2.585  0.00  0.00    -0.850 OA
ATOM     15  C   LIG    1        5.429   7.898   0.449  0.00  0.00    +0.710 C 
ATOM     16  N   LIG    1        5.588   6.564   0.352  0.00  0.00    -0.680 N 
ATOM     17  H   LIG    1        6.480   6.181   0.348  0.00  0.00    +0.410 HD
ATOM     18  O   LIG    1        4.318   8.385   0.370  0.00  0.00    -0.550 OA
ATOM     19  C   LIG    1        7.357  11.086  -1.202  0.00  0.00    -0.230 C 
ENDBRANCH   1  16
BRANCH   5  20
ATOM     20  O   LIG    1        1.130   5.675  -1.171  0.00  0.00    -0.240 OA
BRANCH  20  21
ATOM     21  C   LIG    1        0.046   4.855  -1.133  0.00  0.00    +0.110 A 
ATOM     22  C   LIG    1       -0.225   4.012  -2.200  0.00  0.00    +0.040 A 
ATOM     23  C   LIG    1       -1.327   3.179  -2.159  0.00  0.00    +0.040 A 
ATOM     24  C   LIG    1       -2.159   3.186  -1.055  0.00  0.00    +0.040 A 
ATOM     25  C   LIG    1       -1.892   4.026   0.010  0.00  0.00    +0.040 A 
ATOM     26  C   LIG    1       -0.792   4.861  -0.025  0.00  0.00    -0.040 A 
ATOM     27 CL   LIG    1       -0.457   5.915   1.312  0.00  0.00    -0.050 Cl
ENDBRANCH  20  21
ENDBRANCH   5  20
TORSDOF 3
