REMARK  Name = ZINCrD00000hQ7sC.0
REMARK                            x       y       z     vdW  Elec       q    Type
REMARK                         _______ _______ _______ _____ _____    ______ ____
ROOT
ATOM      1  C   LIG    1        6.230   6.290  -0.229  0.00  0.00    +0.240 C 
ENDROOT
BRANCH   1   4
ATOM      2  N   LIG    1        8.700   6.357  -0.347  0.00  0.00    -0.730 N 
ATOM      3  H   LIG    1        8.693   5.388  -0.384  0.00  0.00    +0.410 HD
ATOM      4  C   LIG    1        7.539   7.036  -0.264  0.00  0.00    +0.520 C 
ATOM      5  O   LIG    1        7.548   8.248  -0.218  0.00  0.00    -0.510 OA
BRANCH   2   6
ATOM      6  C   LIG    1        9.972   7.082  -0.381  0.00  0.00    +0.270 C 
BRANCH   6   7
ATOM      7  C   LIG    1       11.127   6.083  -0.476  0.00  0.00    +0.100 C 
BRANCH   7   8
ATOM      8  C   LIG    1       12.456   6.840  -0.512  0.00  0.00    +0.030 C 
ATOM      9  N   LIG    1       12.539   8.141   0.156  0.00  0.00    -0.110 NA
ATOM     10  N   LIG    1       12.478   8.189  -1.083  0.00  0.00    -0.120 NA
BRANCH   8  11
ATOM     11  C   LIG    1       13.720   5.984  -0.607  0.00  0.00    +0.120 C 
BRANCH  11  12
ATOM     12  C   LIG    1       14.951   6.892  -0.632  0.00  0.00    +0.160 C 
BRANCH  12  14
ATOM     13  C   LIG    1       17.137   5.410  -0.796  0.00  0.00    +0.030 C 
ATOM     14  C   LIG    1       16.167   6.068  -0.724  0.00  0.00    -0.190 C 
ENDBRANCH  12  14
ENDBRANCH  11  12
ENDBRANCH   8  11
ENDBRANCH   7   8
ENDBRANCH   6   7
ENDBRANCH   2   6
ENDBRANCH   1   4
BRANCH   1  15
ATOM     15  O   LIG    1        5.152   7.223  -0.140  0.00  0.00    -0.290 OA
BRANCH  15  16
ATOM     16  C   LIG    1        3.893   6.710  -0.098  0.00  0.00    +0.130 A 
ATOM     17  C   LIG    1        2.800   7.561  -0.012  0.00  0.00    +0.010 A 
ATOM     18  C   LIG    1        1.522   7.040   0.031  0.00  0.00    +0.060 A 
ATOM     19  C   LIG    1        1.331   5.666  -0.013  0.00  0.00    +0.060 A 
ATOM     20  C   LIG    1        2.424   4.816  -0.094  0.00  0.00    +0.050 A 
ATOM     21  C   LIG    1        3.702   5.337  -0.142  0.00  0.00    -0.060 A 
BRANCH  19  22
ATOM     22  O   LIG    1        0.072   5.153   0.030  0.00  0.00    -0.250 OA
BRANCH  22  23
ATOM     23  C   LIG    1       -0.677   5.209  -1.100  0.00  0.00    +0.310 A 
ATOM     24  C   LIG    1       -1.928   4.606  -1.126  0.00  0.00    -0.050 A 
ATOM     25  C   LIG    1       -2.685   4.675  -2.283  0.00  0.00    +0.100 A 
ATOM     26  C   LIG    1       -2.155   5.338  -3.381  0.00  0.00    -0.070 A 
ATOM     27  C   LIG    1       -0.904   5.914  -3.284  0.00  0.00    +0.300 A 
ATOM     28  N   LIG    1       -0.208   5.837  -2.166  0.00  0.00    -0.530 NA
ENDBRANCH  22  23
ENDBRANCH  19  22
ENDBRANCH  15  16
ENDBRANCH   1  15
TORSDOF 11
