REMARK  Name = ZINCb80000001O5R.0
REMARK                            x       y       z     vdW  Elec       q    Type
REMARK                         _______ _______ _______ _____ _____    ______ ____
ROOT
ATOM      1  C   LIG    1       -1.136  -2.159   0.001  0.00  0.00    +0.230 C 
ATOM      2  C   LIG    1       -1.028  -2.662  -1.442  0.00  0.00    -0.000 C 
ATOM      3  C   LIG    1       -1.087  -4.191  -1.446  0.00  0.00    +0.220 C 
ATOM      4  O   LIG    1       -2.302  -4.622  -0.828  0.00  0.00    -0.370 OA
ATOM      5  C   LIG    1       -2.436  -4.221   0.537  0.00  0.00    +0.220 C 
ATOM      6  C   LIG    1       -2.431  -2.692   0.621  0.00  0.00    +0.150 C 
ATOM      7  F   LIG    1       -3.529  -2.182  -0.080  0.00  0.00    -0.200 F 
ENDROOT
BRANCH   1  10
ATOM      8  C   LIG    1       -0.018   1.503   0.010  0.00  0.00    +0.090 C 
ATOM      9  C   LIG    1        0.002  -0.004   0.002  0.00  0.00    +0.510 C 
ATOM     10  N   LIG    1       -1.156  -0.694   0.009  0.00  0.00    -0.730 N 
ATOM     11  H   LIG    1       -2.002  -0.220   0.020  0.00  0.00    +0.410 HD
ATOM     12  O   LIG    1        1.060  -0.596  -0.011  0.00  0.00    -0.540 OA
ENDBRANCH   1  10
TORSDOF 1
