REMARK  Name = ZINCrD000000CJXA.0
REMARK                            x       y       z     vdW  Elec       q    Type
REMARK                         _______ _______ _______ _____ _____    ______ ____
ROOT
ATOM      1  O   LIG    1        3.512   0.021  -4.624  0.00  0.00    -0.400 OA
ATOM      2  C   LIG    1        3.491   0.567  -3.541  0.00  0.00    +0.510 C 
ATOM      3  C   LIG    1        2.707   0.154  -2.331  0.00  0.00    +0.500 C 
ATOM      4  N   LIG    1        3.007   1.065  -1.380  0.00  0.00    -0.570 N 
ATOM      5  C   LIG    1        3.877   1.953  -1.889  0.00  0.00    +0.710 C 
ATOM      6  O   LIG    1        4.336   2.893  -1.271  0.00  0.00    -0.480 OA
ATOM      7  O   LIG    1        1.960  -0.796  -2.228  0.00  0.00    -0.390 OA
ATOM      8  N   LIG    1        4.173   1.671  -3.168  0.00  0.00    -0.570 N 
ENDROOT
BRANCH   4   9
ATOM      9  C   LIG    1        2.476   1.079  -0.015  0.00  0.00    +0.410 C 
BRANCH   9  10
ATOM     10  C   LIG    1        1.303   2.022   0.058  0.00  0.00    -0.170 A 
ATOM     11  C   LIG    1        1.482   3.303   0.495  0.00  0.00    +0.160 A 
ATOM     12  C   LIG    1        0.359   4.150   0.552  0.00  0.00    -0.110 A 
ATOM     13  C   LIG    1        0.468   5.481   0.985  0.00  0.00    +0.050 A 
ATOM     14  C   LIG    1       -0.641   6.270   1.021  0.00  0.00    +0.020 A 
ATOM     15  C   LIG    1       -1.883   5.776   0.629  0.00  0.00    +0.050 A 
ATOM     16  C   LIG    1       -2.024   4.492   0.199  0.00  0.00    +0.050 A 
ATOM     17  C   LIG    1       -0.903   3.646   0.148  0.00  0.00    +0.150 A 
ATOM     18  N   LIG    1       -1.011   2.381  -0.270  0.00  0.00    -0.460 NA
ATOM     19  C   LIG    1        0.033   1.588  -0.320  0.00  0.00    +0.210 A 
ATOM     20 CL   LIG    1       -0.172  -0.046  -0.872  0.00  0.00    -0.000 Cl
ENDBRANCH   9  10
ENDBRANCH   4   9
BRANCH   8  21
ATOM     21  C   LIG    1        5.086   2.438  -4.020  0.00  0.00    +0.380 C 
BRANCH  21  22
ATOM     22  C   LIG    1        6.482   1.888  -3.881  0.00  0.00    -0.130 A 
ATOM     23  C   LIG    1        7.333   2.396  -2.918  0.00  0.00    +0.040 A 
ATOM     24  C   LIG    1        8.612   1.888  -2.788  0.00  0.00    +0.010 A 
ATOM     25  C   LIG    1        9.044   0.879  -3.629  0.00  0.00    +0.020 A 
ATOM     26  C   LIG    1        8.195   0.375  -4.596  0.00  0.00    +0.010 A 
ATOM     27  C   LIG    1        6.914   0.879  -4.722  0.00  0.00    +0.030 A 
ENDBRANCH  21  22
ENDBRANCH   8  21
TORSDOF 4
