REMARK  Name = ZINCpe000000UjVu.0
REMARK                            x       y       z     vdW  Elec       q    Type
REMARK                         _______ _______ _______ _____ _____    ______ ____
ROOT
ATOM      1  C   LIG    1       -3.571   1.810   0.029  0.00  0.00    +0.600 C 
ATOM      2  N   LIG    1       -2.394   1.152   0.020  0.00  0.00    -0.500 N 
ATOM      3  H   LIG    1       -2.381   0.182   0.014  0.00  0.00    +0.440 HD
ATOM      4  O   LIG    1       -3.587   3.026   0.035  0.00  0.00    -0.520 OA
ENDROOT
BRANCH   1   7
ATOM      5  N   LIG    1       -5.883  -0.984   0.025  0.00  0.00    -0.360 N 
ATOM      6  N   LIG    1       -4.830  -0.256   0.024  0.00  0.00    -0.190 NA
ATOM      7  C   LIG    1       -4.839   1.054   0.031  0.00  0.00    +0.060 A 
ATOM      8  C   LIG    1       -6.128   1.764   0.047  0.00  0.00    -0.030 A 
ATOM      9  C   LIG    1       -6.225   3.151   0.048  0.00  0.00    +0.070 A 
ATOM     10  C   LIG    1       -7.470   3.743   0.058  0.00  0.00    +0.060 A 
ATOM     11  C   LIG    1       -8.624   2.971   0.060  0.00  0.00    +0.030 A 
ATOM     12  C   LIG    1       -8.551   1.594   0.052  0.00  0.00    +0.090 A 
ATOM     13  C   LIG    1       -7.304   0.978   0.042  0.00  0.00    -0.140 A 
ATOM     14  C   LIG    1       -7.135  -0.482   0.033  0.00  0.00    +0.520 A 
ATOM     15  O   LIG    1       -8.102  -1.221   0.033  0.00  0.00    -0.490 OA
BRANCH   5  17
ATOM     16  C   LIG    1       -5.669  -2.938  -1.430  0.00  0.00    +0.040 C 
ATOM     17  C   LIG    1       -5.719  -2.439   0.015  0.00  0.00    +0.330 C 
ENDBRANCH   5  17
ENDBRANCH   1   7
BRANCH   2  18
ATOM     18  N   LIG    1       -1.191   1.869   0.018  0.00  0.00    -0.510 N 
ATOM     19  H   LIG    1       -1.204   2.839   0.023  0.00  0.00    +0.430 HD
ATOM     20  C   LIG    1       -0.014   1.211   0.009  0.00  0.00    +0.560 C 
ATOM     21  O   LIG    1        0.002  -0.004   0.002  0.00  0.00    -0.520 OA
BRANCH  20  22
ATOM     22  C   LIG    1        1.258   1.969   0.001  0.00  0.00    -0.080 A 
ATOM     23  C   LIG    1        1.262   3.367   0.002  0.00  0.00    +0.000 A 
ATOM     24  C   LIG    1        2.472   4.034   0.000  0.00  0.00    +0.270 A 
ATOM     25  N   LIG    1        3.611   3.370  -0.014  0.00  0.00    -0.460 NA
ATOM     26  C   LIG    1        3.652   2.053  -0.022  0.00  0.00    +0.270 A 
ATOM     27  C   LIG    1        2.489   1.306  -0.015  0.00  0.00    +0.040 A 
ENDBRANCH  20  22
ENDBRANCH   2  18
TORSDOF 4
