REMARK  Name = ZINCrH000004tIFw.0
REMARK                            x       y       z     vdW  Elec       q    Type
REMARK                         _______ _______ _______ _____ _____    ______ ____
ROOT
ATOM      1  O   LIG    1       -1.864   9.987  -0.319  0.00  0.00    -0.490 OA
ATOM      2  C   LIG    1       -2.565   9.448  -1.149  0.00  0.00    +0.510 C 
ATOM      3  N   LIG    1       -3.420  10.182  -1.888  0.00  0.00    -0.620 N 
ATOM      4  H   LIG    1       -3.981   9.750  -2.552  0.00  0.00    +0.430 HD
ENDROOT
BRANCH   3   5
ATOM      5  C   LIG    1       -3.498  11.556  -1.700  0.00  0.00    +0.270 A 
ATOM      6  N   LIG    1       -4.277  12.359  -2.355  0.00  0.00    -0.500 NA
ATOM      7  C   LIG    1       -4.222  13.645  -2.037  0.00  0.00    +0.130 A 
ATOM      8  C   LIG    1       -3.344  13.961  -1.068  0.00  0.00    -0.110 A 
ATOM      9  S   LIG    1       -2.549  12.480  -0.539  0.00  0.00    +0.220 S 
BRANCH   7  10
ATOM     10  C   LIG    1       -5.064  14.665  -2.707  0.00  0.00    -0.070 A 
ATOM     11  C   LIG    1       -6.034  14.284  -3.639  0.00  0.00    +0.090 A 
ATOM     12  C   LIG    1       -6.798  15.274  -4.233  0.00  0.00    -0.030 A 
ATOM     13  C   LIG    1       -6.572  16.596  -3.897  0.00  0.00    +0.260 A 
ATOM     14  N   LIG    1       -5.646  16.926  -3.018  0.00  0.00    -0.480 NA
ATOM     15  C   LIG    1       -4.898  16.019  -2.423  0.00  0.00    +0.280 A 
ENDBRANCH   7  10
ENDBRANCH   3   5
BRANCH   2  16
ATOM     16  C   LIG    1       -2.480   7.957  -1.353  0.00  0.00    +0.090 C 
BRANCH  16  17
ATOM     17  C   LIG    1       -1.442   7.369  -0.395  0.00  0.00    +0.080 C 
BRANCH  17  18
ATOM     18  C   LIG    1       -1.446   5.844  -0.512  0.00  0.00    +0.010 C 
ATOM     19  C   LIG    1       -0.974   5.441  -1.910  0.00  0.00    +0.100 C 
ATOM     20  C   LIG    1       -0.700   3.960  -1.945  0.00  0.00    -0.130 A 
ATOM     21  C   LIG    1       -0.932   3.242  -3.102  0.00  0.00    +0.050 A 
ATOM     22  C   LIG    1       -0.653   1.889  -3.145  0.00  0.00    -0.010 A 
ATOM     23  C   LIG    1       -0.141   1.250  -2.030  0.00  0.00    +0.040 A 
ATOM     24  C   LIG    1        0.083   1.960  -0.867  0.00  0.00    -0.020 A 
ATOM     25  C   LIG    1       -0.198   3.320  -0.820  0.00  0.00    +0.160 A 
ATOM     26  N   LIG    1        0.001   4.033   0.365  0.00  0.00    -0.660 N 
ATOM     27  H   LIG    1        0.524   3.638   1.080  0.00  0.00    +0.410 HD
ATOM     28  C   LIG    1       -0.524   5.260   0.525  0.00  0.00    +0.520 C 
ATOM     29  O   LIG    1       -0.252   5.904   1.517  0.00  0.00    -0.510 OA
ENDBRANCH  17  18
ENDBRANCH  16  17
ENDBRANCH   2  16
TORSDOF 5
