REMARK  Name = ZINCrg000000r6z9.0
REMARK                            x       y       z     vdW  Elec       q    Type
REMARK                         _______ _______ _______ _____ _____    ______ ____
ROOT
ATOM      1  N   LIG    1       -0.047  -1.955   1.444  0.00  0.00    -0.720 N 
ATOM      2  H   LIG    1       -0.048  -2.620   0.739  0.00  0.00    +0.400 HD
ATOM      3  C   LIG    1       -0.090  -0.644   1.134  0.00  0.00    +0.500 C 
ATOM      4  O   LIG    1       -0.089   0.189   2.016  0.00  0.00    -0.520 OA
ENDROOT
BRANCH   1   5
ATOM      5  C   LIG    1        0.002  -2.374   2.847  0.00  0.00    +0.320 C 
BRANCH   5  10
ATOM      6  C   LIG    1        1.297  -5.922   2.989  0.00  0.00    +0.140 A 
ATOM      7  C   LIG    1        0.113  -6.644   3.055  0.00  0.00    +0.020 A 
ATOM      8  C   LIG    1       -1.099  -5.981   3.053  0.00  0.00    +0.040 A 
ATOM      9  C   LIG    1       -1.133  -4.600   2.992  0.00  0.00    +0.030 A 
ATOM     10  C   LIG    1        0.044  -3.879   2.920  0.00  0.00    -0.100 A 
ATOM     11  C   LIG    1        1.259  -4.535   2.922  0.00  0.00    +0.020 A 
BRANCH   6  12
ATOM     12  N   LIG    1        2.524  -6.589   2.991  0.00  0.00    -1.060 N 
ATOM     13  H   LIG    1        3.213  -6.341   2.355  0.00  0.00    +0.430 HD
BRANCH  12  15
ATOM     14  C   LIG    1        2.662  -7.001   5.701  0.00  0.00    -0.280 C 
ATOM     15  S   LIG    1        2.804  -7.805   4.081  0.00  0.00    +2.610 S 
ATOM     16  O   LIG    1        4.148  -8.194   3.834  0.00  0.00    -0.950 OA
ATOM     17  O   LIG    1        1.729  -8.711   3.878  0.00  0.00    -0.950 OA
ENDBRANCH  12  15
ENDBRANCH   6  12
ENDBRANCH   5  10
ENDBRANCH   1   5
BRANCH   3  18
ATOM     18  C   LIG    1       -0.141  -0.212  -0.309  0.00  0.00    +0.330 C 
BRANCH  18  19
ATOM     19  N   LIG    1       -0.182   1.250  -0.381  0.00  0.00    -0.500 N 
ATOM     20  C   LIG    1       -1.364   1.904  -0.389  0.00  0.00    +0.500 A 
ATOM     21  C   LIG    1       -1.372   3.369  -0.455  0.00  0.00    +0.300 A 
ATOM     22  N   LIG    1       -0.251   4.029  -0.516  0.00  0.00    -0.400 NA
ATOM     23  C   LIG    1        0.934   3.387  -0.515  0.00  0.00    +0.020 A 
ATOM     24  C   LIG    1        2.130   4.118  -0.582  0.00  0.00    +0.110 A 
ATOM     25  C   LIG    1        3.328   3.466  -0.581  0.00  0.00    -0.010 A 
ATOM     26  C   LIG    1        3.380   2.080  -0.514  0.00  0.00    +0.090 A 
ATOM     27  C   LIG    1        2.220   1.339  -0.447  0.00  0.00    -0.030 A 
ATOM     28  O   LIG    1       -2.411   1.284  -0.337  0.00  0.00    -0.510 OA
ATOM     29  C   LIG    1        0.987   1.982  -0.447  0.00  0.00    +0.160 A 
ENDBRANCH  18  19
ENDBRANCH   3  18
TORSDOF 6
