REMARK  Name = ZINCpe000000SXCQ.0
REMARK                            x       y       z     vdW  Elec       q    Type
REMARK                         _______ _______ _______ _____ _____    ______ ____
ROOT
ATOM      1  C   LIG    1       -0.013   1.086   0.008  0.00  0.00    +0.270 C 
ENDROOT
BRANCH   1   3
ATOM      2  C   LIG    1       -0.222   1.232   2.431  0.00  0.00    +0.520 C 
ATOM      3  N   LIG    1       -0.698   1.558   1.213  0.00  0.00    -0.730 N 
ATOM      4  H   LIG    1       -1.495   2.106   1.135  0.00  0.00    +0.410 HD
ATOM      5  O   LIG    1        0.774   0.548   2.529  0.00  0.00    -0.520 OA
BRANCH   2   8
ATOM      6  N   LIG    1       -0.870  -0.033   5.308  0.00  0.00    -0.610 N 
ATOM      7  C   LIG    1       -0.207   1.225   4.946  0.00  0.00    +0.300 C 
ATOM      8  C   LIG    1       -0.927   1.718   3.671  0.00  0.00    +0.000 C 
ATOM      9  C   LIG    1       -2.315   1.052   3.815  0.00  0.00    +0.070 C 
ATOM     10  C   LIG    1       -2.059  -0.154   4.692  0.00  0.00    +0.520 C 
ATOM     11  O   LIG    1       -2.815  -1.093   4.819  0.00  0.00    -0.520 OA
BRANCH   6  13
ATOM     12  C   LIG    1       -1.254  -1.219   7.412  0.00  0.00    +0.030 C 
ATOM     13  C   LIG    1       -0.309  -1.029   6.224  0.00  0.00    +0.240 C 
ATOM     14  C   LIG    1       -0.140  -2.360   5.489  0.00  0.00    +0.030 C 
ENDBRANCH   6  13
ENDBRANCH   2   8
ENDBRANCH   1   3
BRANCH   1  15
ATOM     15  C   LIG    1       -0.753   1.593  -1.232  0.00  0.00    +0.270 C 
BRANCH  15  16
ATOM     16  N   LIG    1       -0.067   1.120  -2.437  0.00  0.00    -0.730 N 
ATOM     17  H   LIG    1        0.730   0.573  -2.358  0.00  0.00    +0.400 HD
ATOM     18  C   LIG    1       -0.543   1.446  -3.655  0.00  0.00    +0.520 C 
ATOM     19  O   LIG    1       -1.540   2.130  -3.753  0.00  0.00    -0.520 OA
BRANCH  18  20
ATOM     20  C   LIG    1        0.162   0.960  -4.895  0.00  0.00    +0.120 C 
BRANCH  20  21
ATOM     21  C   LIG    1       -0.567   1.459  -6.115  0.00  0.00    -0.080 A 
ATOM     22  C   LIG    1       -1.575   0.698  -6.677  0.00  0.00    +0.050 A 
ATOM     23  C   LIG    1       -2.248   1.157  -7.794  0.00  0.00    -0.010 A 
ATOM     24  C   LIG    1       -1.904   2.375  -8.357  0.00  0.00    +0.100 A 
ATOM     25  C   LIG    1       -0.890   3.134  -7.796  0.00  0.00    -0.010 A 
ATOM     26  F   LIG    1       -2.557   2.822  -9.451  0.00  0.00    -0.140 F 
ATOM     27  C   LIG    1       -0.223   2.675  -6.676  0.00  0.00    +0.050 A 
ENDBRANCH  20  21
ENDBRANCH  18  20
ENDBRANCH  15  16
ENDBRANCH   1  15
TORSDOF 7
