REMARK  Name = ZINCrH000004ukF9.0
REMARK                            x       y       z     vdW  Elec       q    Type
REMARK                         _______ _______ _______ _____ _____    ______ ____
ROOT
ATOM      1  O   LIG    1       -2.677   3.683   3.684  0.00  0.00    -0.520 OA
ATOM      2  C   LIG    1       -3.228   3.972   2.639  0.00  0.00    +0.560 C 
ATOM      3  N   LIG    1       -2.749   3.499   1.472  0.00  0.00    -0.730 N 
ATOM      4  H   LIG    1       -3.189   3.730   0.638  0.00  0.00    +0.400 HD
ENDROOT
BRANCH   2   5
ATOM      5  C   LIG    1       -4.423   4.843   2.650  0.00  0.00    -0.110 A 
ATOM      6  C   LIG    1       -5.057   5.176   1.452  0.00  0.00    +0.030 A 
ATOM      7  C   LIG    1       -6.175   5.990   1.462  0.00  0.00    +0.100 A 
ATOM      8  C   LIG    1       -6.670   6.478   2.657  0.00  0.00    +0.040 A 
ATOM      9  C   LIG    1       -6.045   6.151   3.860  0.00  0.00    -0.020 A 
ATOM     10  F   LIG    1       -6.785   6.311   0.299  0.00  0.00    -0.130 F 
ATOM     11  C   LIG    1       -4.923   5.328   3.857  0.00  0.00    +0.130 A 
BRANCH   9  12
ATOM     12  C   LIG    1       -6.578   6.676   5.141  0.00  0.00    +0.160 A 
ATOM     13  C   LIG    1       -7.763   7.408   5.148  0.00  0.00    -0.020 A 
ATOM     14  C   LIG    1       -8.248   7.891   6.351  0.00  0.00    +0.070 A 
ATOM     15  C   LIG    1       -7.532   7.625   7.509  0.00  0.00    -0.030 A 
ATOM     16  C   LIG    1       -6.362   6.891   7.429  0.00  0.00    +0.270 A 
ATOM     17  N   LIG    1       -5.925   6.439   6.272  0.00  0.00    -0.470 NA
ENDBRANCH   9  12
ENDBRANCH   2   5
BRANCH   3  18
ATOM     18  C   LIG    1       -1.565   2.637   1.461  0.00  0.00    +0.260 C 
BRANCH  18  19
ATOM     19  C   LIG    1       -1.234   2.242   0.020  0.00  0.00    +0.100 C 
BRANCH  19  20
ATOM     20  C   LIG    1       -0.016   1.355   0.009  0.00  0.00    -0.210 A 
ATOM     21  C   LIG    1        0.002  -0.004   0.002  0.00  0.00    +0.240 A 
ATOM     22  N   LIG    1        1.263  -0.440  -0.012  0.00  0.00    -0.540 NA
ATOM     23  C   LIG    1        2.108   0.577  -0.015  0.00  0.00    +0.250 A 
ATOM     24  N   LIG    1        3.477   0.670  -0.028  0.00  0.00    -0.490 N 
ATOM     25  H   LIG    1        4.013  -0.139  -0.038  0.00  0.00    +0.420 HD
ATOM     26  C   LIG    1        4.082   1.868  -0.028  0.00  0.00    +0.330 A 
ATOM     27  C   LIG    1        3.372   3.030  -0.015  0.00  0.00    -0.080 A 
ATOM     28  C   LIG    1        1.982   3.004  -0.001  0.00  0.00    +0.180 A 
ATOM     29  C   LIG    1        1.334   1.771  -0.001  0.00  0.00    -0.160 A 
ENDBRANCH  19  20
ENDBRANCH  18  19
ENDBRANCH   3  18
TORSDOF 5
