REMARK  Name = ZINCrH000004kZlj.0
REMARK                            x       y       z     vdW  Elec       q    Type
REMARK                         _______ _______ _______ _____ _____    ______ ____
ROOT
ATOM      1  N   LIG    1       -0.011   0.966   0.007  0.00  0.00    -1.110 NA
ATOM      2  H   LIG    1        0.002  -0.004   0.002  0.00  0.00    +0.420 HD
ENDROOT
BRANCH   1   3
ATOM      3  S   LIG    1       -1.456   1.774   0.019  0.00  0.00    +2.690 S 
ATOM      4  O   LIG    1       -1.361   2.752   1.045  0.00  0.00    -0.940 OA
ATOM      5  O   LIG    1       -2.472   0.781  -0.017  0.00  0.00    -0.940 OA
BRANCH   3   9
ATOM      6  C   LIG    1       -1.753   4.047  -3.890  0.00  0.00    -0.070 A 
ATOM      7  C   LIG    1       -2.244   2.743  -3.798  0.00  0.00    +0.080 A 
ATOM      8  C   LIG    1       -2.150   2.057  -2.605  0.00  0.00    +0.130 A 
ATOM      9  C   LIG    1       -1.571   2.658  -1.501  0.00  0.00    -0.650 A 
ATOM     10  C   LIG    1       -1.088   3.952  -1.584  0.00  0.00    +0.120 A 
ATOM     11  C   LIG    1       -1.170   4.647  -2.773  0.00  0.00    +0.070 A 
BRANCH   6  12
ATOM     12  C   LIG    1       -1.850   4.788  -5.165  0.00  0.00    +0.500 C 
ATOM     13  O   LIG    1       -2.358   4.263  -6.135  0.00  0.00    -0.490 OA
BRANCH  12  15
ATOM     14  C   LIG    1       -1.505   6.714  -6.533  0.00  0.00    +0.290 C 
ATOM     15  O   LIG    1       -1.376   6.046  -5.250  0.00  0.00    -0.350 OA
ENDBRANCH  12  15
ENDBRANCH   6  12
ENDBRANCH   3   9
ENDBRANCH   1   3
BRANCH   1  16
ATOM     16  C   LIG    1        1.248   1.716  -0.001  0.00  0.00    +0.390 C 
BRANCH  16  17
ATOM     17  C   LIG    1        2.282   0.968   0.800  0.00  0.00    -0.100 A 
ATOM     18  C   LIG    1        2.360  -0.409   0.715  0.00  0.00    +0.050 A 
ATOM     19  C   LIG    1        3.311  -1.095   1.446  0.00  0.00    -0.010 A 
ATOM     20  C   LIG    1        4.181  -0.403   2.271  0.00  0.00    +0.110 A 
ATOM     21  C   LIG    1        4.099   0.976   2.360  0.00  0.00    -0.010 A 
ATOM     22  F   LIG    1        5.109  -1.073   2.989  0.00  0.00    -0.140 F 
ATOM     23  C   LIG    1        3.150   1.661   1.625  0.00  0.00    +0.070 A 
ENDBRANCH  16  17
BRANCH  16  24
ATOM     24  C   LIG    1        1.729   1.874  -1.420  0.00  0.00    -0.210 A 
ATOM     25  C   LIG    1        2.283   2.977  -1.925  0.00  0.00    +0.020 A 
ATOM     26  C   LIG    1        2.649   2.888  -3.257  0.00  0.00    +0.010 A 
ATOM     27  C   LIG    1        2.391   1.713  -3.834  0.00  0.00    -0.040 A 
ATOM     28  S   LIG    1        1.653   0.630  -2.661  0.00  0.00    +0.120 S 
ENDBRANCH  16  24
ENDBRANCH   1  16
TORSDOF 7
