REMARK  Name = ZINCtV00000L6kMl.0
REMARK                            x       y       z     vdW  Elec       q    Type
REMARK                         _______ _______ _______ _____ _____    ______ ____
ROOT
ATOM      1  N   LIG    1       -0.280   1.045  -0.011  0.00  0.00    -0.470 N 
ATOM      2  C   LIG    1       -0.049  -0.282   0.043  0.00  0.00    +0.570 C 
ATOM      3  O   LIG    1       -0.874  -1.023   0.539  0.00  0.00    -0.480 OA
ENDROOT
BRANCH   1   4
ATOM      4  C   LIG    1       -1.508   1.551   0.389  0.00  0.00    +0.310 A 
ATOM      5  N   LIG    1       -1.862   2.785   0.288  0.00  0.00    -0.490 NA
ATOM      6  C   LIG    1       -3.093   3.125   0.717  0.00  0.00    +0.100 A 
ATOM      7  C   LIG    1       -3.712   4.393   0.712  0.00  0.00    +0.060 A 
ATOM      8  C   LIG    1       -4.984   4.548   1.202  0.00  0.00    +0.040 A 
ATOM      9  C   LIG    1       -5.683   3.462   1.708  0.00  0.00    +0.030 A 
ATOM     10  C   LIG    1       -5.100   2.214   1.723  0.00  0.00    +0.060 A 
ATOM     11  C   LIG    1       -3.809   2.038   1.231  0.00  0.00    -0.220 A 
ATOM     12  S   LIG    1       -2.799   0.600   1.110  0.00  0.00    +0.180 S 
ENDBRANCH   1   4
BRANCH   2  13
ATOM     13  C   LIG    1        1.209  -0.835  -0.502  0.00  0.00    -0.130 A 
ATOM     14  C   LIG    1        1.688  -0.399  -1.738  0.00  0.00    +0.050 A 
ATOM     15  C   LIG    1        2.863  -0.920  -2.241  0.00  0.00    +0.010 A 
ATOM     16  C   LIG    1        3.565  -1.871  -1.523  0.00  0.00    +0.050 A 
ATOM     17  C   LIG    1        3.096  -2.307  -0.296  0.00  0.00    -0.090 A 
ATOM     18  C   LIG    1        3.868  -3.343   0.480  0.00  0.00    +0.090 C 
ATOM     19  C   LIG    1        1.925  -1.791   0.221  0.00  0.00    -0.020 A 
ATOM     20  C   LIG    1        1.419  -2.262   1.560  0.00  0.00    +0.100 C 
ENDBRANCH   2  13
BRANCH   1  24
ATOM     21  C   LIG    1        2.682   3.622  -1.389  0.00  0.00    -0.160 A 
ATOM     22  C   LIG    1        1.503   3.450  -2.125  0.00  0.00    +0.090 A 
ATOM     23  C   LIG    1        0.530   2.600  -1.667  0.00  0.00    +0.020 A 
ATOM     24  C   LIG    1        0.712   1.908  -0.473  0.00  0.00    +0.160 A 
ATOM     25  C   LIG    1        1.881   2.080   0.265  0.00  0.00    +0.020 A 
ATOM     26  C   LIG    1        2.862   2.924  -0.188  0.00  0.00    +0.080 A 
BRANCH  21  28
ATOM     27  C   LIG    1        5.051   4.610  -1.159  0.00  0.00    +0.080 C 
ATOM     28  C   LIG    1        3.728   4.531  -1.875  0.00  0.00    +0.390 C 
ATOM     29  O   LIG    1        3.526   5.219  -2.854  0.00  0.00    -0.450 OA
ENDBRANCH  21  28
ENDBRANCH   1  24
TORSDOF 4
