REMARK  Name = ZINCnE000001Sm4y.0
REMARK                            x       y       z     vdW  Elec       q    Type
REMARK                         _______ _______ _______ _____ _____    ______ ____
ROOT
ATOM      1  O   LIG    1        7.741   4.104  -0.046  0.00  0.00    -0.560 OA
ATOM      2  C   LIG    1        7.056   5.105  -0.035  0.00  0.00    +0.470 C 
ATOM      3  N   LIG    1        5.712   5.002  -0.024  0.00  0.00    -0.680 NA
ENDROOT
BRANCH   3   4
ATOM      4  C   LIG    1        5.113   3.752  -0.025  0.00  0.00    +0.430 A 
ATOM      5  N   LIG    1        5.731   2.596  -0.036  0.00  0.00    -0.360 NA
ATOM      6  N   LIG    1        4.863   1.646  -0.033  0.00  0.00    -0.250 NA
ATOM      7  C   LIG    1        3.656   2.160  -0.020  0.00  0.00    +0.090 A 
ATOM      8  O   LIG    1        3.790   3.504  -0.020  0.00  0.00    -0.240 OA
BRANCH   7   9
ATOM      9  C   LIG    1        2.385   1.407  -0.013  0.00  0.00    +0.030 A 
ATOM     10  C   LIG    1        1.167   2.088   0.002  0.00  0.00    +0.020 A 
ATOM     11  C   LIG    1       -0.017   1.379   0.010  0.00  0.00    +0.000 A 
ATOM     12  C   LIG    1        0.002  -0.004   0.002  0.00  0.00    -0.010 A 
ATOM     13  C   LIG    1        1.206  -0.686  -0.013  0.00  0.00    +0.010 A 
ATOM     14  C   LIG    1        2.397   0.011  -0.020  0.00  0.00    +0.050 A 
ENDBRANCH   7   9
ENDBRANCH   3   4
BRANCH   2  15
ATOM     15  C   LIG    1        7.708   6.464  -0.034  0.00  0.00    +0.230 C 
BRANCH  15  16
ATOM     16  O   LIG    1        9.128   6.311  -0.047  0.00  0.00    -0.290 OA
BRANCH  16  17
ATOM     17  C   LIG    1        9.872   7.449  -0.048  0.00  0.00    +0.150 A 
ATOM     18  C   LIG    1        9.246   8.687  -0.043  0.00  0.00    -0.060 A 
ATOM     19  C   LIG    1       10.003   9.842  -0.039  0.00  0.00    +0.060 A 
ATOM     20  C   LIG    1       11.384   9.765  -0.051  0.00  0.00    -0.080 A 
ATOM     21  C   LIG    1       12.010   8.531  -0.062  0.00  0.00    +0.070 A 
ATOM     22 CL   LIG    1       12.334  11.219  -0.053  0.00  0.00    -0.080 Cl
ATOM     23  C   LIG    1       11.257   7.374  -0.060  0.00  0.00    +0.000 A 
ENDBRANCH  16  17
ENDBRANCH  15  16
ENDBRANCH   2  15
TORSDOF 5
