REMARK  Name = ZINCrD000003XK5v.0
REMARK                            x       y       z     vdW  Elec       q    Type
REMARK                         _______ _______ _______ _____ _____    ______ ____
ROOT
ATOM      1  C   LIG    1       -2.831  -2.217   1.127  0.00  0.00    +0.250 C 
ATOM      2  C   LIG    1       -2.363  -3.674   1.050  0.00  0.00    +0.300 C 
ATOM      3  N   LIG    1       -3.533  -4.554   1.171  0.00  0.00    -0.610 N 
ATOM      4  C   LIG    1       -4.431  -4.382   2.322  0.00  0.00    +0.290 C 
ATOM      5  C   LIG    1       -4.876  -2.918   2.385  0.00  0.00    +0.060 C 
ATOM      6  C   LIG    1       -3.778  -5.502   0.245  0.00  0.00    +0.590 C 
ATOM      7  O   LIG    1       -3.096  -5.561  -0.760  0.00  0.00    -0.530 OA
ATOM      8  C   LIG    1       -3.641  -2.013   2.410  0.00  0.00    -0.010 C 
ENDROOT
BRANCH   6   9
ATOM      9  C   LIG    1       -4.873  -6.466   0.449  0.00  0.00    -0.250 A 
ATOM     10  C   LIG    1       -5.588  -7.119  -0.512  0.00  0.00    +0.280 A 
ATOM     11  O   LIG    1       -6.487  -7.904   0.090  0.00  0.00    -0.170 OA
ATOM     12  C   LIG    1       -6.402  -7.793   1.425  0.00  0.00    +0.180 A 
ATOM     13  C   LIG    1       -5.428  -6.922   1.732  0.00  0.00    -0.040 A 
ENDBRANCH   6   9
BRANCH   1  15
ATOM     14  C   LIG    1       -1.099  -0.948  -0.023  0.00  0.00    +0.600 C 
ATOM     15  N   LIG    1       -1.666  -1.329   1.138  0.00  0.00    -0.720 N 
ATOM     16  H   LIG    1       -1.304  -1.015   1.982  0.00  0.00    +0.410 HD
ATOM     17  O   LIG    1       -1.554  -1.341  -1.080  0.00  0.00    -0.520 OA
BRANCH  14  24
ATOM     18  C   LIG    1        2.042  -1.847   0.083  0.00  0.00    +0.110 C 
ATOM     19  C   LIG    1        1.489  -0.446   0.035  0.00  0.00    -0.150 A 
ATOM     20  C   LIG    1        2.189   0.699   0.028  0.00  0.00    +0.170 A 
ATOM     21  O   LIG    1        1.337   1.735  -0.019  0.00  0.00    -0.170 OA
ATOM     22  C   LIG    1        0.070   1.310  -0.044  0.00  0.00    +0.050 A 
ATOM     23  C   LIG    1       -1.153   2.188  -0.103  0.00  0.00    +0.190 C 
ATOM     24  C   LIG    1        0.073  -0.054  -0.012  0.00  0.00    -0.240 A 
ENDBRANCH  14  24
ENDBRANCH   1  15
BRANCH   8  25
ATOM     25  C   LIG    1       -4.082  -0.551   2.507  0.00  0.00    +0.460 C 
ATOM     26  F   LIG    1       -2.953   0.275   2.532  0.00  0.00    -0.180 F 
ATOM     27  F   LIG    1       -4.822  -0.364   3.679  0.00  0.00    -0.180 F 
ATOM     28  F   LIG    1       -4.872  -0.228   1.399  0.00  0.00    -0.180 F 
ENDBRANCH   8  25
TORSDOF 4
