REMARK  Name = ZINCpk000000oyRI.0
REMARK                            x       y       z     vdW  Elec       q    Type
REMARK                         _______ _______ _______ _____ _____    ______ ____
ROOT
ATOM      1  N   LIG    1       -0.900   1.880  -1.312  0.00  0.00    -0.980 NA
ENDROOT
BRANCH   1   2
ATOM      2  S   LIG    1       -0.017   1.417   0.010  0.00  0.00    +2.720 S 
ATOM      3  O   LIG    1        1.162   2.210   0.003  0.00  0.00    -0.960 OA
ATOM      4  O   LIG    1        0.002  -0.004   0.002  0.00  0.00    -0.960 OA
BRANCH   2   5
ATOM      5  C   LIG    1       -0.930   1.894   1.440  0.00  0.00    -0.810 A 
ATOM      6  C   LIG    1       -0.830   3.077   2.089  0.00  0.00    +0.220 A 
ATOM      7  N   LIG    1       -1.694   3.051   3.126  0.00  0.00    -0.460 N 
ATOM      8  H   LIG    1       -1.839   3.765   3.765  0.00  0.00    +0.440 HD
ATOM      9  N   LIG    1       -2.339   1.807   3.118  0.00  0.00    -0.290 NA
ATOM     10  C   LIG    1        0.079   4.220   1.719  0.00  0.00    +0.180 C 
ATOM     11  C   LIG    1       -1.880   1.115   2.107  0.00  0.00    +0.180 A 
ATOM     12  C   LIG    1       -2.303  -0.281   1.728  0.00  0.00    +0.160 C 
ENDBRANCH   2   5
ENDBRANCH   1   2
BRANCH   1  14
ATOM     13  C   LIG    1        0.296   3.114  -3.052  0.00  0.00    +0.020 C 
ATOM     14  C   LIG    1       -0.702   3.208  -1.897  0.00  0.00    +0.280 C 
ENDBRANCH   1  14
BRANCH   1  15
ATOM     15  C   LIG    1       -1.879   0.961  -1.898  0.00  0.00    +0.330 C 
BRANCH  15  16
ATOM     16  C   LIG    1       -3.245   1.254  -1.332  0.00  0.00    +0.490 C 
ATOM     17  N   LIG    1       -4.309   0.529  -1.728  0.00  0.00    -0.730 N 
ATOM     18  H   LIG    1       -4.196  -0.183  -2.378  0.00  0.00    +0.400 HD
ATOM     19  O   LIG    1       -3.386   2.144  -0.520  0.00  0.00    -0.520 OA
BRANCH  17  20
ATOM     20  C   LIG    1       -5.636   0.814  -1.178  0.00  0.00    +0.320 C 
BRANCH  20  21
ATOM     21  C   LIG    1       -6.644  -0.131  -1.780  0.00  0.00    -0.120 A 
ATOM     22  C   LIG    1       -7.310   0.216  -2.941  0.00  0.00    +0.060 A 
ATOM     23  C   LIG    1       -8.230  -0.652  -3.497  0.00  0.00    -0.020 A 
ATOM     24  C   LIG    1       -8.493  -1.866  -2.885  0.00  0.00    +0.110 A 
ATOM     25  C   LIG    1       -7.829  -2.211  -1.720  0.00  0.00    -0.010 A 
ATOM     26  F   LIG    1       -9.396  -2.713  -3.424  0.00  0.00    -0.140 F 
ATOM     27  C   LIG    1       -6.905  -1.343  -1.169  0.00  0.00    +0.070 A 
ENDBRANCH  20  21
ENDBRANCH  17  20
ENDBRANCH  15  16
ENDBRANCH   1  15
TORSDOF 7
