REMARK  Name = ZINCrD000006UNOq.1
REMARK                            x       y       z     vdW  Elec       q    Type
REMARK                         _______ _______ _______ _____ _____    ______ ____
ROOT
ATOM      1  C   LIG    1       -0.880   5.888   0.043  0.00  0.00    +0.520 C 
ATOM      2  N   LIG    1       -1.460   4.671   0.041  0.00  0.00    -0.620 N 
ATOM      3  H   LIG    1       -2.426   4.595   0.050  0.00  0.00    +0.430 HD
ATOM      4  O   LIG    1        0.329   5.984   0.032  0.00  0.00    -0.450 OA
ENDROOT
BRANCH   1   9
ATOM      5  C   LIG    1       -2.768  10.607  -1.869  0.00  0.00    +0.650 C 
ATOM      6  N   LIG    1       -2.669   9.580  -1.002  0.00  0.00    -0.600 N 
ATOM      7  C   LIG    1       -1.705   9.627   0.106  0.00  0.00    +0.320 C 
ATOM      8  C   LIG    1       -0.834   8.367   0.056  0.00  0.00    +0.050 C 
ATOM      9  C   LIG    1       -1.734   7.129   0.058  0.00  0.00    +0.020 C 
ATOM     10  C   LIG    1       -2.630   7.147  -1.183  0.00  0.00    +0.030 C 
ATOM     11  C   LIG    1       -3.521   8.392  -1.147  0.00  0.00    +0.290 C 
ATOM     12  O   LIG    1       -2.058  11.584  -1.738  0.00  0.00    -0.560 OA
BRANCH   5  13
ATOM     13  O   LIG    1       -3.656  10.550  -2.880  0.00  0.00    -0.360 OA
BRANCH  13  15
ATOM     14  C   LIG    1       -2.343  11.886  -4.437  0.00  0.00    +0.040 C 
ATOM     15  C   LIG    1       -3.709  11.693  -3.775  0.00  0.00    +0.140 C 
ATOM     16  C   LIG    1       -4.072  12.948  -2.979  0.00  0.00    +0.040 C 
ATOM     17  C   LIG    1       -4.767  11.448  -4.852  0.00  0.00    +0.080 C 
ENDBRANCH  13  15
ENDBRANCH   5  13
ENDBRANCH   1   9
BRANCH   2  18
ATOM     18  C   LIG    1       -0.674   3.530   0.028  0.00  0.00    +0.380 A 
ATOM     19  N   LIG    1        0.636   3.490   0.015  0.00  0.00    -0.260 NA
ATOM     20  N   LIG    1        1.028   2.264   0.004  0.00  0.00    -0.260 NA
ATOM     21  C   LIG    1       -0.018   1.474   0.010  0.00  0.00    +0.200 A 
ATOM     22  O   LIG    1       -1.117   2.259   0.019  0.00  0.00    -0.230 OA
BRANCH  21  23
ATOM     23  C   LIG    1        0.002  -0.004   0.002  0.00  0.00    -0.020 A 
ATOM     24  C   LIG    1       -1.195  -0.722   0.015  0.00  0.00    +0.040 A 
ATOM     25  C   LIG    1       -1.170  -2.101   0.002  0.00  0.00    +0.010 A 
ATOM     26  C   LIG    1        0.040  -2.773  -0.013  0.00  0.00    +0.040 A 
ATOM     27  C   LIG    1        1.230  -2.068  -0.020  0.00  0.00    +0.020 A 
ATOM     28  C   LIG    1        1.219  -0.689  -0.013  0.00  0.00    +0.070 A 
ENDBRANCH  21  23
ENDBRANCH   2  18
TORSDOF 5
