REMARK  Name = ZINCpe00000MGtJ8.0
REMARK                            x       y       z     vdW  Elec       q    Type
REMARK                         _______ _______ _______ _____ _____    ______ ____
ROOT
ATOM      1  O   LIG    1        0.010  -0.009   0.022  0.00  0.00    -0.530 OA
ATOM      2  C   LIG    1       -0.038   1.203   0.012  0.00  0.00    +0.510 C 
ATOM      3  C   LIG    1       -1.387   1.868   0.001  0.00  0.00    +0.340 C 
ATOM      4  N   LIG    1       -1.214   3.293  -0.311  0.00  0.00    -0.610 N 
ATOM      5  C   LIG    1       -0.098   4.000   0.340  0.00  0.00    +0.230 C 
ATOM      6  C   LIG    1        1.208   3.334  -0.097  0.00  0.00    +0.310 C 
ATOM      7  C   LIG    1       -2.043   3.927  -1.163  0.00  0.00    +0.560 C 
ATOM      8  O   LIG    1       -1.816   5.075  -1.492  0.00  0.00    -0.450 OA
ATOM      9  N   LIG    1        1.109   1.885   0.006  0.00  0.00    -0.710 N 
ATOM     10  H   LIG    1        1.934   1.379   0.074  0.00  0.00    +0.410 HD
ENDROOT
BRANCH   7  11
ATOM     11  C   LIG    1       -3.228   3.227  -1.698  0.00  0.00    -0.050 A 
ATOM     12  C   LIG    1       -4.256   2.832  -0.839  0.00  0.00    +0.100 A 
ATOM     13  C   LIG    1       -5.363   2.178  -1.343  0.00  0.00    +0.090 A 
ATOM     14  C   LIG    1       -5.452   1.911  -2.710  0.00  0.00    +0.060 A 
ATOM     15  O   LIG    1       -6.628   1.264  -2.950  0.00  0.00    -0.290 OA
ATOM     16  C   LIG    1       -7.443   1.499  -1.787  0.00  0.00    +0.460 C 
ATOM     17  C   LIG    1       -4.429   2.304  -3.563  0.00  0.00    +0.140 A 
ATOM     18  O   LIG    1       -6.484   1.696  -0.731  0.00  0.00    -0.290 OA
ATOM     19  C   LIG    1       -3.326   2.962  -3.067  0.00  0.00    -0.000 A 
BRANCH  19  20
ATOM     20  N   LIG    1       -2.242   3.384  -3.982  0.00  0.00    +0.020 N 
ATOM     21  O   LIG    1       -1.307   4.040  -3.557  0.00  0.00    -0.110 OA
ATOM     22  O   LIG    1       -2.284   3.075  -5.159  0.00  0.00    -0.150 OA
ENDBRANCH  19  20
ENDBRANCH   7  11
BRANCH   5  23
ATOM     23  C   LIG    1       -0.097   5.469  -0.089  0.00  0.00    +0.470 C 
ATOM     24  F   LIG    1        0.916   6.153   0.593  0.00  0.00    -0.180 F 
ATOM     25  F   LIG    1       -1.335   6.044   0.216  0.00  0.00    -0.170 F 
ATOM     26  F   LIG    1        0.129   5.552  -1.467  0.00  0.00    -0.150 F 
ENDBRANCH   5  23
TORSDOF 3
