REMARK  Name = ZINCpe00000VVGZr.0
REMARK                            x       y       z     vdW  Elec       q    Type
REMARK                         _______ _______ _______ _____ _____    ______ ____
ROOT
ATOM      1  N   LIG    1        1.379  -0.363  -0.001  0.00  0.00    -0.570 N 
ATOM      2  C   LIG    1        0.068  -0.035   0.002  0.00  0.00    +0.510 C 
ATOM      3  C   LIG    1        0.032   1.464   0.005  0.00  0.00    +0.510 C 
ATOM      4  N   LIG    1        1.325   1.855   0.003  0.00  0.00    -0.560 N 
ATOM      5  O   LIG    1       -0.951   2.175   0.004  0.00  0.00    -0.400 OA
ATOM      6  O   LIG    1       -0.878  -0.793   0.003  0.00  0.00    -0.400 OA
ATOM      7  C   LIG    1        2.108   0.765  -0.001  0.00  0.00    +0.720 C 
ATOM      8  O   LIG    1        3.322   0.794  -0.004  0.00  0.00    -0.480 OA
ENDROOT
BRANCH   1   9
ATOM      9  C   LIG    1        1.917  -1.726  -0.005  0.00  0.00    +0.340 C 
BRANCH   9  10
ATOM     10  C   LIG    1        2.101  -2.198  -1.448  0.00  0.00    +0.020 C 
BRANCH  10  11
ATOM     11  C   LIG    1        2.663  -3.621  -1.452  0.00  0.00    +0.190 C 
BRANCH  11  12
ATOM     12  O   LIG    1        2.835  -4.062  -2.800  0.00  0.00    -0.390 OA
BRANCH  12  14
ATOM     13  C   LIG    1        3.499  -5.751  -4.395  0.00  0.00    +0.040 C 
ATOM     14  C   LIG    1        3.357  -5.387  -2.916  0.00  0.00    +0.160 C 
ENDBRANCH  12  14
ENDBRANCH  11  12
ENDBRANCH  10  11
ENDBRANCH   9  10
ENDBRANCH   1   9
BRANCH   4  15
ATOM     15  C   LIG    1        1.795   3.242   0.004  0.00  0.00    +0.390 C 
BRANCH  15  16
ATOM     16  C   LIG    1        1.960   3.716   1.425  0.00  0.00    +0.500 C 
ATOM     17  N   LIG    1        2.386   4.971   1.671  0.00  0.00    -0.660 N 
ATOM     18  H   LIG    1        2.646   5.548   0.937  0.00  0.00    +0.420 HD
ATOM     19  O   LIG    1        1.709   2.969   2.346  0.00  0.00    -0.500 OA
BRANCH  17  20
ATOM     20  C   LIG    1        2.454   5.440   2.989  0.00  0.00    +0.110 A 
ATOM     21  C   LIG    1        2.788   4.579   4.029  0.00  0.00    +0.100 A 
ATOM     22  C   LIG    1        2.843   5.090   5.316  0.00  0.00    +0.000 A 
ATOM     23  C   LIG    1        2.567   6.428   5.524  0.00  0.00    +0.280 A 
ATOM     24  N   LIG    1        2.253   7.220   4.516  0.00  0.00    -0.460 NA
ATOM     25  C   LIG    1        2.195   6.776   3.276  0.00  0.00    +0.150 A 
ATOM     26 CL   LIG    1        1.784   7.867   1.990  0.00  0.00    -0.020 Cl
ENDBRANCH  17  20
ENDBRANCH  15  16
ENDBRANCH   4  15
TORSDOF 8
