REMARK  Name = ZINCvU0000000DLW.0
REMARK                            x       y       z     vdW  Elec       q    Type
REMARK                         _______ _______ _______ _____ _____    ______ ____
ROOT
ATOM      1  C   LIG    1       -1.619  -0.300  -0.631  0.00  0.00    -0.150 A 
ATOM      2  C   LIG    1       -1.578  -1.327   0.320  0.00  0.00    +0.090 A 
ATOM      3  C   LIG    1       -2.673  -2.143   0.494  0.00  0.00    +0.030 A 
ATOM      4  C   LIG    1       -3.813  -1.956  -0.279  0.00  0.00    +0.170 A 
ATOM      5  C   LIG    1       -3.857  -0.940  -1.228  0.00  0.00    +0.030 A 
ATOM      6  C   LIG    1       -2.769  -0.115  -1.407  0.00  0.00    +0.110 A 
ENDROOT
BRANCH   4   7
ATOM      7  N   LIG    1       -4.920  -2.792  -0.102  0.00  0.00    -0.340 N 
ATOM      8  N   LIG    1       -5.180  -3.998  -0.770  0.00  0.00    -0.060 NA
ATOM      9  N   LIG    1       -6.293  -4.468  -0.326  0.00  0.00    -0.230 NA
ATOM     10  C   LIG    1       -6.800  -3.644   0.592  0.00  0.00    +0.120 A 
ATOM     11  C   LIG    1       -5.966  -2.595   0.750  0.00  0.00    +0.080 A 
BRANCH  11  12
ATOM     12  C   LIG    1       -6.155  -1.430   1.687  0.00  0.00    +0.020 C 
ATOM     13  C   LIG    1       -4.981  -1.369   2.666  0.00  0.00    +0.030 C 
ATOM     14  C   LIG    1       -5.172  -0.186   3.618  0.00  0.00    -0.010 C 
ATOM     15  C   LIG    1       -5.232   1.113   2.812  0.00  0.00    +0.020 C 
ATOM     16  C   LIG    1       -6.405   1.052   1.832  0.00  0.00    -0.010 C 
ATOM     17  C   LIG    1       -7.711   0.874   2.610  0.00  0.00    +0.020 C 
ATOM     18  C   LIG    1       -7.651  -0.425   3.417  0.00  0.00    +0.000 C 
ATOM     19  C   LIG    1       -6.478  -0.363   4.396  0.00  0.00    +0.020 C 
ATOM     20  C   LIG    1       -6.214  -0.131   0.880  0.00  0.00    +0.030 C 
ATOM     21  C   LIG    1       -7.460  -1.607   2.465  0.00  0.00    +0.040 C 
ENDBRANCH  11  12
ENDBRANCH   4   7
BRANCH   1  23
ATOM     22  O   LIG    1       -0.490   1.464  -1.645  0.00  0.00    -0.440 OA
ATOM     23  C   LIG    1       -0.455   0.578  -0.817  0.00  0.00    +0.390 C 
BRANCH  23  24
ATOM     24  C   LIG    1        0.782   0.378   0.019  0.00  0.00    +0.280 C 
BRANCH  24  25
ATOM     25  N   LIG    1        1.791   1.371  -0.355  0.00  0.00    -0.740 N 
ATOM     26  H   LIG    1        1.599   2.021  -1.049  0.00  0.00    +0.410 HD
BRANCH  25  27
ATOM     27  C   LIG    1        3.031   1.384   0.288  0.00  0.00    +0.210 A 
ATOM     28  C   LIG    1        3.307   0.459   1.287  0.00  0.00    -0.080 A 
ATOM     29  C   LIG    1        4.535   0.471   1.917  0.00  0.00    +0.050 A 
ATOM     30  C   LIG    1        5.487   1.410   1.563  0.00  0.00    -0.060 A 
ATOM     31  C   LIG    1        5.214   2.336   0.573  0.00  0.00    +0.050 A 
ATOM     32  C   LIG    1        3.989   2.326  -0.065  0.00  0.00    -0.070 A 
ENDBRANCH  25  27
ENDBRANCH  24  25
ENDBRANCH  23  24
ENDBRANCH   1  23
TORSDOF 6
