REMARK  Name = ZINCrH000004jPRL.0
REMARK                            x       y       z     vdW  Elec       q    Type
REMARK                         _______ _______ _______ _____ _____    ______ ____
ROOT
ATOM      1  C   LIG    1        3.955  -0.340   0.008  0.00  0.00    +0.290 C 
ATOM      2  N   LIG    1        3.341   0.083   1.268  0.00  0.00    -0.610 N 
ATOM      3  C   LIG    1        2.127   0.668   1.264  0.00  0.00    +0.560 C 
ATOM      4  O   LIG    1        1.660   1.104   2.294  0.00  0.00    -0.530 OA
ENDROOT
BRANCH   3   5
ATOM      5  C   LIG    1        1.350   0.780  -0.023  0.00  0.00    -0.120 C 
ATOM      6  C   LIG    1        1.933   1.665  -1.126  0.00  0.00    +0.050 C 
ATOM      7  C   LIG    1        0.704   2.130  -0.343  0.00  0.00    +0.090 C 
BRANCH   5   8
ATOM      8  C   LIG    1        0.610  -0.463  -0.446  0.00  0.00    -0.050 A 
ATOM      9  C   LIG    1        0.401  -0.719  -1.788  0.00  0.00    +0.020 A 
ATOM     10  C   LIG    1       -0.273  -1.862  -2.176  0.00  0.00    +0.010 A 
ATOM     11  C   LIG    1       -0.747  -2.743  -1.222  0.00  0.00    -0.070 A 
ATOM     12  C   LIG    1       -0.543  -2.483   0.120  0.00  0.00    +0.010 A 
ATOM     13  C   LIG    1        0.136  -1.344   0.508  0.00  0.00    +0.010 A 
BRANCH  11  14
ATOM     14  C   LIG    1       -1.486  -3.986  -1.645  0.00  0.00    -0.030 C 
ATOM     15  C   LIG    1       -0.739  -5.221  -1.140  0.00  0.00    +0.040 C 
ATOM     16  C   LIG    1       -1.574  -4.032  -3.172  0.00  0.00    +0.030 C 
ATOM     17  C   LIG    1       -2.897  -3.966  -1.054  0.00  0.00    +0.040 C 
ENDBRANCH  11  14
ENDBRANCH   5   8
ENDBRANCH   3   5
BRANCH   2  18
ATOM     18  C   LIG    1        4.047  -0.129   2.534  0.00  0.00    +0.290 C 
BRANCH  18  19
ATOM     19  C   LIG    1        3.669  -1.496   3.106  0.00  0.00    -0.010 C 
BRANCH  19  20
ATOM     20  C   LIG    1        4.407  -1.718   4.429  0.00  0.00    +0.260 C 
BRANCH  20  21
ATOM     21  N   LIG    1        4.045  -3.027   4.976  0.00  0.00    -0.730 N 
ATOM     22  H   LIG    1        3.422  -3.598   4.498  0.00  0.00    +0.400 HD
ATOM     23  C   LIG    1        4.577  -3.440   6.144  0.00  0.00    +0.520 C 
ATOM     24  O   LIG    1        5.355  -2.727   6.741  0.00  0.00    -0.540 OA
BRANCH  23  25
ATOM     25  C   LIG    1        4.204  -4.787   6.707  0.00  0.00    -0.030 C 
ATOM     26  C   LIG    1        2.858  -4.794   7.450  0.00  0.00    +0.040 C 
ATOM     27  C   LIG    1        3.526  -5.715   8.487  0.00  0.00    +0.010 C 
ATOM     28  C   LIG    1        4.867  -5.093   8.061  0.00  0.00    +0.040 C 
ENDBRANCH  23  25
ENDBRANCH  20  21
ENDBRANCH  19  20
ENDBRANCH  18  19
ENDBRANCH   2  18
TORSDOF 8
