REMARK  Name = ZINCqH0000003ZN9.0
REMARK                            x       y       z     vdW  Elec       q    Type
REMARK                         _______ _______ _______ _____ _____    ______ ____
ROOT
ATOM      1  N   LIG    1        2.573  -0.819  -6.146  0.00  0.00    -1.120 NA
ATOM      2  H   LIG    1        2.058  -1.049  -6.935  0.00  0.00    +0.420 HD
ENDROOT
BRANCH   1   3
ATOM      3  S   LIG    1        2.826  -1.949  -4.963  0.00  0.00    +2.700 S 
ATOM      4  O   LIG    1        2.143  -3.124  -5.378  0.00  0.00    -0.960 OA
ATOM      5  O   LIG    1        4.216  -1.920  -4.671  0.00  0.00    -0.950 OA
BRANCH   3   9
ATOM      6  C   LIG    1        0.707  -0.490  -1.238  0.00  0.00    -0.020 A 
ATOM      7  C   LIG    1        2.022  -0.132  -1.470  0.00  0.00    -0.010 A 
ATOM      8  C   LIG    1        2.671  -0.582  -2.605  0.00  0.00    +0.120 A 
ATOM      9  C   LIG    1        2.001  -1.381  -3.513  0.00  0.00    -0.680 A 
ATOM     10  C   LIG    1        0.685  -1.735  -3.283  0.00  0.00    +0.130 A 
ATOM     11  C   LIG    1        0.038  -1.289  -2.146  0.00  0.00    -0.010 A 
BRANCH   6  12
ATOM     12  C   LIG    1        0.002  -0.004   0.002  0.00  0.00    +0.020 C 
ATOM     13  C   LIG    1       -0.019   1.526   0.010  0.00  0.00    +0.040 C 
BRANCH  12  15
ATOM     14  C   LIG    1       -0.042  -0.124   2.497  0.00  0.00    +0.020 C 
ATOM     15  C   LIG    1        0.742  -0.511   1.242  0.00  0.00    +0.010 C 
ENDBRANCH  12  15
ENDBRANCH   6  12
ENDBRANCH   3   9
ENDBRANCH   1   3
BRANCH   1  16
ATOM     16  C   LIG    1        3.126   0.530  -6.000  0.00  0.00    +0.270 C 
BRANCH  16  17
ATOM     17  C   LIG    1        3.082   1.248  -7.351  0.00  0.00    +0.080 C 
BRANCH  17  18
ATOM     18  C   LIG    1        3.651   2.635  -7.202  0.00  0.00    -0.080 A 
ATOM     19  C   LIG    1        2.820   3.691  -6.880  0.00  0.00    +0.020 A 
ATOM     20  C   LIG    1        3.338   4.965  -6.737  0.00  0.00    -0.030 A 
ATOM     21  C   LIG    1        4.692   5.187  -6.927  0.00  0.00    +0.100 A 
ATOM     22  C   LIG    1        5.529   4.125  -7.256  0.00  0.00    +0.100 A 
ATOM     23  C   LIG    1        5.004   2.850  -7.393  0.00  0.00    -0.030 A 
BRANCH  22  24
ATOM     24  O   LIG    1        6.859   4.337  -7.443  0.00  0.00    -0.310 OA
ATOM     25  C   LIG    1        7.657   3.200  -7.779  0.00  0.00    +0.240 C 
ENDBRANCH  22  24
BRANCH  21  26
ATOM     26  O   LIG    1        5.202   6.440  -6.792  0.00  0.00    -0.310 OA
ATOM     27  C   LIG    1        4.285   7.481  -6.453  0.00  0.00    +0.250 C 
ENDBRANCH  21  26
ENDBRANCH  17  18
ENDBRANCH  16  17
ENDBRANCH   1  16
TORSDOF 9
