REMARK  Name = ZINCkj000005lr9c.1
REMARK                            x       y       z     vdW  Elec       q    Type
REMARK                         _______ _______ _______ _____ _____    ______ ____
ROOT
ATOM      1  C   LIG    1       -0.699   1.479   1.216  0.00  0.00    +0.030 C 
ATOM      2  C   LIG    1        0.018   1.018   2.501  0.00  0.00    +0.060 C 
ATOM      3  C   LIG    1       -0.202   2.181   3.500  0.00  0.00    +0.050 C 
ATOM      4  C   LIG    1       -0.074   3.434   2.599  0.00  0.00    +0.050 C 
ATOM      5  C   LIG    1       -2.167   1.003   1.266  0.00  0.00    +0.320 C 
ATOM      6  N   LIG    1       -2.894   2.142   1.907  0.00  0.00    -0.610 N 
ATOM      7  C   LIG    1       -3.897   2.066   2.804  0.00  0.00    +0.630 C 
ATOM      8  O   LIG    1       -4.309   0.981   3.166  0.00  0.00    -0.490 OA
ATOM      9  C   LIG    1       -2.264   3.360   1.349  0.00  0.00    +0.310 C 
ATOM     10  C   LIG    1       -0.759   3.025   1.279  0.00  0.00    +0.010 C 
ENDROOT
BRANCH   7  11
ATOM     11  C   LIG    1       -4.495   3.302   3.349  0.00  0.00    +0.030 A 
ATOM     12  N   LIG    1       -4.147   4.539   3.053  0.00  0.00    -0.250 NA
ATOM     13  N   LIG    1       -4.877   5.370   3.705  0.00  0.00    -0.370 N 
ATOM     14  H   LIG    1       -4.805   6.336   3.647  0.00  0.00    +0.460 HD
ATOM     15  C   LIG    1       -5.755   4.707   4.487  0.00  0.00    +0.290 A 
ATOM     16  C   LIG    1       -5.547   3.384   4.292  0.00  0.00    -0.250 A 
BRANCH  16  17
ATOM     17  C   LIG    1       -6.281   2.239   4.941  0.00  0.00    +0.550 C 
ATOM     18  F   LIG    1       -5.374   1.451   5.657  0.00  0.00    -0.170 F 
ATOM     19  F   LIG    1       -6.898   1.462   3.956  0.00  0.00    -0.170 F 
ATOM     20  F   LIG    1       -7.251   2.743   5.814  0.00  0.00    -0.180 F 
ENDBRANCH  16  17
ENDBRANCH   7  11
BRANCH   1  21
ATOM     21  N   LIG    1       -0.012   1.005   0.008  0.00  0.00    -0.620 N 
ATOM     22  H   LIG    1       -0.500   1.339  -0.810  0.00  0.00    +0.440 HD
ATOM     23  H   LIG    1        0.935   1.354   0.000  0.00  0.00    +0.440 HD
ATOM     24  H   LIG    1        0.002  -0.004   0.002  0.00  0.00    +0.440 HD
ENDBRANCH   1  21
TORSDOF 3
