REMARK  Name = ZINCkj000005lr9c.0
REMARK                            x       y       z     vdW  Elec       q    Type
REMARK                         _______ _______ _______ _____ _____    ______ ____
ROOT
ATOM      1  C   LIG    1       -1.939   1.689  -0.046  0.00  0.00    +0.030 C 
ATOM      2  C   LIG    1       -1.704   1.508   1.466  0.00  0.00    +0.070 C 
ATOM      3  C   LIG    1       -0.201   1.840   1.665  0.00  0.00    +0.060 C 
ATOM      4  C   LIG    1        0.450   1.224   0.403  0.00  0.00    +0.060 C 
ATOM      5  C   LIG    1       -2.324   3.158  -0.319  0.00  0.00    +0.280 C 
ATOM      6  N   LIG    1       -1.034   3.848  -0.550  0.00  0.00    -0.620 N 
ATOM      7  C   LIG    1       -0.665   5.074  -0.130  0.00  0.00    +0.610 C 
ATOM      8  O   LIG    1        0.476   5.458  -0.302  0.00  0.00    -0.460 OA
ATOM      9  C   LIG    1       -0.241   2.884  -1.348  0.00  0.00    +0.310 C 
ATOM     10  C   LIG    1       -0.559   1.507  -0.728  0.00  0.00    +0.010 C 
ENDROOT
BRANCH   7  11
ATOM     11  C   LIG    1       -1.643   5.948   0.537  0.00  0.00    +0.010 A 
ATOM     12  C   LIG    1       -1.391   7.167   1.143  0.00  0.00    -0.220 A 
ATOM     13  C   LIG    1       -2.627   7.603   1.626  0.00  0.00    +0.280 A 
ATOM     14  N   LIG    1       -3.520   6.698   1.317  0.00  0.00    -0.250 NA
ATOM     15  N   LIG    1       -2.983   5.723   0.677  0.00  0.00    -0.370 N 
ATOM     16  H   LIG    1       -3.456   4.943   0.347  0.00  0.00    +0.440 HD
BRANCH  12  17
ATOM     17  C   LIG    1       -0.064   7.873   1.257  0.00  0.00    +0.550 C 
ATOM     18  F   LIG    1        0.439   8.130  -0.022  0.00  0.00    -0.160 F 
ATOM     19  F   LIG    1        0.836   7.064   1.958  0.00  0.00    -0.170 F 
ATOM     20  F   LIG    1       -0.236   9.081   1.942  0.00  0.00    -0.170 F 
ENDBRANCH  12  17
ENDBRANCH   7  11
BRANCH   1  21
ATOM     21  N   LIG    1       -2.940   0.754  -0.577  0.00  0.00    -0.620 N 
ATOM     22  H   LIG    1       -3.054   0.909  -1.567  0.00  0.00    +0.440 HD
ATOM     23  H   LIG    1       -3.821   0.903  -0.109  0.00  0.00    +0.440 HD
ATOM     24  H   LIG    1       -2.632  -0.194  -0.419  0.00  0.00    +0.440 HD
ENDBRANCH   1  21
TORSDOF 3
