REMARK  Name = ZINCtV00000L6kK3.0
REMARK                            x       y       z     vdW  Elec       q    Type
REMARK                         _______ _______ _______ _____ _____    ______ ____
ROOT
ATOM      1  C   LIG    1        0.005  -0.004  -0.004  0.00  0.00    +0.250 C 
ENDROOT
BRANCH   1   2
ATOM      2  C   LIG    1        0.036  -0.517   1.413  0.00  0.00    -0.130 A 
ATOM      3  C   LIG    1       -0.722   0.102   2.389  0.00  0.00    +0.050 A 
ATOM      4  C   LIG    1       -0.698  -0.372   3.688  0.00  0.00    +0.010 A 
ATOM      5  C   LIG    1        0.093  -1.458   4.012  0.00  0.00    +0.030 A 
ATOM      6  C   LIG    1        0.856  -2.074   3.037  0.00  0.00    +0.010 A 
ATOM      7  C   LIG    1        0.827  -1.603   1.738  0.00  0.00    +0.030 A 
ENDBRANCH   1   2
BRANCH   1   8
ATOM      8  C   LIG    1       -1.229  -0.519  -0.698  0.00  0.00    +0.530 C 
ATOM      9  N   LIG    1       -1.425  -1.847  -0.828  0.00  0.00    -0.660 N 
ATOM     10  H   LIG    1       -0.740  -2.469  -0.535  0.00  0.00    +0.420 HD
ATOM     11  O   LIG    1       -2.046   0.260  -1.139  0.00  0.00    -0.480 OA
BRANCH   9  12
ATOM     12  C   LIG    1       -2.615  -2.327  -1.385  0.00  0.00    +0.170 A 
ATOM     13  C   LIG    1       -3.172  -3.511  -0.921  0.00  0.00    +0.020 A 
ATOM     14  C   LIG    1       -4.351  -3.980  -1.469  0.00  0.00    -0.000 A 
ATOM     15  C   LIG    1       -4.970  -3.277  -2.487  0.00  0.00    +0.040 A 
ATOM     16  C   LIG    1       -4.414  -2.100  -2.955  0.00  0.00    -0.000 A 
ATOM     17 CL   LIG    1       -5.194  -1.221  -4.234  0.00  0.00    -0.050 Cl
ATOM     18 CL   LIG    1       -5.052  -5.457  -0.883  0.00  0.00    -0.050 Cl
ATOM     19  C   LIG    1       -3.238  -1.623  -2.407  0.00  0.00    +0.050 A 
ENDBRANCH   9  12
ENDBRANCH   1   8
BRANCH   1  20
ATOM     20  O   LIG    1       -0.016   1.448   0.008  0.00  0.00    -0.310 OA
BRANCH  20  22
ATOM     21  O   LIG    1        2.204   1.431  -0.029  0.00  0.00    -0.470 OA
ATOM     22  C   LIG    1        1.175   2.077  -0.007  0.00  0.00    +0.520 C 
BRANCH  22  23
ATOM     23  C   LIG    1        1.231   3.552   0.003  0.00  0.00    -0.090 A 
ATOM     24  C   LIG    1        1.271   4.245   1.217  0.00  0.00    +0.010 A 
ATOM     25  C   LIG    1        1.328   5.624   1.218  0.00  0.00    +0.050 A 
ATOM     26  C   LIG    1        1.334   6.321   0.023  0.00  0.00    +0.080 A 
ATOM     27  C   LIG    1        1.289   5.643  -1.182  0.00  0.00    +0.050 A 
ATOM     28 CL   LIG    1        1.257   3.373   2.718  0.00  0.00    -0.030 Cl
ATOM     29  C   LIG    1        1.237   4.263  -1.200  0.00  0.00    +0.010 A 
ATOM     30 CL   LIG    1        1.180   3.414  -2.713  0.00  0.00    -0.030 Cl
ENDBRANCH  22  23
ENDBRANCH  20  22
ENDBRANCH   1  20
TORSDOF 6
