REMARK  Name = ZINCrD00000F5LGs.0
REMARK                            x       y       z     vdW  Elec       q    Type
REMARK                         _______ _______ _______ _____ _____    ______ ____
ROOT
ATOM      1  N   LIG    1        3.947   1.861   0.087  0.00  0.00    -0.680 N 
ATOM      2  H   LIG    1        3.458   1.786  -0.748  0.00  0.00    +0.410 HD
ATOM      3  C   LIG    1        5.147   2.473   0.111  0.00  0.00    +0.710 C 
ATOM      4  N   LIG    1        5.617   3.081  -0.996  0.00  0.00    -0.730 N 
ATOM      5  H   LIG    1        5.091   3.077  -1.811  0.00  0.00    +0.410 HD
ATOM      6  O   LIG    1        5.807   2.478   1.133  0.00  0.00    -0.570 OA
ENDROOT
BRANCH   1  12
ATOM      7  C   LIG    1        3.669   1.878   4.995  0.00  0.00    +0.100 C 
ATOM      8  C   LIG    1        3.254   1.323   3.658  0.00  0.00    -0.070 A 
ATOM      9  C   LIG    1        2.338   0.289   3.593  0.00  0.00    -0.020 A 
ATOM     10  C   LIG    1        1.950  -0.220   2.367  0.00  0.00    +0.030 A 
ATOM     11  C   LIG    1        2.486   0.295   1.204  0.00  0.00    -0.090 A 
ATOM     12  C   LIG    1        3.406   1.333   1.264  0.00  0.00    +0.180 A 
ATOM     13  C   LIG    1        3.789   1.846   2.497  0.00  0.00    +0.020 A 
BRANCH  11  14
ATOM     14  C   LIG    1        2.068  -0.265  -0.132  0.00  0.00    -0.010 C 
ATOM     15  C   LIG    1        0.584  -0.187  -0.497  0.00  0.00    +0.030 C 
ATOM     16  C   LIG    1        1.212  -1.533  -0.129  0.00  0.00    +0.030 C 
ENDBRANCH  11  14
ENDBRANCH   1  12
BRANCH   4  17
ATOM     17  C   LIG    1        6.922   3.746  -0.969  0.00  0.00    +0.360 C 
ATOM     18  C   LIG    1        8.024   2.720  -1.242  0.00  0.00    +0.060 C 
BRANCH  17  19
ATOM     19  C   LIG    1        6.961   4.819  -2.027  0.00  0.00    +0.180 A 
ATOM     20  N   LIG    1        6.552   4.706  -3.267  0.00  0.00    -0.280 NA
ATOM     21  N   LIG    1        6.732   5.822  -3.890  0.00  0.00    -0.270 NA
ATOM     22  C   LIG    1        7.266   6.684  -3.087  0.00  0.00    +0.140 A 
ATOM     23  C   LIG    1        7.675   8.115  -3.324  0.00  0.00    +0.380 C 
ATOM     24  O   LIG    1        7.825   8.772  -2.061  0.00  0.00    -0.360 OA
ATOM     25  C   LIG    1        8.667   8.095  -1.120  0.00  0.00    +0.310 C 
ATOM     26  C   LIG    1        8.007   6.763  -0.737  0.00  0.00    +0.030 C 
ATOM     27  C   LIG    1        8.637   5.943   0.383  0.00  0.00    +0.060 C 
ATOM     28  C   LIG    1        7.309   6.669   0.615  0.00  0.00    +0.070 C 
ATOM     29  N   LIG    1        7.425   6.065  -1.881  0.00  0.00    -0.430 N 
ENDBRANCH  17  19
ENDBRANCH   4  17
TORSDOF 4
