REMARK  Name = ZINCvU00000009ko.0
REMARK                            x       y       z     vdW  Elec       q    Type
REMARK                         _______ _______ _______ _____ _____    ______ ____
ROOT
ATOM      1  N   LIG    1        1.100   1.148   2.808  0.00  0.00    -0.360 N 
ATOM      2  C   LIG    1        1.525  -0.145   2.927  0.00  0.00    +0.170 A 
ATOM      3  N   LIG    1        2.798  -0.108   3.253  0.00  0.00    -0.290 NA
ATOM      4  N   LIG    1        3.193   1.111   3.353  0.00  0.00    -0.240 NA
ATOM      5  C   LIG    1        2.198   1.928   3.092  0.00  0.00    +0.220 A 
ENDROOT
BRANCH   1   8
ATOM      6  C   LIG    1        0.143   1.689  -0.052  0.00  0.00    +0.190 C 
ATOM      7  C   LIG    1       -0.649   1.839   1.222  0.00  0.00    +0.240 A 
ATOM      8  C   LIG    1       -0.194   1.591   2.470  0.00  0.00    -0.140 A 
ATOM      9  C   LIG    1       -1.250   1.856   3.381  0.00  0.00    +0.550 A 
ATOM     10  N   LIG    1       -2.318   2.258   2.663  0.00  0.00    -0.360 N 
ATOM     11  O   LIG    1       -1.200   1.740   4.592  0.00  0.00    -0.510 OA
ATOM     12  N   LIG    1       -1.950   2.257   1.311  0.00  0.00    -0.370 N 
ATOM     13  C   LIG    1       -2.811   2.633   0.187  0.00  0.00    +0.370 C 
BRANCH  10  14
ATOM     14  C   LIG    1       -3.568   2.618   3.177  0.00  0.00    +0.140 A 
ATOM     15  C   LIG    1       -3.652   3.491   4.254  0.00  0.00    +0.030 A 
ATOM     16  C   LIG    1       -4.888   3.848   4.756  0.00  0.00    +0.040 A 
ATOM     17  C   LIG    1       -6.040   3.331   4.194  0.00  0.00    +0.020 A 
ATOM     18  C   LIG    1       -5.960   2.457   3.125  0.00  0.00    +0.030 A 
ATOM     19  C   LIG    1       -4.727   2.099   2.615  0.00  0.00    +0.010 A 
ENDBRANCH  10  14
ENDBRANCH   1   8
BRANCH   5  20
ATOM     20  C   LIG    1        2.248   3.405   3.103  0.00  0.00    -0.000 A 
ATOM     21  C   LIG    1        1.106   4.147   2.798  0.00  0.00    +0.030 A 
ATOM     22  C   LIG    1        1.158   5.526   2.815  0.00  0.00    +0.010 A 
ATOM     23  C   LIG    1        2.341   6.173   3.122  0.00  0.00    +0.050 A 
ATOM     24  C   LIG    1        3.479   5.444   3.420  0.00  0.00    +0.030 A 
ATOM     25  C   LIG    1        3.440   4.064   3.412  0.00  0.00    -0.000 A 
ATOM     26 CL   LIG    1        4.868   3.151   3.787  0.00  0.00    -0.030 Cl
ENDBRANCH   5  20
BRANCH   2  27
ATOM     27  S   LIG    1        0.550  -1.592   2.684  0.00  0.00    +0.010 S 
BRANCH  27  28
ATOM     28  C   LIG    1        1.792  -2.867   3.015  0.00  0.00    +0.100 C 
BRANCH  28  29
ATOM     29  C   LIG    1        1.157  -4.250   2.860  0.00  0.00    +0.000 C 
ATOM     30  C   LIG    1        2.170  -5.324   3.259  0.00  0.00    +0.040 C 
ATOM     31  C   LIG    1        0.739  -4.460   1.403  0.00  0.00    +0.030 C 
ENDBRANCH  28  29
ENDBRANCH  27  28
ENDBRANCH   2  27
TORSDOF 6
