REMARK  Name = ZINCpk00000y1sMu.0
REMARK                            x       y       z     vdW  Elec       q    Type
REMARK                         _______ _______ _______ _____ _____    ______ ____
ROOT
ATOM      1  N   LIG    1        3.941   1.854   0.955  0.00  0.00    -0.520 NA
ATOM      2  C   LIG    1        5.092   2.581   0.389  0.00  0.00    +0.200 C 
ATOM      3  C   LIG    1        5.350   2.004  -1.019  0.00  0.00    +0.030 C 
ATOM      4  C   LIG    1        3.982   1.377  -1.396  0.00  0.00    +0.060 C 
ATOM      5  C   LIG    1        3.495   0.842  -0.026  0.00  0.00    +0.270 C 
ENDROOT
BRANCH   5   6
ATOM      6  C   LIG    1        1.993   0.725  -0.013  0.00  0.00    +0.210 A 
ATOM      7  N   LIG    1        1.299  -0.386  -0.012  0.00  0.00    -0.440 NA
ATOM      8  C   LIG    1        0.002  -0.004   0.002  0.00  0.00    +0.130 A 
ATOM      9  N   LIG    1       -0.016   1.302   0.009  0.00  0.00    -0.350 NA
ATOM     10  O   LIG    1        1.117   1.735   0.001  0.00  0.00    +0.120 OA
BRANCH   8  11
ATOM     11  C   LIG    1       -1.181  -0.901   0.009  0.00  0.00    +0.620 C 
ATOM     12  N   LIG    1       -2.423  -0.379   0.024  0.00  0.00    -0.680 N 
ATOM     13  H   LIG    1       -2.544   0.584   0.029  0.00  0.00    +0.410 HD
ATOM     14  O   LIG    1       -1.029  -2.107   0.001  0.00  0.00    -0.490 OA
BRANCH  12  15
ATOM     15  C   LIG    1       -3.590  -1.264   0.030  0.00  0.00    +0.210 C 
ATOM     16  C   LIG    1       -4.754  -0.905  -0.895  0.00  0.00    +0.020 C 
ATOM     17  C   LIG    1       -4.891  -0.713   0.617  0.00  0.00    +0.030 C 
ENDBRANCH  12  15
ENDBRANCH   8  11
ENDBRANCH   5   6
BRANCH   1  18
ATOM     18  C   LIG    1        4.293   1.226   2.235  0.00  0.00    +0.280 C 
BRANCH  18  22
ATOM     19  C   LIG    1        5.233   3.912   4.699  0.00  0.00    -0.160 A 
ATOM     20  C   LIG    1        6.539   3.740   4.358  0.00  0.00    -0.040 A 
ATOM     21  S   LIG    1        6.700   2.529   3.170  0.00  0.00    +0.200 S 
ATOM     22  C   LIG    1        4.970   2.239   3.122  0.00  0.00    -0.210 A 
ATOM     23  C   LIG    1        4.339   3.041   3.972  0.00  0.00    +0.100 A 
BRANCH  19  27
ATOM     24  N   LIG    1        5.674   5.671   6.335  0.00  0.00    -0.850 N 
ATOM     25  H   LIG    1        5.373   6.315   6.996  0.00  0.00    +0.410 HD
ATOM     26  H   LIG    1        6.618   5.591   6.131  0.00  0.00    +0.400 HD
ATOM     27  C   LIG    1        4.778   4.889   5.701  0.00  0.00    +0.580 C 
ATOM     28  O   LIG    1        3.593   4.990   5.958  0.00  0.00    -0.530 OA
ENDBRANCH  19  27
ENDBRANCH  18  22
ENDBRANCH   1  18
TORSDOF 6
