REMARK  Name = ZINCpk000005PDZE.0
REMARK                            x       y       z     vdW  Elec       q    Type
REMARK                         _______ _______ _______ _____ _____    ______ ____
ROOT
ATOM      1  C   LIG    1       -0.720   1.582   1.273  0.00  0.00    +0.220 C 
ATOM      2  C   LIG    1       -0.666   3.111   1.312  0.00  0.00    +0.200 C 
ATOM      3  O   LIG    1        0.696   3.540   1.268  0.00  0.00    -0.370 OA
ATOM      4  C   LIG    1        1.394   3.146   0.085  0.00  0.00    +0.210 C 
ATOM      5  C   LIG    1        1.424   1.618  -0.003  0.00  0.00    +0.020 C 
ATOM      6  C   LIG    1       -0.013   1.086   0.008  0.00  0.00    +0.240 C 
ENDROOT
BRANCH   6   7
ATOM      7  N   LIG    1       -0.725   1.573  -1.176  0.00  0.00    -0.730 N 
ATOM      8  H   LIG    1       -1.266   2.376  -1.121  0.00  0.00    +0.400 HD
ATOM      9  C   LIG    1       -0.628   0.905  -2.343  0.00  0.00    +0.520 C 
ATOM     10  O   LIG    1        0.049  -0.099  -2.412  0.00  0.00    -0.520 OA
BRANCH   9  11
ATOM     11  C   LIG    1       -1.360   1.406  -3.561  0.00  0.00    +0.120 C 
BRANCH  11  12
ATOM     12  C   LIG    1       -1.088   0.487  -4.724  0.00  0.00    -0.120 A 
ATOM     13  C   LIG    1       -0.075   0.776  -5.625  0.00  0.00    +0.070 A 
ATOM     14  C   LIG    1        0.140  -0.098  -6.680  0.00  0.00    -0.040 A 
ATOM     15  C   LIG    1       -0.657  -1.220  -6.797  0.00  0.00    +0.270 A 
ATOM     16  N   LIG    1       -1.612  -1.464  -5.920  0.00  0.00    -0.480 NA
ATOM     17  C   LIG    1       -1.841  -0.658  -4.903  0.00  0.00    +0.150 A 
ATOM     18  C   LIG    1       -2.941  -0.986  -3.926  0.00  0.00    +0.120 C 
ENDBRANCH  11  12
ENDBRANCH   9  11
ENDBRANCH   6   7
BRANCH   1  19
ATOM     19  N   LIG    1       -2.117   1.141   1.258  0.00  0.00    -0.710 N 
ATOM     20  H   LIG    1       -2.556   0.951   0.415  0.00  0.00    +0.410 HD
BRANCH  19  26
ATOM     21  C   LIG    1       -6.177   0.002   3.534  0.00  0.00    +0.170 C 
ATOM     22  C   LIG    1       -4.740   0.457   3.578  0.00  0.00    +0.360 A 
ATOM     23  N   LIG    1       -4.182   0.704   4.746  0.00  0.00    -0.560 NA
ATOM     24  C   LIG    1       -2.921   1.106   4.828  0.00  0.00    +0.350 A 
ATOM     25  C   LIG    1       -2.186   1.261   3.670  0.00  0.00    -0.160 A 
ATOM     26  C   LIG    1       -2.810   0.996   2.449  0.00  0.00    +0.440 A 
ATOM     27  N   LIG    1       -4.078   0.596   2.447  0.00  0.00    -0.580 NA
ENDBRANCH  19  26
ENDBRANCH   1  19
TORSDOF 5
