REMARK  Name = ZINCrH000004mUF4.0
REMARK                            x       y       z     vdW  Elec       q    Type
REMARK                         _______ _______ _______ _____ _____    ______ ____
ROOT
ATOM      1  C   LIG    1       -0.263  -0.074  -0.128  0.00  0.00    +0.430 C 
ATOM      2  O   LIG    1       -0.719  -0.708   0.800  0.00  0.00    -0.420 OA
ENDROOT
BRANCH   1   3
ATOM      3  C   LIG    1        0.521  -0.752  -1.163  0.00  0.00    -0.240 A 
ATOM      4  C   LIG    1        0.832  -2.098  -1.223  0.00  0.00    +0.120 A 
ATOM      5  N   LIG    1        1.565  -2.309  -2.335  0.00  0.00    -0.360 N 
ATOM      6  C   LIG    1        1.756  -1.135  -3.009  0.00  0.00    +0.040 A 
ATOM      7  C   LIG    1        2.530  -0.980  -4.293  0.00  0.00    +0.140 C 
ATOM      8  C   LIG    1        0.422  -3.146  -0.221  0.00  0.00    +0.160 C 
ATOM      9  C   LIG    1        1.142  -0.141  -2.346  0.00  0.00    +0.010 A 
BRANCH   5  10
ATOM     10  C   LIG    1        2.062  -3.548  -2.736  0.00  0.00    +0.220 A 
ATOM     11  N   LIG    1        3.280  -3.769  -3.118  0.00  0.00    -0.460 NA
ATOM     12  C   LIG    1        3.584  -5.006  -3.461  0.00  0.00    +0.240 A 
ATOM     13  C   LIG    1        2.570  -5.871  -3.374  0.00  0.00    -0.060 A 
ATOM     14  S   LIG    1        1.153  -4.994  -2.803  0.00  0.00    +0.190 S 
ENDBRANCH   5  10
ENDBRANCH   1   3
BRANCH   1  15
ATOM     15  C   LIG    1       -0.502   1.411  -0.217  0.00  0.00    +0.210 C 
BRANCH  15  16
ATOM     16  O   LIG    1       -1.286   1.835   0.900  0.00  0.00    -0.260 OA
BRANCH  16  20
ATOM     17  C   LIG    1       -2.221   5.849   1.119  0.00  0.00    +0.100 A 
ATOM     18  C   LIG    1       -1.463   5.371   0.061  0.00  0.00    +0.040 A 
ATOM     19  C   LIG    1       -1.149   4.027  -0.012  0.00  0.00    -0.010 A 
ATOM     20  C   LIG    1       -1.594   3.157   0.972  0.00  0.00    +0.160 A 
ATOM     21  C   LIG    1       -2.358   3.635   2.027  0.00  0.00    -0.040 A 
ATOM     22  C   LIG    1       -2.666   4.979   2.103  0.00  0.00    +0.110 A 
BRANCH  21  23
ATOM     23  N   LIG    1       -2.837   2.705   3.074  0.00  0.00    +0.030 N 
ATOM     24  O   LIG    1       -2.562   1.521   3.009  0.00  0.00    -0.120 OA
ATOM     25  O   LIG    1       -3.508   3.125   4.000  0.00  0.00    -0.180 OA
ENDBRANCH  21  23
BRANCH  17  27
ATOM     26  C   LIG    1       -2.039   8.010   0.142  0.00  0.00    +0.250 C 
ATOM     27  O   LIG    1       -2.530   7.172   1.190  0.00  0.00    -0.310 OA
ENDBRANCH  17  27
ENDBRANCH  16  20
ENDBRANCH  15  16
ENDBRANCH   1  15
TORSDOF 7
