REMARK  Name = ZINCpe00000MxnPe.0
REMARK                            x       y       z     vdW  Elec       q    Type
REMARK                         _______ _______ _______ _____ _____    ______ ____
ROOT
ATOM      1  N   LIG    1       -1.540  -1.285  -1.366  0.00  0.00    -0.460 N 
ATOM      2  N   LIG    1       -2.401  -0.598  -2.230  0.00  0.00    +0.040 NA
ATOM      3  N   LIG    1       -2.455  -1.193  -3.312  0.00  0.00    +0.030 NA
ATOM      4  N   LIG    1       -1.635  -2.327  -3.259  0.00  0.00    -0.420 N 
ATOM      5  C   LIG    1       -1.069  -2.360  -2.033  0.00  0.00    +0.650 A 
ATOM      6  O   LIG    1       -0.289  -3.196  -1.612  0.00  0.00    -0.500 OA
ENDROOT
BRANCH   4   7
ATOM      7  C   LIG    1       -1.435  -3.254  -4.290  0.00  0.00    +0.160 A 
ATOM      8  C   LIG    1       -0.588  -4.338  -4.095  0.00  0.00    +0.060 A 
ATOM      9  C   LIG    1       -0.386  -5.256  -5.109  0.00  0.00    +0.050 A 
ATOM     10  C   LIG    1       -1.026  -5.103  -6.322  0.00  0.00    +0.080 A 
ATOM     11  C   LIG    1       -1.880  -4.017  -6.528  0.00  0.00    -0.100 A 
ATOM     12  C   LIG    1       -2.086  -3.093  -5.503  0.00  0.00    +0.090 A 
BRANCH  11  13
ATOM     13  C   LIG    1       -2.567  -3.850  -7.826  0.00  0.00    +0.510 C 
ATOM     14  O   LIG    1       -3.309  -2.904  -8.003  0.00  0.00    -0.500 OA
BRANCH  13  15
ATOM     15  O   LIG    1       -2.369  -4.745  -8.812  0.00  0.00    -0.350 OA
ATOM     16  C   LIG    1       -3.077  -4.518 -10.060  0.00  0.00    +0.290 C 
ENDBRANCH  13  15
ENDBRANCH  11  13
ENDBRANCH   4   7
BRANCH   1  17
ATOM     17  C   LIG    1       -1.206  -0.904   0.009  0.00  0.00    +0.490 C 
BRANCH  17  21
ATOM     18  N   LIG    1        2.066   0.743  -0.014  0.00  0.00    -0.360 N 
ATOM     19  C   LIG    1        1.265   1.828  -0.000  0.00  0.00    +0.230 A 
ATOM     20  C   LIG    1       -0.017   1.395   0.010  0.00  0.00    -0.100 A 
ATOM     21  C   LIG    1        0.002  -0.004   0.002  0.00  0.00    +0.030 A 
ATOM     22  N   LIG    1        1.250  -0.396  -0.012  0.00  0.00    -0.260 NA
BRANCH  18  23
ATOM     23  C   LIG    1        3.531   0.753  -0.027  0.00  0.00    +0.320 C 
BRANCH  23  25
ATOM     24  C   LIG    1        5.588  -0.065   1.132  0.00  0.00    +0.030 C 
ATOM     25  C   LIG    1        4.058  -0.076   1.146  0.00  0.00    +0.010 C 
ENDBRANCH  23  25
ENDBRANCH  18  23
ENDBRANCH  17  21
ENDBRANCH   1  17
TORSDOF 7
