REMARK  Name = ZINCrH000004v9WI.0
REMARK                            x       y       z     vdW  Elec       q    Type
REMARK                         _______ _______ _______ _____ _____    ______ ____
ROOT
ATOM      1  O   LIG    1       -2.225   1.204   0.119  0.00  0.00    -0.480 OA
ATOM      2  C   LIG    1       -1.255   1.925   0.018  0.00  0.00    +0.510 C 
ATOM      3  N   LIG    1       -0.017   1.392   0.010  0.00  0.00    -0.670 N 
ATOM      4  H   LIG    1        0.761   1.971  -0.010  0.00  0.00    +0.410 HD
ENDROOT
BRANCH   3   5
ATOM      5  C   LIG    1        0.146   0.005   0.023  0.00  0.00    +0.150 A 
ATOM      6  C   LIG    1       -0.735  -0.802   0.718  0.00  0.00    +0.030 A 
ATOM      7  C   LIG    1       -0.601  -2.190   0.746  0.00  0.00    +0.040 A 
ATOM      8  C   LIG    1        0.424  -2.800   0.088  0.00  0.00    -0.090 A 
ATOM      9  C   LIG    1        0.863  -4.234  -0.085  0.00  0.00    +0.100 C 
ATOM     10  C   LIG    1        2.125  -4.169  -0.972  0.00  0.00    +0.100 C 
ATOM     11  C   LIG    1        2.338  -2.702  -1.255  0.00  0.00    -0.070 A 
ATOM     12  C   LIG    1        3.259  -1.989  -1.962  0.00  0.00    +0.010 A 
ATOM     13  C   LIG    1        3.172  -0.597  -2.029  0.00  0.00    +0.010 A 
ATOM     14  C   LIG    1        2.181   0.103  -1.403  0.00  0.00    +0.010 A 
ATOM     15  C   LIG    1        1.323  -2.002  -0.613  0.00  0.00    -0.070 A 
ATOM     16  C   LIG    1        1.216  -0.601  -0.667  0.00  0.00    -0.050 A 
ENDBRANCH   3   5
BRANCH   2  17
ATOM     17  C   LIG    1       -1.433   3.417  -0.098  0.00  0.00    +0.220 C 
ATOM     18  C   LIG    1       -1.224   4.094   1.280  0.00  0.00    +0.070 C 
ATOM     19  C   LIG    1       -2.033   5.406   1.108  0.00  0.00    +0.040 C 
ATOM     20  C   LIG    1       -3.227   4.965   0.235  0.00  0.00    +0.260 C 
ATOM     21  N   LIG    1       -2.822   3.740  -0.473  0.00  0.00    -0.600 N 
ATOM     22  C   LIG    1       -3.591   3.030  -1.322  0.00  0.00    +0.620 C 
ATOM     23  O   LIG    1       -3.149   2.028  -1.851  0.00  0.00    -0.490 OA
BRANCH  22  24
ATOM     24  C   LIG    1       -4.962   3.466  -1.608  0.00  0.00    -0.070 A 
ATOM     25  C   LIG    1       -5.844   2.844  -2.443  0.00  0.00    +0.040 A 
ATOM     26  C   LIG    1       -7.027   3.599  -2.416  0.00  0.00    -0.060 A 
ATOM     27  C   LIG    1       -6.818   4.636  -1.576  0.00  0.00    +0.200 A 
ATOM     28  O   LIG    1       -5.574   4.550  -1.086  0.00  0.00    -0.160 OA
ENDBRANCH  22  24
ENDBRANCH   2  17
TORSDOF 3
