REMARK  Name = ZINCpe00000MJJfZ.0
REMARK                            x       y       z     vdW  Elec       q    Type
REMARK                         _______ _______ _______ _____ _____    ______ ____
ROOT
ATOM      1  C   LIG    1       -4.326   2.330   2.169  0.00  0.00    +0.350 C 
ATOM      2  C   LIG    1       -5.618   2.072   1.397  0.00  0.00    -0.330 C 
ATOM      3  S   LIG    1       -6.100   3.591   0.525  0.00  0.00    +2.420 S 
ATOM      4  C   LIG    1       -4.602   3.940  -0.442  0.00  0.00    -0.340 C 
ATOM      5  C   LIG    1       -3.404   4.023   0.510  0.00  0.00    +0.320 C 
ATOM      6  O   LIG    1       -7.159   3.285  -0.372  0.00  0.00    -0.930 OA
ATOM      7  O   LIG    1       -6.276   4.627   1.481  0.00  0.00    -0.930 OA
ATOM      8  N   LIG    1       -3.276   2.764   1.246  0.00  0.00    -0.630 N 
ATOM      9  C   LIG    1       -2.184   1.994   1.067  0.00  0.00    +0.530 C 
ATOM     10  O   LIG    1       -2.031   0.995   1.737  0.00  0.00    -0.470 OA
ENDROOT
BRANCH   9  11
ATOM     11  C   LIG    1       -1.154   2.376   0.036  0.00  0.00    +0.010 C 
ATOM     12  C   LIG    1       -0.422   3.677   0.441  0.00  0.00    +0.260 C 
ATOM     13  O   LIG    1        0.924   3.437  -0.005  0.00  0.00    -0.300 OA
ATOM     14  C   LIG    1        1.167   2.098   0.004  0.00  0.00    +0.110 A 
ATOM     15  C   LIG    1        2.378   1.410   0.001  0.00  0.00    -0.010 A 
ATOM     16  C   LIG    1        2.393   0.030  -0.007  0.00  0.00    +0.050 A 
ATOM     17  C   LIG    1        1.207  -0.681  -0.011  0.00  0.00    -0.020 A 
ATOM     18  C   LIG    1       -0.000  -0.005  -0.003  0.00  0.00    +0.090 A 
ATOM     19  C   LIG    1       -0.017   1.372   0.008  0.00  0.00    -0.160 A 
ENDBRANCH   9  11
BRANCH   1  23
ATOM     20  C   LIG    1       -2.440  -0.870   5.535  0.00  0.00    +0.340 C 
ATOM     21  N   LIG    1       -3.072  -0.326   4.330  0.00  0.00    -0.370 N 
ATOM     22  C   LIG    1       -3.294   0.979   4.069  0.00  0.00    +0.240 A 
ATOM     23  C   LIG    1       -3.895   1.062   2.860  0.00  0.00    -0.200 A 
ATOM     24  C   LIG    1       -4.051  -0.237   2.367  0.00  0.00    +0.250 A 
ATOM     25  N   LIG    1       -3.553  -1.070   3.244  0.00  0.00    -0.290 NA
ENDBRANCH   1  23
TORSDOF 2
