REMARK  Name = ZINCvU0000000Arc.0
REMARK                            x       y       z     vdW  Elec       q    Type
REMARK                         _______ _______ _______ _____ _____    ______ ____
ROOT
ATOM      1  C   LIG    1        3.245   2.491  -0.015  0.00  0.00    +0.270 A 
ATOM      2  N   LIG    1        2.495   1.428  -0.013  0.00  0.00    -0.480 NA
ATOM      3  C   LIG    1        1.187   1.792   0.000  0.00  0.00    +0.050 A 
ATOM      4  C   LIG    1       -0.013   1.076   0.008  0.00  0.00    +0.070 A 
ATOM      5  C   LIG    1       -1.204   1.744   0.017  0.00  0.00    +0.000 A 
ATOM      6  C   LIG    1       -1.238   3.131   0.030  0.00  0.00    +0.030 A 
ATOM      7  C   LIG    1       -0.067   3.858   0.022  0.00  0.00    +0.010 A 
ATOM      8  C   LIG    1        1.153   3.197   0.008  0.00  0.00    +0.060 A 
ATOM      9  N   LIG    1        2.471   3.609  -0.002  0.00  0.00    -0.480 N 
ENDROOT
BRANCH   1  10
ATOM     10  C   LIG    1        4.752   2.484  -0.028  0.00  0.00    +0.340 C 
BRANCH  10  11
ATOM     11  N   LIG    1        5.244   1.500   0.939  0.00  0.00    -0.710 N 
ATOM     12  H   LIG    1        4.687   0.747   1.192  0.00  0.00    +0.410 HD
ATOM     13  C   LIG    1        6.472   1.641   1.478  0.00  0.00    +0.570 C 
ATOM     14  O   LIG    1        7.170   2.584   1.162  0.00  0.00    -0.530 OA
BRANCH  13  15
ATOM     15  C   LIG    1        6.969   0.647   2.454  0.00  0.00    -0.140 A 
ATOM     16  C   LIG    1        6.167  -0.433   2.825  0.00  0.00    +0.050 A 
ATOM     17  C   LIG    1        6.638  -1.359   3.733  0.00  0.00    +0.000 A 
ATOM     18  C   LIG    1        7.899  -1.212   4.284  0.00  0.00    +0.040 A 
ATOM     19  C   LIG    1        8.697  -0.140   3.925  0.00  0.00    +0.000 A 
ATOM     20  C   LIG    1        8.239   0.790   3.014  0.00  0.00    +0.080 A 
ENDBRANCH  13  15
ENDBRANCH  10  11
BRANCH  10  21
ATOM     21  C   LIG    1        5.248   2.116  -1.427  0.00  0.00    +0.020 C 
BRANCH  21  23
ATOM     22  C   LIG    1        7.269   1.862  -2.874  0.00  0.00    +0.010 C 
ATOM     23  C   LIG    1        6.773   2.230  -1.474  0.00  0.00    +0.020 C 
ENDBRANCH  21  23
ENDBRANCH  10  21
ENDBRANCH   1  10
BRANCH   9  24
ATOM     24  C   LIG    1        2.947   4.995   0.001  0.00  0.00    +0.360 C 
BRANCH  24  25
ATOM     25  C   LIG    1        3.123   5.462   1.423  0.00  0.00    -0.090 A 
ATOM     26  C   LIG    1        2.070   6.071   2.083  0.00  0.00    +0.030 A 
ATOM     27  C   LIG    1        2.222   6.497   3.386  0.00  0.00    +0.070 A 
ATOM     28  C   LIG    1        3.446   6.323   4.035  0.00  0.00    -0.010 A 
ATOM     29  C   LIG    1        4.506   5.713   3.362  0.00  0.00    +0.070 A 
ATOM     30  C   LIG    1        4.338   5.286   2.061  0.00  0.00    +0.040 A 
BRANCH  28  31
ATOM     31  C   LIG    1        3.613   6.769   5.386  0.00  0.00    +0.250 C 
ATOM     32  N   LIG    1        3.746   7.122   6.457  0.00  0.00    -0.400 NA
ENDBRANCH  28  31
ENDBRANCH  24  25
ENDBRANCH   9  24
TORSDOF 8
