REMARK  Name = ZINCpk00000kUyTH.0
REMARK                            x       y       z     vdW  Elec       q    Type
REMARK                         _______ _______ _______ _____ _____    ______ ____
ROOT
ATOM      1  C   LIG    1       -1.347  -0.397   1.579  0.00  0.00    +0.520 C 
ATOM      2  N   LIG    1       -2.318   0.508   1.346  0.00  0.00    -0.730 N 
ATOM      3  H   LIG    1       -2.931   0.756   2.056  0.00  0.00    +0.400 HD
ATOM      4  O   LIG    1       -0.581  -0.707   0.691  0.00  0.00    -0.530 OA
ENDROOT
BRANCH   1   5
ATOM      5  C   LIG    1       -1.208  -1.018   2.945  0.00  0.00    +0.040 C 
BRANCH   5   6
ATOM      6  C   LIG    1       -0.033  -1.998   2.942  0.00  0.00    +0.390 C 
BRANCH   6  11
ATOM      7  C   LIG    1       -0.518  -5.055   6.827  0.00  0.00    +0.350 C 
ATOM      8  N   LIG    1       -0.108  -3.938   5.973  0.00  0.00    -0.560 N 
ATOM      9  C   LIG    1        0.737  -2.917   6.335  0.00  0.00    +0.490 A 
ATOM     10  N   LIG    1        0.873  -2.111   5.332  0.00  0.00    -0.280 NA
ATOM     11  N   LIG    1        0.101  -2.602   4.270  0.00  0.00    -0.450 N 
ATOM     12  C   LIG    1       -0.499  -3.732   4.699  0.00  0.00    +0.640 A 
ATOM     13  O   LIG    1       -1.254  -4.438   4.054  0.00  0.00    -0.550 OA
ENDBRANCH   6  11
ENDBRANCH   5   6
ENDBRANCH   1   5
BRANCH   2  14
ATOM     14  C   LIG    1       -2.449   1.117   0.020  0.00  0.00    +0.280 C 
BRANCH  14  15
ATOM     15  C   LIG    1       -3.697   2.002  -0.014  0.00  0.00    +0.040 C 
ATOM     16  C   LIG    1       -4.942   1.134   0.183  0.00  0.00    +0.020 C 
ATOM     17  C   LIG    1       -6.177   1.982  -0.147  0.00  0.00    +0.110 C 
ATOM     18  O   LIG    1       -6.133   2.322  -1.533  0.00  0.00    -0.310 OA
ATOM     19  C   LIG    1       -4.974   2.833  -2.025  0.00  0.00    +0.140 A 
ATOM     20  C   LIG    1       -5.006   3.495  -3.248  0.00  0.00    -0.020 A 
ATOM     21  C   LIG    1       -3.849   4.024  -3.782  0.00  0.00    +0.050 A 
ATOM     22  C   LIG    1       -2.652   3.896  -3.101  0.00  0.00    -0.020 A 
ATOM     23  C   LIG    1       -2.617   3.239  -1.886  0.00  0.00    +0.050 A 
ATOM     24  C   LIG    1       -6.167   3.258   0.698  0.00  0.00    +0.030 C 
ATOM     25  C   LIG    1       -7.447   1.180   0.146  0.00  0.00    +0.080 C 
ATOM     26  C   LIG    1       -3.775   2.708  -1.344  0.00  0.00    -0.160 A 
ENDBRANCH  14  15
ENDBRANCH   2  14
TORSDOF 5
