REMARK  Name = ZINCqH0000007ZO7.0
REMARK                            x       y       z     vdW  Elec       q    Type
REMARK                         _______ _______ _______ _____ _____    ______ ____
ROOT
ATOM      1  C   LIG    1       -0.013   1.086   0.008  0.00  0.00    +0.340 C 
ATOM      2  C   LIG    1        1.424   1.622  -0.003  0.00  0.00    +0.020 C 
ATOM      3  C   LIG    1        2.091   1.326   1.343  0.00  0.00    +0.040 C 
ATOM      4  C   LIG    1        1.462   2.206   2.431  0.00  0.00    +0.100 C 
ATOM      5  C   LIG    1       -0.038   2.078   2.338  0.00  0.00    +0.090 A 
ATOM      6  N   LIG    1       -0.956   2.417   3.258  0.00  0.00    -0.360 N 
ATOM      7  N   LIG    1       -2.222   2.115   2.734  0.00  0.00    -0.300 NA
ATOM      8  C   LIG    1       -2.060   1.612   1.534  0.00  0.00    +0.260 A 
ATOM      9  C   LIG    1       -0.695   1.578   1.260  0.00  0.00    -0.250 A 
ENDROOT
BRANCH   1  13
ATOM     10  N   LIG    1       -2.450   1.342  -2.733  0.00  0.00    -0.740 N 
ATOM     11  H   LIG    1       -2.164   2.159  -3.170  0.00  0.00    +0.400 HD
ATOM     12  C   LIG    1       -1.789   0.891  -1.649  0.00  0.00    +0.710 C 
ATOM     13  N   LIG    1       -0.731   1.576  -1.171  0.00  0.00    -0.740 N 
ATOM     14  H   LIG    1       -0.446   2.394  -1.608  0.00  0.00    +0.390 HD
ATOM     15  O   LIG    1       -2.147  -0.134  -1.101  0.00  0.00    -0.590 OA
BRANCH  10  16
ATOM     16  C   LIG    1       -3.600   0.597  -3.252  0.00  0.00    +0.330 C 
BRANCH  16  17
ATOM     17  C   LIG    1       -4.163   1.318  -4.478  0.00  0.00    -0.050 C 
ATOM     18  C   LIG    1       -4.606   2.728  -4.082  0.00  0.00    +0.050 C 
ATOM     19  C   LIG    1       -5.364   0.541  -5.020  0.00  0.00    +0.060 C 
BRANCH  17  21
ATOM     20  C   LIG    1       -3.727   2.296  -7.108  0.00  0.00    +0.130 C 
ATOM     21  S   LIG    1       -2.883   1.424  -5.759  0.00  0.00    -0.240 S 
ENDBRANCH  17  21
ENDBRANCH  16  17
ENDBRANCH  10  16
ENDBRANCH   1  13
BRANCH   6  22
ATOM     22  C   LIG    1       -0.684   2.998   4.575  0.00  0.00    +0.370 C 
BRANCH  22  23
ATOM     23  C   LIG    1       -0.670   4.502   4.467  0.00  0.00    -0.120 A 
ATOM     24  C   LIG    1        0.512   5.164   4.193  0.00  0.00    +0.020 A 
ATOM     25  C   LIG    1        0.524   6.542   4.089  0.00  0.00    +0.000 A 
ATOM     26  C   LIG    1       -0.644   7.259   4.270  0.00  0.00    +0.010 A 
ATOM     27  C   LIG    1       -1.825   6.597   4.550  0.00  0.00    +0.000 A 
ATOM     28  C   LIG    1       -1.838   5.218   4.648  0.00  0.00    +0.030 A 
ENDBRANCH  22  23
ENDBRANCH   6  22
TORSDOF 6
