REMARK  Name = ZINCqH0000035RPu.1
REMARK                            x       y       z     vdW  Elec       q    Type
REMARK                         _______ _______ _______ _____ _____    ______ ____
ROOT
ATOM      1  N   LIG    1        3.126   0.161  -1.522  0.00  0.00    -1.050 N 
ATOM      2  H   LIG    1        3.102  -0.752  -1.849  0.00  0.00    +0.430 HD
ENDROOT
BRANCH   1   8
ATOM      3  C   LIG    1        2.579   1.157  -3.658  0.00  0.00    +0.110 A 
ATOM      4  C   LIG    1        2.679   2.214  -4.547  0.00  0.00    -0.050 A 
ATOM      5  C   LIG    1        3.417   3.334  -4.211  0.00  0.00    +0.040 A 
ATOM      6  C   LIG    1        4.057   3.403  -2.988  0.00  0.00    -0.080 A 
ATOM      7  C   LIG    1        3.958   2.354  -2.092  0.00  0.00    +0.030 A 
ATOM      8  C   LIG    1        3.224   1.226  -2.424  0.00  0.00    +0.130 A 
BRANCH   6   9
ATOM      9  C   LIG    1        4.861   4.626  -2.627  0.00  0.00    -0.030 C 
ATOM     10  C   LIG    1        6.315   4.223  -2.371  0.00  0.00    +0.040 C 
ATOM     11  C   LIG    1        4.279   5.265  -1.365  0.00  0.00    +0.030 C 
ATOM     12  C   LIG    1        4.805   5.630  -3.780  0.00  0.00    +0.030 C 
ENDBRANCH   6   9
BRANCH   3  14
ATOM     13  C   LIG    1        1.219   0.055  -5.268  0.00  0.00    +0.250 C 
ATOM     14  O   LIG    1        1.853   0.055  -3.987  0.00  0.00    -0.320 OA
ENDBRANCH   3  14
ENDBRANCH   1   8
BRANCH   1  15
ATOM     15  S   LIG    1        3.052   0.459   0.106  0.00  0.00    +2.690 S 
ATOM     16  O   LIG    1        2.817  -0.794   0.733  0.00  0.00    -0.950 OA
ATOM     17  O   LIG    1        4.166   1.285   0.413  0.00  0.00    -0.950 OA
BRANCH  15  18
ATOM     18  C   LIG    1        1.614   1.436   0.392  0.00  0.00    -0.690 A 
ATOM     19  C   LIG    1        0.404   0.822   0.658  0.00  0.00    +0.140 A 
ATOM     20  C   LIG    1       -0.726   1.585   0.877  0.00  0.00    +0.010 A 
ATOM     21  C   LIG    1       -0.644   2.970   0.842  0.00  0.00    +0.200 A 
ATOM     22  C   LIG    1        0.572   3.584   0.574  0.00  0.00    -0.030 A 
ATOM     23  C   LIG    1        1.698   2.816   0.350  0.00  0.00    +0.140 A 
BRANCH  21  24
ATOM     24  N   LIG    1       -1.786   3.746   1.068  0.00  0.00    -0.680 N 
ATOM     25  H   LIG    1       -1.911   4.579   0.586  0.00  0.00    +0.420 HD
ATOM     26  C   LIG    1       -2.714   3.337   1.956  0.00  0.00    +0.510 C 
ATOM     27  O   LIG    1       -2.600   2.258   2.498  0.00  0.00    -0.520 OA
ATOM     28  C   LIG    1       -3.892   4.221   2.277  0.00  0.00    +0.120 C 
ENDBRANCH  21  24
ENDBRANCH  15  18
ENDBRANCH   1  15
TORSDOF 6
