REMARK  Name = ZINCpe000000SyYT.0
REMARK                            x       y       z     vdW  Elec       q    Type
REMARK                         _______ _______ _______ _____ _____    ______ ____
ROOT
ATOM      1  C   LIG    1        4.906   6.958   1.616  0.00  0.00    +0.530 C 
ATOM      2  N   LIG    1        4.256   6.068   0.840  0.00  0.00    -0.620 N 
ATOM      3  C   LIG    1        3.293   6.516  -0.178  0.00  0.00    +0.290 C 
ATOM      4  C   LIG    1        1.985   5.742   0.015  0.00  0.00    +0.210 C 
ATOM      5  N   LIG    1        2.268   4.300   0.010  0.00  0.00    -0.470 N 
ATOM      6  C   LIG    1        3.134   3.924   1.135  0.00  0.00    +0.200 C 
ATOM      7  C   LIG    1        4.489   4.624   0.989  0.00  0.00    +0.300 C 
ATOM      8  O   LIG    1        4.767   8.147   1.423  0.00  0.00    -0.530 OA
ENDROOT
BRANCH   1  15
ATOM      9  C   LIG    1        6.636   4.391   6.922  0.00  0.00    +0.100 C 
ATOM     10  C   LIG    1        5.699   4.730   5.792  0.00  0.00    +0.510 C 
ATOM     11  N   LIG    1        5.877   5.864   5.086  0.00  0.00    -0.610 N 
ATOM     12  C   LIG    1        6.979   6.781   5.407  0.00  0.00    +0.260 C 
ATOM     13  C   LIG    1        7.791   7.041   4.134  0.00  0.00    +0.010 C 
ATOM     14  C   LIG    1        6.857   7.544   3.032  0.00  0.00    +0.050 C 
ATOM     15  C   LIG    1        5.806   6.474   2.724  0.00  0.00    -0.020 C 
ATOM     16  C   LIG    1        4.971   6.207   3.981  0.00  0.00    +0.300 C 
ATOM     17  O   LIG    1        4.785   3.981   5.516  0.00  0.00    -0.540 OA
ENDBRANCH   1  15
BRANCH   5  18
ATOM     18  C   LIG    1        1.090   3.562   0.019  0.00  0.00    +0.320 A 
ATOM     19  C   LIG    1        1.149   2.173   0.017  0.00  0.00    +0.010 A 
ATOM     20  C   LIG    1       -0.043   1.446   0.026  0.00  0.00    +0.050 A 
ATOM     21  C   LIG    1       -1.251   2.155   0.031  0.00  0.00    -0.010 A 
ATOM     22  C   LIG    1       -1.221   3.533   0.038  0.00  0.00    +0.310 A 
ATOM     23  N   LIG    1       -0.076   4.189   0.030  0.00  0.00    -0.500 NA
BRANCH  20  24
ATOM     24  C   LIG    1       -0.030   0.014   0.024  0.00  0.00    +0.250 C 
ATOM     25  N   LIG    1       -0.021  -1.122   0.022  0.00  0.00    -0.390 NA
ENDBRANCH  20  24
ENDBRANCH   5  18
TORSDOF 3
