REMARK  Name = ZINCtV000002KmxP.0
REMARK                            x       y       z     vdW  Elec       q    Type
REMARK                         _______ _______ _______ _____ _____    ______ ____
ROOT
ATOM      1  C   LIG    1       -2.553   3.868   0.046  0.00  0.00    +0.280 C 
ENDROOT
BRANCH   1   2
ATOM      2  C   LIG    1       -1.238   3.133   0.030  0.00  0.00    -0.120 A 
ATOM      3  C   LIG    1       -1.219   1.751   0.017  0.00  0.00    +0.030 A 
ATOM      4  C   LIG    1       -0.013   1.076   0.008  0.00  0.00    +0.040 A 
ATOM      5  C   LIG    1        1.176   1.784   0.000  0.00  0.00    -0.030 A 
ATOM      6  C   LIG    1        1.156   3.167   0.007  0.00  0.00    +0.040 A 
ATOM      7 CL   LIG    1        2.691   0.937  -0.019  0.00  0.00    -0.060 Cl
ATOM      8  C   LIG    1       -0.050   3.841   0.022  0.00  0.00    +0.040 A 
ENDBRANCH   1   2
BRANCH   1   9
ATOM      9  C   LIG    1       -3.125   3.904  -1.347  0.00  0.00    -0.090 A 
ATOM     10  C   LIG    1       -2.997   5.042  -2.129  0.00  0.00    +0.090 A 
ATOM     11  C   LIG    1       -3.535   5.028  -3.408  0.00  0.00    +0.030 A 
ATOM     12  C   LIG    1       -4.184   3.893  -3.853  0.00  0.00    +0.040 A 
ATOM     13  N   LIG    1       -4.292   2.830  -3.079  0.00  0.00    -0.440 NA
ATOM     14  C   LIG    1       -3.789   2.806  -1.860  0.00  0.00    +0.290 A 
BRANCH  12  15
ATOM     15  C   LIG    1       -4.777   3.868  -5.238  0.00  0.00    +0.520 C 
ATOM     16  F   LIG    1       -3.752   3.962  -6.186  0.00  0.00    -0.170 F 
ATOM     17  F   LIG    1       -5.653   4.949  -5.390  0.00  0.00    -0.170 F 
ATOM     18  F   LIG    1       -5.477   2.671  -5.425  0.00  0.00    -0.160 F 
ENDBRANCH  12  15
ENDBRANCH   1   9
BRANCH   1  19
ATOM     19  N   LIG    1       -3.490   3.177   0.942  0.00  0.00    -0.670 NA
ATOM     20  H   LIG    1       -3.397   2.175   0.859  0.00  0.00    +0.350 HD
BRANCH  19  21
ATOM     21  C   LIG    1       -3.303   3.609   2.334  0.00  0.00    +0.280 C 
BRANCH  21  27
ATOM     22  C   LIG    1       -6.302   4.531   3.161  0.00  0.00    +0.160 C 
ATOM     23  C   LIG    1       -5.586   3.275   3.586  0.00  0.00    +0.040 A 
ATOM     24  N   LIG    1       -6.051   2.337   4.361  0.00  0.00    -0.370 NA
ATOM     25  O   LIG    1       -5.241   1.454   4.526  0.00  0.00    +0.100 OA
ATOM     26  C   LIG    1       -4.104   1.698   3.858  0.00  0.00    -0.010 A 
ATOM     27  C   LIG    1       -4.279   2.880   3.221  0.00  0.00    -0.200 A 
BRANCH  26  28
ATOM     28  C   LIG    1       -2.874   0.827   3.824  0.00  0.00    +0.090 C 
ATOM     29  C   LIG    1       -3.237  -0.545   3.253  0.00  0.00    +0.050 C 
ATOM     30  C   LIG    1       -2.327   0.661   5.243  0.00  0.00    +0.050 C 
ENDBRANCH  26  28
ENDBRANCH  21  27
ENDBRANCH  19  21
ENDBRANCH   1  19
TORSDOF 7
