REMARK  Name = ZINCpk00000ebg5q.1
REMARK                            x       y       z     vdW  Elec       q    Type
REMARK                         _______ _______ _______ _____ _____    ______ ____
ROOT
ATOM      1  C   LIG    1        6.028  -0.175  -2.799  0.00  0.00    +0.320 C 
ATOM      2  N   LIG    1        7.469  -0.039  -2.972  0.00  0.00    -0.710 N 
ATOM      3  H   LIG    1        7.907  -0.622  -3.612  0.00  0.00    +0.400 HD
ATOM      4  C   LIG    1        8.223   0.835  -2.305  0.00  0.00    +0.520 C 
ATOM      5  C   LIG    1        7.685   1.762  -1.254  0.00  0.00    +0.070 C 
ATOM      6  C   LIG    1        6.163   1.865  -1.380  0.00  0.00    +0.000 C 
ATOM      7  O   LIG    1        9.408   0.885  -2.562  0.00  0.00    -0.560 OA
ATOM      8  C   LIG    1        5.588   0.446  -1.473  0.00  0.00    +0.180 C 
ENDROOT
BRANCH   1  12
ATOM      9  C   LIG    1        3.632  -4.487  -3.684  0.00  0.00    +0.350 C 
ATOM     10  N   LIG    1        4.612  -3.511  -3.201  0.00  0.00    -0.370 N 
ATOM     11  C   LIG    1        4.583  -2.180  -3.425  0.00  0.00    +0.260 A 
ATOM     12  C   LIG    1        5.660  -1.636  -2.812  0.00  0.00    -0.250 A 
ATOM     13  C   LIG    1        6.374  -2.670  -2.197  0.00  0.00    +0.240 A 
ATOM     14  N   LIG    1        5.743  -3.793  -2.424  0.00  0.00    -0.300 NA
ENDBRANCH   1  12
BRANCH   8  15
ATOM     15  N   LIG    1        4.121   0.505  -1.420  0.00  0.00    -0.670 NA
ATOM     16  H   LIG    1        3.772   1.303  -1.929  0.00  0.00    +0.350 HD
BRANCH  15  17
ATOM     17  C   LIG    1        3.645   0.517  -0.030  0.00  0.00    +0.290 C 
BRANCH  17  18
ATOM     18  C   LIG    1        2.139   0.578  -0.015  0.00  0.00    +0.100 A 
ATOM     19  N   LIG    1        1.330  -0.443  -0.013  0.00  0.00    -0.230 NA
ATOM     20  N   LIG    1        0.002  -0.004   0.002  0.00  0.00    -0.410 N 
ATOM     21  C   LIG    1       -0.017   1.366   0.010  0.00  0.00    +0.130 A 
ATOM     22  C   LIG    1       -1.034   2.317   0.029  0.00  0.00    -0.020 A 
ATOM     23  C   LIG    1       -0.721   3.647   0.029  0.00  0.00    +0.060 A 
ATOM     24  C   LIG    1        0.603   4.067   0.018  0.00  0.00    -0.030 A 
ATOM     25  C   LIG    1        1.621   3.158   0.004  0.00  0.00    +0.080 A 
ATOM     26  C   LIG    1       -1.179  -0.870   0.008  0.00  0.00    +0.350 C 
ATOM     27  C   LIG    1        1.327   1.790  -0.001  0.00  0.00    -0.170 A 
ENDBRANCH  17  18
ENDBRANCH  15  17
ENDBRANCH   8  15
TORSDOF 4
