REMARK  Name = ZINCpe000000VIjb.0
REMARK                            x       y       z     vdW  Elec       q    Type
REMARK                         _______ _______ _______ _____ _____    ______ ____
ROOT
ATOM      1  C   LIG    1       -1.518  -1.766  -0.155  0.00  0.00    +0.270 A 
ATOM      2  N   LIG    1       -0.484  -1.458   0.591  0.00  0.00    -0.260 NA
ATOM      3  N   LIG    1       -0.546  -0.088   0.879  0.00  0.00    -0.300 N 
ATOM      4  C   LIG    1       -1.653   0.413   0.292  0.00  0.00    +0.060 A 
ATOM      5  C   LIG    1        0.420   0.667   1.681  0.00  0.00    +0.410 C 
ATOM      6  C   LIG    1       -2.273  -0.599  -0.357  0.00  0.00    -0.110 A 
ENDROOT
BRANCH   1   9
ATOM      7  C   LIG    1       -1.950  -5.015   0.003  0.00  0.00    +0.170 C 
ATOM      8  C   LIG    1       -0.804  -4.024  -0.244  0.00  0.00    +0.260 C 
ATOM      9  N   LIG    1       -1.819  -3.037  -0.659  0.00  0.00    -0.380 N 
ATOM     10  C   LIG    1       -2.778  -3.739   0.213  0.00  0.00    +0.240 C 
BRANCH   7  11
ATOM     11  C   LIG    1       -1.783  -5.854   1.244  0.00  0.00    +0.250 A 
ATOM     12  N   LIG    1       -2.549  -5.817   2.304  0.00  0.00    -0.520 NA
ATOM     13  C   LIG    1       -2.110  -6.692   3.208  0.00  0.00    +0.420 A 
ATOM     14  N   LIG    1       -1.054  -7.299   2.734  0.00  0.00    -0.310 NA
ATOM     15  N   LIG    1       -0.825  -6.773   1.452  0.00  0.00    -0.360 N 
ATOM     16  C   LIG    1        0.246  -7.150   0.527  0.00  0.00    +0.370 C 
ENDBRANCH   7  11
BRANCH   7  18
ATOM     17  C   LIG    1       -3.468  -6.609  -0.946  0.00  0.00    +0.230 C 
ATOM     18  O   LIG    1       -2.326  -5.773  -1.148  0.00  0.00    -0.330 OA
ENDBRANCH   7  18
ENDBRANCH   1   9
BRANCH   4  19
ATOM     19  C   LIG    1       -2.113   1.847   0.344  0.00  0.00    +0.540 C 
ATOM     20  F   LIG    1       -2.959   2.026   1.445  0.00  0.00    -0.150 F 
ATOM     21  F   LIG    1       -2.806   2.158  -0.831  0.00  0.00    -0.150 F 
ATOM     22  F   LIG    1       -1.003   2.689   0.468  0.00  0.00    -0.160 F 
ENDBRANCH   4  19
BRANCH   6  23
ATOM     23  N   LIG    1       -3.523  -0.494  -1.142  0.00  0.00    +0.040 N 
ATOM     24  O   LIG    1       -4.600  -0.664  -0.599  0.00  0.00    -0.130 OA
ATOM     25  O   LIG    1       -3.475  -0.239  -2.332  0.00  0.00    -0.100 OA
ENDBRANCH   6  23
TORSDOF 5
