REMARK  Name = ZINCqH0000050C61.0
REMARK                            x       y       z     vdW  Elec       q    Type
REMARK                         _______ _______ _______ _____ _____    ______ ____
ROOT
ATOM      1  S   LIG    1       -1.522  -1.631  -3.436  0.00  0.00    +0.090 S 
ENDROOT
BRANCH   1   6
ATOM      2  N   LIG    1       -1.319  -4.405  -3.766  0.00  0.00    -0.410 N 
ATOM      3  C   LIG    1       -0.785  -5.446  -3.053  0.00  0.00    +0.390 A 
ATOM      4  N   LIG    1       -0.262  -4.945  -1.970  0.00  0.00    -0.280 NA
ATOM      5  N   LIG    1       -0.420  -3.670  -1.950  0.00  0.00    -0.290 NA
ATOM      6  C   LIG    1       -1.068  -3.283  -3.024  0.00  0.00    +0.150 A 
BRANCH   2  13
ATOM      7  C   LIG    1       -0.119  -3.138  -6.015  0.00  0.00    +0.110 C 
ATOM      8  C   LIG    1       -1.433  -3.870  -6.121  0.00  0.00    -0.060 A 
ATOM      9  C   LIG    1       -2.086  -3.945  -7.335  0.00  0.00    +0.030 A 
ATOM     10  C   LIG    1       -3.294  -4.612  -7.431  0.00  0.00    +0.040 A 
ATOM     11  C   LIG    1       -3.848  -5.210  -6.315  0.00  0.00    +0.030 A 
ATOM     12  C   LIG    1       -3.196  -5.143  -5.099  0.00  0.00    +0.040 A 
ATOM     13  C   LIG    1       -1.983  -4.474  -4.999  0.00  0.00    +0.090 A 
ENDBRANCH   2  13
ENDBRANCH   1   6
BRANCH   1  14
ATOM     14  C   LIG    1       -0.857  -0.754  -1.999  0.00  0.00    +0.110 C 
BRANCH  14  15
ATOM     15  C   LIG    1       -1.136   0.720  -2.137  0.00  0.00    +0.540 C 
ATOM     16  N   LIG    1       -0.729   1.575  -1.178  0.00  0.00    -0.600 N 
ATOM     17  C   LIG    1       -0.013   1.086   0.008  0.00  0.00    +0.270 C 
ATOM     18  C   LIG    1       -0.736   1.583   1.264  0.00  0.00    +0.020 C 
ATOM     19  C   LIG    1       -0.875   3.106   1.199  0.00  0.00    -0.010 C 
ATOM     20  C   LIG    1       -1.583   3.603   2.462  0.00  0.00    +0.010 C 
ATOM     21  C   LIG    1       -2.965   2.953   2.558  0.00  0.00    +0.000 C 
ATOM     22  C   LIG    1       -3.794   3.331   1.329  0.00  0.00    +0.000 C 
ATOM     23  C   LIG    1       -3.085   2.843   0.064  0.00  0.00    +0.010 C 
ATOM     24  C   LIG    1       -1.704   3.495  -0.028  0.00  0.00    -0.020 C 
ATOM     25  C   LIG    1       -0.994   3.016  -1.297  0.00  0.00    +0.290 C 
ATOM     26  O   LIG    1       -1.726   1.137  -3.111  0.00  0.00    -0.520 OA
ENDBRANCH  14  15
ENDBRANCH   1  14
TORSDOF 4
