REMARK  Name = ZINCvU0000000J9W.0
REMARK                            x       y       z     vdW  Elec       q    Type
REMARK                         _______ _______ _______ _____ _____    ______ ____
ROOT
ATOM      1  C   LIG    1        3.310   5.657   1.421  0.00  0.00    +0.110 C 
ATOM      2  C   LIG    1        2.800   5.386   0.003  0.00  0.00    +0.020 C 
ENDROOT
BRANCH   2   3
ATOM      3  C   LIG    1        1.946   4.144   0.005  0.00  0.00    +0.540 C 
ATOM      4  N   LIG    1        2.526   2.927  -0.007  0.00  0.00    -0.610 N 
ATOM      5  H   LIG    1        3.493   2.851  -0.017  0.00  0.00    +0.430 HD
ATOM      6  O   LIG    1        0.737   4.239   0.018  0.00  0.00    -0.480 OA
BRANCH   4   7
ATOM      7  C   LIG    1        1.739   1.782  -0.005  0.00  0.00    +0.270 A 
ATOM      8  N   LIG    1        2.186   0.566  -0.016  0.00  0.00    -0.490 NA
ATOM      9  C   LIG    1        1.285  -0.407  -0.012  0.00  0.00    +0.130 A 
ATOM     10  C   LIG    1        0.002  -0.004   0.002  0.00  0.00    -0.110 A 
ATOM     11  S   LIG    1       -0.022   1.758   0.012  0.00  0.00    +0.210 S 
BRANCH   9  12
ATOM     12  C   LIG    1        1.666  -1.840  -0.024  0.00  0.00    -0.020 A 
ATOM     13  C   LIG    1        0.681  -2.826  -0.015  0.00  0.00    +0.020 A 
ATOM     14  C   LIG    1        1.041  -4.158  -0.032  0.00  0.00    +0.010 A 
ATOM     15  C   LIG    1        2.377  -4.516  -0.047  0.00  0.00    +0.010 A 
ATOM     16  C   LIG    1        3.359  -3.542  -0.050  0.00  0.00    +0.010 A 
ATOM     17  C   LIG    1        3.011  -2.207  -0.039  0.00  0.00    +0.040 A 
ENDBRANCH   9  12
ENDBRANCH   4   7
ENDBRANCH   2   3
BRANCH   2  18
ATOM     18  S   LIG    1        1.815   6.794  -0.563  0.00  0.00    +0.090 S 
BRANCH  18  19
ATOM     19  C   LIG    1        3.061   8.039  -0.613  0.00  0.00    +0.150 A 
ATOM     20  N   LIG    1        4.329   7.888  -0.305  0.00  0.00    -0.280 NA
ATOM     21  N   LIG    1        4.951   9.002  -0.454  0.00  0.00    -0.280 NA
ATOM     22  C   LIG    1        4.127   9.926  -0.863  0.00  0.00    +0.230 A 
ATOM     23  N   LIG    1        2.893   9.345  -0.985  0.00  0.00    -0.410 N 
BRANCH  23  24
ATOM     24  C   LIG    1        1.704   9.961  -1.402  0.00  0.00    +0.100 A 
ATOM     25  C   LIG    1        1.589  10.444  -2.697  0.00  0.00    +0.030 A 
ATOM     26  C   LIG    1        0.414  11.046  -3.107  0.00  0.00    +0.040 A 
ATOM     27  C   LIG    1       -0.642  11.176  -2.224  0.00  0.00    +0.030 A 
ATOM     28  C   LIG    1       -0.528  10.700  -0.931  0.00  0.00    +0.040 A 
ATOM     29  C   LIG    1        0.642  10.093  -0.517  0.00  0.00    +0.030 A 
ENDBRANCH  23  24
BRANCH  22  30
ATOM     30  C   LIG    1        4.471  11.364  -1.154  0.00  0.00    +0.030 C 
ATOM     31  C   LIG    1        5.951  11.751  -1.154  0.00  0.00    +0.080 C 
ATOM     32  C   LIG    1        5.042  12.200  -0.007  0.00  0.00    +0.060 C 
ENDBRANCH  22  30
ENDBRANCH  18  19
ENDBRANCH   2  18
TORSDOF 7
