REMARK  Name = ZINCqH00000085RO.0
REMARK                            x       y       z     vdW  Elec       q    Type
REMARK                         _______ _______ _______ _____ _____    ______ ____
ROOT
ATOM      1  C   LIG    1        3.066   8.107   0.015  0.00  0.00    +0.110 C 
ENDROOT
BRANCH   1   2
ATOM      2  C   LIG    1        1.595   8.434   0.021  0.00  0.00    +0.560 C 
ATOM      3  N   LIG    1        0.684   7.441   0.026  0.00  0.00    -0.470 N 
ATOM      4  C   LIG    1       -0.777   7.620   0.033  0.00  0.00    +0.260 C 
ATOM      5  C   LIG    1       -1.317   6.176   0.030  0.00  0.00    +0.090 C 
ATOM      6  C   LIG    1       -0.071   5.321   0.031  0.00  0.00    +0.140 C 
ATOM      7  N   LIG    1        0.971   6.078   0.026  0.00  0.00    -0.240 NA
ATOM      8  O   LIG    1        1.231   9.591   0.022  0.00  0.00    -0.520 OA
BRANCH   6   9
ATOM      9  C   LIG    1       -0.051   3.846   0.032  0.00  0.00    -0.040 A 
ATOM     10  C   LIG    1        1.166   3.160   0.026  0.00  0.00    +0.050 A 
ATOM     11  C   LIG    1        1.177   1.781   0.027  0.00  0.00    +0.010 A 
ATOM     12  C   LIG    1       -0.013   1.077   0.034  0.00  0.00    +0.030 A 
ATOM     13  C   LIG    1       -1.223   1.749   0.033  0.00  0.00    +0.010 A 
ATOM     14  C   LIG    1       -1.249   3.128   0.037  0.00  0.00    +0.040 A 
ENDBRANCH   6   9
ENDBRANCH   1   2
BRANCH   1  15
ATOM     15  C   LIG    1        3.877   9.405   0.009  0.00  0.00    +0.090 C 
BRANCH  15  18
ATOM     16  N   LIG    1        6.260  10.070  -0.002  0.00  0.00    -0.670 N 
ATOM     17  H   LIG    1        5.970  10.994  -0.070  0.00  0.00    +0.410 HD
ATOM     18  C   LIG    1        5.348   9.077   0.003  0.00  0.00    +0.520 C 
ATOM     19  O   LIG    1        5.712   7.920   0.002  0.00  0.00    -0.520 OA
BRANCH  16  23
ATOM     20  C   LIG    1       10.324   9.173   0.271  0.00  0.00    -0.100 A 
ATOM     21  C   LIG    1        9.470   8.324  -0.423  0.00  0.00    +0.050 A 
ATOM     22  C   LIG    1        8.125   8.622  -0.513  0.00  0.00    +0.050 A 
ATOM     23  C   LIG    1        7.625   9.769   0.089  0.00  0.00    +0.140 A 
ATOM     24  C   LIG    1        8.479  10.620   0.778  0.00  0.00    +0.010 A 
ATOM     25  C   LIG    1        9.823  10.321   0.873  0.00  0.00    +0.010 A 
BRANCH  20  27
ATOM     26  C   LIG    1       12.698  10.173   1.364  0.00  0.00    +0.120 C 
ATOM     27  S   LIG    1       12.041   8.794   0.385  0.00  0.00    -0.120 S 
ENDBRANCH  20  27
ENDBRANCH  16  23
ENDBRANCH  15  18
ENDBRANCH   1  15
TORSDOF 6
