REMARK  Name = ZINCpk00000kOFWg.0
REMARK                            x       y       z     vdW  Elec       q    Type
REMARK                         _______ _______ _______ _____ _____    ______ ____
ROOT
ATOM      1  C   LIG    1       -2.687   0.876   0.334  0.00  0.00    +0.550 C 
ATOM      2  N   LIG    1       -2.568  -0.447   0.101  0.00  0.00    -0.590 N 
ATOM      3  O   LIG    1       -1.709   1.594   0.265  0.00  0.00    -0.480 OA
ENDROOT
BRANCH   1   8
ATOM      4  C   LIG    1       -3.256   5.425   3.564  0.00  0.00    +0.180 C 
ATOM      5  C   LIG    1       -3.888   4.331   2.744  0.00  0.00    +0.280 A 
ATOM      6  N   LIG    1       -3.222   3.392   2.102  0.00  0.00    -0.510 NA
ATOM      7  C   LIG    1       -4.107   2.596   1.483  0.00  0.00    +0.050 A 
ATOM      8  C   LIG    1       -4.010   1.454   0.674  0.00  0.00    +0.030 A 
ATOM      9  C   LIG    1       -5.189   0.876   0.190  0.00  0.00    -0.030 A 
ATOM     10  C   LIG    1       -6.399   1.413   0.513  0.00  0.00    +0.330 A 
ATOM     11  N   LIG    1       -6.504   2.500   1.291  0.00  0.00    -0.470 N 
ATOM     12  H   LIG    1       -7.382   2.855   1.502  0.00  0.00    +0.430 HD
ATOM     13  C   LIG    1       -5.396   3.115   1.790  0.00  0.00    +0.230 A 
ATOM     14  N   LIG    1       -5.194   4.176   2.564  0.00  0.00    -0.560 NA
ENDBRANCH   1   8
BRANCH   2  15
ATOM     15  C   LIG    1       -3.765  -1.290   0.042  0.00  0.00    +0.290 C 
BRANCH  15  16
ATOM     16  C   LIG    1       -4.152  -1.524  -1.419  0.00  0.00    +0.150 C 
ATOM     17  C   LIG    1       -5.471  -2.299  -1.481  0.00  0.00    +0.160 C 
ATOM     18  N   LIG    1       -5.799  -2.589  -2.884  0.00  0.00    -0.540 NA
ATOM     19  C   LIG    1       -4.726  -3.368  -3.519  0.00  0.00    +0.160 C 
ATOM     20  C   LIG    1       -3.415  -2.582  -3.438  0.00  0.00    +0.220 C 
ATOM     21  C   LIG    1       -7.088  -3.284  -2.991  0.00  0.00    +0.190 C 
ATOM     22  O   LIG    1       -3.129  -2.283  -2.068  0.00  0.00    -0.370 OA
ENDBRANCH  15  16
ENDBRANCH   2  15
BRANCH   2  23
ATOM     23  C   LIG    1       -1.244  -1.041  -0.092  0.00  0.00    +0.340 C 
BRANCH  23  24
ATOM     24  C   LIG    1       -0.728  -1.584   1.242  0.00  0.00    -0.070 C 
ATOM     25  C   LIG    1        0.536  -0.948   1.822  0.00  0.00    +0.020 C 
ATOM     26  C   LIG    1        0.592  -2.357   1.227  0.00  0.00    +0.020 C 
ENDBRANCH  23  24
ENDBRANCH   2  23
TORSDOF 5
