REMARK  Name = ZINCpk00000kOFWg.1
REMARK                            x       y       z     vdW  Elec       q    Type
REMARK                         _______ _______ _______ _____ _____    ______ ____
ROOT
ATOM      1  C   LIG    1       -2.726   3.984   0.205  0.00  0.00    +0.560 C 
ATOM      2  N   LIG    1       -3.819   3.196   0.194  0.00  0.00    -0.600 N 
ATOM      3  O   LIG    1       -1.622   3.496   0.058  0.00  0.00    -0.500 OA
ENDROOT
BRANCH   1   8
ATOM      4  C   LIG    1        1.210   7.011   2.772  0.00  0.00    +0.210 C 
ATOM      5  C   LIG    1       -0.126   6.962   2.077  0.00  0.00    +0.310 A 
ATOM      6  N   LIG    1       -0.680   5.884   1.598  0.00  0.00    -0.470 NA
ATOM      7  C   LIG    1       -1.868   6.193   1.044  0.00  0.00    +0.060 A 
ATOM      8  C   LIG    1       -2.869   5.442   0.395  0.00  0.00    -0.030 A 
ATOM      9  C   LIG    1       -4.003   6.121  -0.058  0.00  0.00    -0.010 A 
ATOM     10  C   LIG    1       -4.098   7.487   0.134  0.00  0.00    +0.300 A 
ATOM     11  N   LIG    1       -3.147   8.165   0.744  0.00  0.00    -0.460 NA
ATOM     12  C   LIG    1       -2.054   7.580   1.200  0.00  0.00    +0.240 A 
ATOM     13  N   LIG    1       -0.931   8.036   1.859  0.00  0.00    -0.580 N 
ATOM     14  H   LIG    1       -0.749   8.953   2.118  0.00  0.00    +0.430 HD
ENDBRANCH   1   8
BRANCH   2  15
ATOM     15  C   LIG    1       -5.155   3.795   0.219  0.00  0.00    +0.290 C 
BRANCH  15  16
ATOM     16  C   LIG    1       -5.730   3.819  -1.199  0.00  0.00    +0.140 C 
ATOM     17  C   LIG    1       -7.074   4.552  -1.193  0.00  0.00    +0.160 C 
ATOM     18  N   LIG    1       -7.657   4.505  -2.542  0.00  0.00    -0.540 NA
ATOM     19  C   LIG    1       -7.844   3.114  -2.980  0.00  0.00    +0.160 C 
ATOM     20  C   LIG    1       -6.492   2.396  -2.968  0.00  0.00    +0.220 C 
ATOM     21  C   LIG    1       -8.924   5.248  -2.593  0.00  0.00    +0.190 C 
ATOM     22  O   LIG    1       -5.926   2.479  -1.657  0.00  0.00    -0.370 OA
ENDBRANCH  15  16
ENDBRANCH   2  15
BRANCH   2  23
ATOM     23  C   LIG    1       -3.670   1.738   0.158  0.00  0.00    +0.330 C 
BRANCH  23  24
ATOM     24  C   LIG    1       -3.479   1.210   1.581  0.00  0.00    -0.070 C 
ATOM     25  C   LIG    1       -2.151   0.522   1.906  0.00  0.00    +0.020 C 
ATOM     26  C   LIG    1       -3.430  -0.308   1.770  0.00  0.00    +0.010 C 
ENDBRANCH  23  24
ENDBRANCH   2  23
TORSDOF 5
