REMARK  Name = ZINCrH000004moI6.0
REMARK                            x       y       z     vdW  Elec       q    Type
REMARK                         _______ _______ _______ _____ _____    ______ ____
ROOT
ATOM      1  C   LIG    1       -3.910   5.477   0.066  0.00  0.00    +0.150 A 
ATOM      2  N   LIG    1       -2.620   5.215   0.053  0.00  0.00    -0.280 NA
ATOM      3  N   LIG    1       -2.458   3.824   0.045  0.00  0.00    -0.320 N 
ATOM      4  C   LIG    1       -3.692   3.256   0.048  0.00  0.00    +0.240 A 
ATOM      5  C   LIG    1       -4.606   4.252   0.067  0.00  0.00    -0.210 A 
ENDROOT
BRANCH   1   9
ATOM      6  C   LIG    1       -5.673   9.349   0.099  0.00  0.00    +0.140 A 
ATOM      7  C   LIG    1       -4.482   9.124   0.777  0.00  0.00    -0.030 A 
ATOM      8  C   LIG    1       -3.909   7.869   0.769  0.00  0.00    +0.080 A 
ATOM      9  C   LIG    1       -4.525   6.828   0.078  0.00  0.00    -0.070 A 
ATOM     10  C   LIG    1       -5.717   7.058  -0.607  0.00  0.00    +0.110 A 
ATOM     11  C   LIG    1       -6.289   8.313  -0.590  0.00  0.00    -0.080 A 
BRANCH   6  13
ATOM     12  C   LIG    1       -7.460  10.747  -0.609  0.00  0.00    +0.250 C 
ATOM     13  O   LIG    1       -6.235  10.586   0.109  0.00  0.00    -0.320 OA
ENDBRANCH   6  13
ENDBRANCH   1   9
BRANCH   3  14
ATOM     14  C   LIG    1       -1.236   3.138   0.030  0.00  0.00    +0.160 A 
ATOM     15  C   LIG    1       -1.218   1.749   0.017  0.00  0.00    -0.010 A 
ATOM     16  C   LIG    1       -0.013   1.076   0.008  0.00  0.00    +0.040 A 
ATOM     17  C   LIG    1        1.176   1.783   0.000  0.00  0.00    +0.000 A 
ATOM     18  C   LIG    1        1.161   3.166   0.007  0.00  0.00    +0.040 A 
ATOM     19  C   LIG    1       -0.041   3.845   0.022  0.00  0.00    +0.020 A 
ENDBRANCH   3  14
BRANCH   5  20
ATOM     20  C   LIG    1       -6.103   4.081   0.080  0.00  0.00    +0.270 C 
BRANCH  20  21
ATOM     21  N   LIG    1       -6.629   4.271  -1.278  0.00  0.00    -0.530 NA
ATOM     22  C   LIG    1       -5.831   3.525  -2.261  0.00  0.00    +0.150 C 
ATOM     23  C   LIG    1       -6.376   3.797  -3.666  0.00  0.00    +0.220 C 
ATOM     24  O   LIG    1       -7.761   3.443  -3.711  0.00  0.00    -0.380 OA
ATOM     25  C   LIG    1       -8.568   4.151  -2.767  0.00  0.00    +0.160 C 
ATOM     26  C   LIG    1      -10.018   3.675  -2.874  0.00  0.00    +0.050 C 
ATOM     27  C   LIG    1       -8.045   3.882  -1.353  0.00  0.00    +0.160 C 
ENDBRANCH  20  21
ENDBRANCH   5  20
TORSDOF 5
