REMARK  Name = ZINCpk00000xIb91.0
REMARK                            x       y       z     vdW  Elec       q    Type
REMARK                         _______ _______ _______ _____ _____    ______ ____
ROOT
ATOM      1  C   LIG    1       -6.689   3.179   2.596  0.00  0.00    -0.040 A 
ATOM      2  C   LIG    1       -5.510   2.721   3.237  0.00  0.00    +0.080 A 
ATOM      3  C   LIG    1       -4.525   2.143   2.509  0.00  0.00    +0.120 A 
ATOM      4  C   LIG    1       -4.671   1.997   1.111  0.00  0.00    -0.120 A 
ATOM      5  C   LIG    1       -5.843   2.458   0.469  0.00  0.00    +0.060 A 
ATOM      6  C   LIG    1       -6.833   3.031   1.193  0.00  0.00    +0.120 A 
ENDROOT
BRANCH   5   7
ATOM      7  N   LIG    1       -5.989   2.308  -0.997  0.00  0.00    -0.020 N 
ATOM      8  O   LIG    1       -5.029   1.746  -1.701  0.00  0.00    -0.140 OA
ATOM      9  O   LIG    1       -7.081   2.737  -1.597  0.00  0.00    -0.180 OA
ENDBRANCH   5   7
BRANCH   1  11
ATOM     10  N   LIG    1       -7.514   4.064   4.625  0.00  0.00    -0.200 NA
ATOM     11  C   LIG    1       -7.712   3.778   3.349  0.00  0.00    +0.220 C 
BRANCH  10  16
ATOM     12  C   LIG    1       -3.384   5.619   7.688  0.00  0.00    +0.190 C 
ATOM     13  N   LIG    1       -4.160   4.886   6.679  0.00  0.00    -0.540 NA
ATOM     14  C   LIG    1       -5.266   4.146   7.300  0.00  0.00    +0.180 C 
ATOM     15  C   LIG    1       -5.936   3.256   6.248  0.00  0.00    +0.310 C 
ATOM     16  N   LIG    1       -6.315   4.094   5.100  0.00  0.00    -0.520 N 
ATOM     17  C   LIG    1       -5.289   4.964   4.505  0.00  0.00    +0.260 C 
ATOM     18  C   LIG    1       -4.646   5.791   5.629  0.00  0.00    +0.180 C 
ENDBRANCH  10  16
ENDBRANCH   1  11
BRANCH   4  19
ATOM     19  S   LIG    1       -3.424   1.268   0.193  0.00  0.00    +0.220 S 
BRANCH  19  20
ATOM     20  C   LIG    1       -4.257  -0.228   0.166  0.00  0.00    +0.100 A 
ATOM     21  N   LIG    1       -5.399  -0.507   0.781  0.00  0.00    -0.280 NA
ATOM     22  N   LIG    1       -5.724  -1.728   0.542  0.00  0.00    -0.290 NA
ATOM     23  C   LIG    1       -4.821  -2.289  -0.235  0.00  0.00    +0.380 A 
ATOM     24  N   LIG    1       -3.873  -1.364  -0.498  0.00  0.00    -0.450 N 
ATOM     25  C   LIG    1       -2.674  -1.540  -1.321  0.00  0.00    +0.350 C 
ENDBRANCH  19  20
ENDBRANCH   4  19
TORSDOF 5
