REMARK  Name = ZINCrg000000oHqz.0
REMARK                            x       y       z     vdW  Elec       q    Type
REMARK                         _______ _______ _______ _____ _____    ______ ____
ROOT
ATOM      1  C   LIG    1        9.531   2.114  -0.374  0.00  0.00    +0.570 C 
ATOM      2  N   LIG    1        8.302   2.548  -0.030  0.00  0.00    -0.520 N 
ATOM      3  H   LIG    1        8.201   3.380   0.459  0.00  0.00    +0.430 HD
ATOM      4  O   LIG    1        9.658   1.072  -0.987  0.00  0.00    -0.530 OA
ENDROOT
BRANCH   1  10
ATOM      5  N   LIG    1       14.203   4.918   0.894  0.00  0.00    -0.390 N 
ATOM      6  N   LIG    1       15.097   4.014   0.304  0.00  0.00    +0.000 NA
ATOM      7  N   LIG    1       14.440   3.035  -0.212  0.00  0.00    -0.200 NA
ATOM      8  C   LIG    1       13.112   3.208  -0.012  0.00  0.00    -0.030 A 
ATOM      9  C   LIG    1       11.989   2.453  -0.358  0.00  0.00    +0.210 A 
ATOM     10  C   LIG    1       10.723   2.905  -0.007  0.00  0.00    -0.150 A 
ATOM     11  C   LIG    1       10.573   4.107   0.699  0.00  0.00    +0.100 A 
ATOM     12  C   LIG    1       11.665   4.846   1.044  0.00  0.00    +0.020 A 
ATOM     13  C   LIG    1       12.942   4.412   0.697  0.00  0.00    +0.110 A 
BRANCH   5  15
ATOM     14  C   LIG    1       14.761   5.875   3.075  0.00  0.00    +0.050 C 
ATOM     15  C   LIG    1       14.547   6.162   1.587  0.00  0.00    +0.330 C 
ENDBRANCH   5  15
ENDBRANCH   1  10
BRANCH   2  16
ATOM     16  N   LIG    1        7.171   1.798  -0.379  0.00  0.00    -0.510 N 
ATOM     17  H   LIG    1        7.273   0.967  -0.867  0.00  0.00    +0.440 HD
ATOM     18  C   LIG    1        5.943   2.232  -0.034  0.00  0.00    +0.530 C 
ATOM     19  O   LIG    1        5.816   3.272   0.577  0.00  0.00    -0.500 OA
BRANCH  18  20
ATOM     20  C   LIG    1        4.726   1.425  -0.409  0.00  0.00    +0.170 C 
ATOM     21  C   LIG    1        4.752   0.078   0.326  0.00  0.00    +0.250 C 
ATOM     22  O   LIG    1        3.579  -0.656  -0.042  0.00  0.00    -0.300 OA
ATOM     23  C   LIG    1        2.401   0.025  -0.022  0.00  0.00    +0.040 A 
ATOM     24  C   LIG    1        1.207  -0.681  -0.014  0.00  0.00    +0.030 A 
ATOM     25  C   LIG    1        0.002  -0.004   0.002  0.00  0.00    +0.030 A 
ATOM     26  C   LIG    1       -0.017   1.378   0.010  0.00  0.00    +0.030 A 
ATOM     27  C   LIG    1        1.170   2.088   0.002  0.00  0.00    +0.030 A 
ATOM     28  C   LIG    1        2.382   1.415  -0.013  0.00  0.00    +0.050 A 
ATOM     29  O   LIG    1        3.542   2.127  -0.016  0.00  0.00    -0.280 OA
ENDBRANCH  18  20
ENDBRANCH   2  16
TORSDOF 4
