REMARK  Name = ZINCrH00000No4U1.0
REMARK                            x       y       z     vdW  Elec       q    Type
REMARK                         _______ _______ _______ _____ _____    ______ ____
ROOT
ATOM      1  O   LIG    1        6.931   6.314  -0.344  0.00  0.00    -0.330 OA
ENDROOT
BRANCH   1   2
ATOM      2  C   LIG    1        8.123   6.936  -0.461  0.00  0.00    +0.510 C 
ATOM      3  O   LIG    1        9.149   6.284  -0.489  0.00  0.00    -0.510 OA
BRANCH   2   5
ATOM      4  C   LIG    1        9.372   8.972  -0.670  0.00  0.00    +0.160 C 
ATOM      5  C   LIG    1        8.179   8.350  -0.553  0.00  0.00    -0.060 C 
BRANCH   4   8
ATOM      6  C   LIG    1       10.713  12.462  -0.975  0.00  0.00    +0.100 A 
ATOM      7  C   LIG    1       10.666  11.085  -0.881  0.00  0.00    -0.030 A 
ATOM      8  C   LIG    1        9.430  10.438  -0.765  0.00  0.00    -0.060 A 
ATOM      9  C   LIG    1        8.251  11.190  -0.733  0.00  0.00    +0.030 A 
ATOM     10  C   LIG    1        8.308  12.564  -0.822  0.00  0.00    +0.030 A 
ATOM     11  C   LIG    1        9.533  13.205  -0.943  0.00  0.00    +0.100 A 
BRANCH   6  13
ATOM     12  C   LIG    1       13.080  12.271  -1.119  0.00  0.00    +0.240 C 
ATOM     13  O   LIG    1       11.912  13.094  -1.093  0.00  0.00    -0.310 OA
ENDBRANCH   6  13
BRANCH  11  14
ATOM     14  O   LIG    1        9.583  14.559  -1.031  0.00  0.00    -0.480 OA
ATOM     15  H   LIG    1        9.656  15.006  -0.176  0.00  0.00    +0.390 HD
ENDBRANCH  11  14
ENDBRANCH   4   8
ENDBRANCH   2   5
ENDBRANCH   1   2
BRANCH   1  16
ATOM     16  C   LIG    1        6.949   4.888  -0.257  0.00  0.00    +0.260 C 
BRANCH  16  17
ATOM     17  C   LIG    1        5.538   4.374  -0.131  0.00  0.00    +0.510 C 
ATOM     18  N   LIG    1        5.310   3.050  -0.034  0.00  0.00    -0.670 N 
ATOM     19  H   LIG    1        6.055   2.432   0.032  0.00  0.00    +0.410 HD
ATOM     20  O   LIG    1        4.609   5.153  -0.118  0.00  0.00    -0.490 OA
BRANCH  18  21
ATOM     21  C   LIG    1        3.997   2.565  -0.029  0.00  0.00    +0.140 A 
ATOM     22  C   LIG    1        3.013   3.212  -0.766  0.00  0.00    +0.010 A 
ATOM     23  C   LIG    1        1.719   2.731  -0.758  0.00  0.00    +0.030 A 
ATOM     24  C   LIG    1        1.401   1.607  -0.018  0.00  0.00    -0.090 A 
ATOM     25  C   LIG    1        2.377   0.963   0.720  0.00  0.00    +0.030 A 
ATOM     26  C   LIG    1        3.675   1.436   0.713  0.00  0.00    -0.010 A 
BRANCH  24  27
ATOM     27  C   LIG    1       -0.013   1.085  -0.012  0.00  0.00    +0.020 C 
ATOM     28  C   LIG    1       -0.030  -0.346  -0.551  0.00  0.00    +0.040 C 
ATOM     29  C   LIG    1       -0.554   1.098   1.419  0.00  0.00    +0.030 C 
ENDBRANCH  24  27
ENDBRANCH  18  21
ENDBRANCH  16  17
ENDBRANCH   1  16
TORSDOF 9
