REMARK  Name = ZINCtV00001bB3oH.0
REMARK                            x       y       z     vdW  Elec       q    Type
REMARK                         _______ _______ _______ _____ _____    ______ ____
ROOT
ATOM      1  N   LIG    1       -4.542   4.086   0.013  0.00  0.00    -0.410 N 
ATOM      2  C   LIG    1       -5.709   3.442  -0.294  0.00  0.00    +0.160 A 
ATOM      3  C   LIG    1       -6.748   4.190  -0.689  0.00  0.00    -0.040 A 
ATOM      4  S   LIG    1       -6.168   5.865  -0.674  0.00  0.00    +0.130 S 
ATOM      5  C   LIG    1       -4.536   5.447  -0.121  0.00  0.00    +0.360 A 
ATOM      6  N   LIG    1       -3.533   6.272   0.112  0.00  0.00    -0.510 NA
ENDROOT
BRANCH   2   7
ATOM      7  C   LIG    1       -5.822   1.971  -0.189  0.00  0.00    -0.050 A 
ATOM      8  C   LIG    1       -6.980   1.393   0.332  0.00  0.00    +0.060 A 
ATOM      9  C   LIG    1       -7.079   0.020   0.428  0.00  0.00    +0.030 A 
ATOM     10  C   LIG    1       -6.034  -0.783   0.010  0.00  0.00    +0.060 A 
ATOM     11  C   LIG    1       -4.882  -0.216  -0.508  0.00  0.00    -0.090 A 
ATOM     12 BR   LIG    1       -3.458  -1.323  -1.077  0.00  0.00    -0.040 Br
ATOM     13  C   LIG    1       -4.773   1.156  -0.615  0.00  0.00    +0.090 A 
ENDBRANCH   2   7
BRANCH   6  14
ATOM     14  C   LIG    1       -2.280   5.776   0.346  0.00  0.00    +0.110 A 
ATOM     15  C   LIG    1       -1.677   4.926  -0.585  0.00  0.00    +0.010 A 
ATOM     16  C   LIG    1       -0.413   4.430  -0.342  0.00  0.00    +0.040 A 
ATOM     17  C   LIG    1        0.257   4.771   0.820  0.00  0.00    +0.010 A 
ATOM     18  C   LIG    1       -0.334   5.612   1.746  0.00  0.00    +0.030 A 
ATOM     19  C   LIG    1       -1.595   6.121   1.515  0.00  0.00    -0.050 A 
ATOM     20 CL   LIG    1       -2.332   7.182   2.675  0.00  0.00    -0.060 Cl
ENDBRANCH   6  14
BRANCH   1  22
ATOM     21  C   LIG    1       -3.082   3.376   1.697  0.00  0.00    +0.320 C 
ATOM     22  N   LIG    1       -3.406   3.385   0.439  0.00  0.00    -0.260 NA
BRANCH  21  26
ATOM     23  C   LIG    1        0.056   0.864   3.062  0.00  0.00    +0.140 A 
ATOM     24  C   LIG    1       -0.362   0.793   1.739  0.00  0.00    -0.020 A 
ATOM     25  C   LIG    1       -1.376   1.610   1.290  0.00  0.00    +0.100 A 
ATOM     26  C   LIG    1       -1.992   2.504   2.171  0.00  0.00    -0.080 A 
ATOM     27  C   LIG    1       -1.568   2.572   3.500  0.00  0.00    +0.070 A 
ATOM     28  C   LIG    1       -0.549   1.755   3.939  0.00  0.00    -0.010 A 
BRANCH  23  29
ATOM     29  O   LIG    1        1.061   0.060   3.498  0.00  0.00    -0.500 OA
ATOM     30  H   LIG    1        1.942   0.446   3.405  0.00  0.00    +0.400 HD
ENDBRANCH  23  29
ENDBRANCH  21  26
ENDBRANCH   1  22
TORSDOF 5
