REMARK  Name = ZINCrD0000073tKm.0
REMARK                            x       y       z     vdW  Elec       q    Type
REMARK                         _______ _______ _______ _____ _____    ______ ____
ROOT
ATOM      1  N   LIG    1       -1.191   1.867   0.018  0.00  0.00    -0.670 N 
ATOM      2  H   LIG    1       -1.205   2.833   0.098  0.00  0.00    +0.410 HD
ATOM      3  C   LIG    1       -0.014   1.209   0.007  0.00  0.00    +0.520 C 
ATOM      4  O   LIG    1        0.002  -0.004  -0.009  0.00  0.00    -0.490 OA
ENDROOT
BRANCH   1   8
ATOM      5  C   LIG    1       -4.768  -0.259  -0.288  0.00  0.00    +0.090 A 
ATOM      6  C   LIG    1       -3.695  -0.803   0.398  0.00  0.00    -0.010 A 
ATOM      7  C   LIG    1       -2.509  -0.099   0.499  0.00  0.00    +0.040 A 
ATOM      8  C   LIG    1       -2.393   1.154  -0.086  0.00  0.00    +0.140 A 
ATOM      9  C   LIG    1       -3.469   1.704  -0.770  0.00  0.00    -0.060 A 
ATOM     10  C   LIG    1       -4.654   0.997  -0.876  0.00  0.00    +0.120 A 
BRANCH   5  12
ATOM     11  C   LIG    1       -5.981  -2.236   0.242  0.00  0.00    +0.250 C 
ATOM     12  O   LIG    1       -5.934  -0.953  -0.386  0.00  0.00    -0.310 OA
ENDBRANCH   5  12
BRANCH  10  13
ATOM     13  O   LIG    1       -5.708   1.532  -1.549  0.00  0.00    -0.300 OA
ATOM     14  C   LIG    1       -5.520   2.825  -2.127  0.00  0.00    +0.240 C 
ENDBRANCH  10  13
ENDBRANCH   1   8
BRANCH   3  15
ATOM     15  C   LIG    1        1.280   1.980   0.007  0.00  0.00    +0.270 C 
BRANCH  15  16
ATOM     16  O   LIG    1        2.397   1.052  -0.013  0.00  0.00    -0.320 OA
BRANCH  16  17
ATOM     17  C   LIG    1        3.630   1.582  -0.015  0.00  0.00    +0.500 C 
ATOM     18  O   LIG    1        3.772   2.782  -0.000  0.00  0.00    -0.500 OA
BRANCH  17  19
ATOM     19  C   LIG    1        4.838   0.681  -0.035  0.00  0.00    -0.040 C 
ATOM     20  C   LIG    1        5.231   0.147   1.353  0.00  0.00    +0.070 C 
ATOM     21  C   LIG    1        6.105   1.404   1.501  0.00  0.00    +0.030 C 
ATOM     22  C   LIG    1        6.174   1.441  -0.035  0.00  0.00    +0.070 C 
BRANCH  19  23
ATOM     23  C   LIG    1        4.752  -0.389  -1.093  0.00  0.00    -0.080 A 
ATOM     24  C   LIG    1        5.803  -0.580  -1.969  0.00  0.00    +0.020 A 
ATOM     25  C   LIG    1        5.726  -1.564  -2.937  0.00  0.00    +0.000 A 
ATOM     26  C   LIG    1        4.594  -2.351  -3.034  0.00  0.00    +0.000 A 
ATOM     27  C   LIG    1        3.540  -2.157  -2.160  0.00  0.00    +0.000 A 
ATOM     28  C   LIG    1        3.619  -1.176  -1.190  0.00  0.00    +0.040 A 
ENDBRANCH  19  23
ENDBRANCH  17  19
ENDBRANCH  16  17
ENDBRANCH  15  16
ENDBRANCH   3  15
TORSDOF 8
