REMARK  Name = ZINCpk00000ead8k.0
REMARK                            x       y       z     vdW  Elec       q    Type
REMARK                         _______ _______ _______ _____ _____    ______ ____
ROOT
ATOM      1  N   LIG    1        1.799   2.851   3.501  0.00  0.00    -0.590 N 
ATOM      2  C   LIG    1        1.908   2.557   4.808  0.00  0.00    +0.540 C 
ATOM      3  C   LIG    1        1.528   1.113   5.050  0.00  0.00    +0.090 C 
ATOM      4  C   LIG    1        1.573   0.469   3.645  0.00  0.00    +0.010 C 
ATOM      5  O   LIG    1        2.261   3.336   5.668  0.00  0.00    -0.510 OA
ATOM      6  C   LIG    1        1.339   1.691   2.730  0.00  0.00    +0.350 C 
ENDROOT
BRANCH   6   7
ATOM      7  C   LIG    1       -0.127   1.827   2.407  0.00  0.00    +0.180 A 
ATOM      8  N   LIG    1       -1.054   2.224   3.235  0.00  0.00    -0.460 NA
ATOM      9  C   LIG    1       -2.239   2.224   2.606  0.00  0.00    +0.140 A 
ATOM     10  C   LIG    1       -2.037   1.816   1.338  0.00  0.00    +0.130 A 
ATOM     11  N   LIG    1       -0.698   1.558   1.213  0.00  0.00    -0.450 N 
ATOM     12  C   LIG    1       -0.013   1.086   0.008  0.00  0.00    +0.330 C 
ENDBRANCH   6   7
BRANCH   4  13
ATOM     13  C   LIG    1        2.921  -0.153   3.381  0.00  0.00    +0.520 C 
ATOM     14  N   LIG    1        3.313  -1.235   4.081  0.00  0.00    -0.610 N 
ATOM     15  C   LIG    1        2.430  -1.807   5.100  0.00  0.00    +0.280 C 
ATOM     16  O   LIG    1        3.652   0.321   2.537  0.00  0.00    -0.530 OA
BRANCH  14  17
ATOM     17  C   LIG    1        4.623  -1.839   3.824  0.00  0.00    +0.280 C 
BRANCH  17  18
ATOM     18  C   LIG    1        5.671  -1.189   4.731  0.00  0.00    +0.000 C 
BRANCH  18  19
ATOM     19  C   LIG    1        7.039  -1.820   4.462  0.00  0.00    -0.020 C 
ATOM     20  C   LIG    1        8.062  -1.260   5.453  0.00  0.00    +0.010 C 
ATOM     21  C   LIG    1        7.480  -1.492   3.034  0.00  0.00    +0.020 C 
ENDBRANCH  18  19
ENDBRANCH  17  18
ENDBRANCH  14  17
ENDBRANCH   4  13
BRANCH   1  22
ATOM     22  C   LIG    1        2.100   4.163   2.921  0.00  0.00    +0.320 C 
BRANCH  22  23
ATOM     23  C   LIG    1        0.836   5.024   2.925  0.00  0.00    +0.150 C 
BRANCH  23  25
ATOM     24  C   LIG    1       -0.733   6.091   4.391  0.00  0.00    +0.190 C 
ATOM     25  O   LIG    1        0.444   5.289   4.274  0.00  0.00    -0.370 OA
ENDBRANCH  23  25
ENDBRANCH  22  23
ENDBRANCH   1  22
TORSDOF 8
