REMARK  Name = ZINCtV00000L6kgq.0
REMARK                            x       y       z     vdW  Elec       q    Type
REMARK                         _______ _______ _______ _____ _____    ______ ____
ROOT
ATOM      1  N   LIG    1        3.919   2.303  -0.179  0.00  0.00    -0.470 N 
ATOM      2  C   LIG    1        4.940   1.373  -0.222  0.00  0.00    +0.060 A 
ATOM      3  C   LIG    1        6.318   1.460  -0.356  0.00  0.00    +0.010 A 
ATOM      4  C   LIG    1        7.078   0.309  -0.369  0.00  0.00    +0.040 A 
ATOM      5  C   LIG    1        6.474  -0.934  -0.249  0.00  0.00    +0.000 A 
ATOM      6  C   LIG    1        5.119  -1.041  -0.116  0.00  0.00    +0.070 A 
ATOM      7  C   LIG    1        4.327   0.112  -0.100  0.00  0.00    +0.050 A 
ATOM      8  N   LIG    1        2.994   0.325   0.015  0.00  0.00    -0.450 NA
ATOM      9  C   LIG    1        2.748   1.611  -0.028  0.00  0.00    +0.330 A 
ENDROOT
BRANCH   9  10
ATOM     10  C   LIG    1        1.405   2.224   0.067  0.00  0.00    -0.020 A 
ATOM     11  C   LIG    1        1.015   3.202  -0.848  0.00  0.00    +0.030 A 
ATOM     12  C   LIG    1       -0.239   3.769  -0.754  0.00  0.00    +0.030 A 
ATOM     13  C   LIG    1       -1.110   3.371   0.244  0.00  0.00    +0.050 A 
ATOM     14  C   LIG    1       -0.733   2.397   1.151  0.00  0.00    +0.030 A 
ATOM     15  C   LIG    1        0.521   1.825   1.073  0.00  0.00    +0.010 A 
ATOM     16 CL   LIG    1        0.996   0.608   2.216  0.00  0.00    -0.040 Cl
ENDBRANCH   9  10
BRANCH   1  17
ATOM     17  C   LIG    1        4.064   3.757  -0.275  0.00  0.00    +0.350 C 
BRANCH  17  19
ATOM     18  O   LIG    1        4.426   3.586   2.051  0.00  0.00    -0.480 OA
ATOM     19  C   LIG    1        4.350   4.324   1.092  0.00  0.00    +0.500 C 
ATOM     20  N   LIG    1        4.522   5.652   1.248  0.00  0.00    -0.660 N 
ATOM     21  H   LIG    1        4.389   6.250   0.496  0.00  0.00    +0.420 HD
BRANCH  20  22
ATOM     22  C   LIG    1        4.893   6.167   2.496  0.00  0.00    +0.180 A 
ATOM     23  C   LIG    1        5.478   5.340   3.445  0.00  0.00    +0.070 A 
ATOM     24  C   LIG    1        5.844   5.852   4.676  0.00  0.00    -0.000 A 
ATOM     25  C   LIG    1        5.627   7.189   4.963  0.00  0.00    -0.040 A 
ATOM     26  C   LIG    1        5.045   8.016   4.019  0.00  0.00    +0.100 A 
ATOM     27 CL   LIG    1        6.087   7.828   6.510  0.00  0.00    -0.030 Cl
ATOM     28 CL   LIG    1        6.574   4.817   5.863  0.00  0.00    -0.030 Cl
ATOM     29  C   LIG    1        4.682   7.510   2.785  0.00  0.00    -0.060 A 
ATOM     30 CL   LIG    1        3.957   8.550   1.599  0.00  0.00    -0.040 Cl
ENDBRANCH  20  22
ENDBRANCH  17  19
ENDBRANCH   1  17
TORSDOF 4
