REMARK  Name = ZINCrD00000rNemK.0
REMARK                            x       y       z     vdW  Elec       q    Type
REMARK                         _______ _______ _______ _____ _____    ______ ____
ROOT
ATOM      1  C   LIG    1       -1.133   6.363   0.023  0.00  0.00    +0.560 C 
ATOM      2  N   LIG    1       -1.073   7.705  -0.077  0.00  0.00    -0.620 N 
ATOM      3  C   LIG    1        0.220   8.396  -0.192  0.00  0.00    +0.300 C 
ATOM      4  C   LIG    1        0.155   9.344  -1.400  0.00  0.00    +0.180 C 
ATOM      5  N   LIG    1       -1.010  10.227  -1.260  0.00  0.00    -0.490 N 
ATOM      6  C   LIG    1       -2.264   9.462  -1.277  0.00  0.00    +0.190 C 
ATOM      7  C   LIG    1       -2.299   8.519  -0.070  0.00  0.00    +0.290 C 
ATOM      8  O   LIG    1       -0.108   5.712   0.106  0.00  0.00    -0.550 OA
ENDROOT
BRANCH   5   9
ATOM      9  C   LIG    1       -1.013  11.213  -2.250  0.00  0.00    +0.110 A 
ATOM     10  C   LIG    1       -2.114  11.359  -3.085  0.00  0.00    -0.050 A 
ATOM     11  C   LIG    1       -2.113  12.335  -4.062  0.00  0.00    +0.030 A 
ATOM     12  C   LIG    1       -1.018  13.166  -4.211  0.00  0.00    -0.030 A 
ATOM     13  C   LIG    1        0.080  13.023  -3.382  0.00  0.00    -0.060 A 
ATOM     14  C   LIG    1        1.271  13.931  -3.547  0.00  0.00    +0.090 C 
ATOM     15  C   LIG    1        0.084  12.053  -2.399  0.00  0.00    -0.020 A 
ENDBRANCH   5   9
BRANCH   1  17
ATOM     16  C   LIG    1       -2.451   4.358   0.024  0.00  0.00    +0.170 C 
ATOM     17  C   LIG    1       -2.391   5.708   0.033  0.00  0.00    -0.130 C 
BRANCH  16  21
ATOM     18  C   LIG    1       -6.215   2.400   0.059  0.00  0.00    +0.190 A 
ATOM     19  C   LIG    1       -6.153   3.790   0.063  0.00  0.00    -0.110 A 
ATOM     20  C   LIG    1       -4.935   4.430   0.048  0.00  0.00    +0.120 A 
ATOM     21  C   LIG    1       -3.752   3.680   0.034  0.00  0.00    -0.160 A 
ATOM     22  C   LIG    1       -3.818   2.276   0.025  0.00  0.00    +0.200 A 
ATOM     23  C   LIG    1       -5.049   1.647   0.040  0.00  0.00    -0.110 A 
BRANCH  18  25
ATOM     24  C   LIG    1       -8.581   2.612   0.092  0.00  0.00    +0.240 C 
ATOM     25  O   LIG    1       -7.421   1.778   0.073  0.00  0.00    -0.310 OA
ENDBRANCH  18  25
BRANCH  22  26
ATOM     26  O   LIG    1       -2.677   1.541   0.006  0.00  0.00    -0.300 OA
ATOM     27  C   LIG    1       -2.822   0.120   0.004  0.00  0.00    +0.250 C 
ENDBRANCH  22  26
ENDBRANCH  16  21
ENDBRANCH   1  17
TORSDOF 5
