REMARK  Name = ZINCrH00000No4E8.0
REMARK                            x       y       z     vdW  Elec       q    Type
REMARK                         _______ _______ _______ _____ _____    ______ ____
ROOT
ATOM      1  C   LIG    1       -0.223   1.771   2.415  0.00  0.00    +0.560 C 
ATOM      2  N   LIG    1       -0.746   1.583   1.187  0.00  0.00    -0.610 N 
ATOM      3  C   LIG    1       -0.013   1.086   0.008  0.00  0.00    +0.250 C 
ATOM      4  C   LIG    1       -0.806   1.621  -1.210  0.00  0.00    +0.040 C 
ATOM      5  C   LIG    1       -2.269   1.504  -0.705  0.00  0.00    +0.050 C 
ATOM      6  C   LIG    1       -2.143   1.837   0.797  0.00  0.00    +0.270 C 
ATOM      7  O   LIG    1       -0.925   2.187   3.317  0.00  0.00    -0.530 OA
ENDROOT
BRANCH   6   8
ATOM      8  C   LIG    1       -3.067   0.955   1.597  0.00  0.00    -0.080 A 
ATOM      9  C   LIG    1       -2.698  -0.345   1.888  0.00  0.00    +0.030 A 
ATOM     10  C   LIG    1       -3.541  -1.156   2.626  0.00  0.00    +0.020 A 
ATOM     11  C   LIG    1       -4.764  -0.671   3.064  0.00  0.00    +0.050 A 
ATOM     12  O   LIG    1       -5.587  -1.484   3.780  0.00  0.00    -0.310 OA
ATOM     13  C   LIG    1       -6.635  -0.849   4.520  0.00  0.00    +0.220 C 
ATOM     14  C   LIG    1       -7.314   0.178   3.604  0.00  0.00    +0.220 C 
ATOM     15  O   LIG    1       -6.330   1.132   3.192  0.00  0.00    -0.310 OA
ATOM     16  C   LIG    1       -5.136   0.635   2.767  0.00  0.00    +0.050 A 
ATOM     17  C   LIG    1       -4.284   1.445   2.032  0.00  0.00    +0.030 A 
ENDBRANCH   6   8
BRANCH   1  19
ATOM     18  C   LIG    1        1.714   1.665   3.890  0.00  0.00    +0.110 C 
ATOM     19  C   LIG    1        1.191   1.476   2.662  0.00  0.00    -0.070 C 
BRANCH  18  23
ATOM     20  C   LIG    1        5.806   0.810   4.608  0.00  0.00    -0.020 A 
ATOM     21  C   LIG    1        5.000   1.288   5.645  0.00  0.00    +0.070 A 
ATOM     22  C   LIG    1        3.677   1.564   5.414  0.00  0.00    +0.040 A 
ATOM     23  C   LIG    1        3.134   1.368   4.139  0.00  0.00    -0.040 A 
ATOM     24  C   LIG    1        3.940   0.885   3.103  0.00  0.00    +0.040 A 
ATOM     25  C   LIG    1        5.264   0.614   3.334  0.00  0.00    +0.070 A 
BRANCH  20  27
ATOM     26  N   LIG    1        8.283   0.291   5.043  0.00  0.00    -0.410 NA
ATOM     27  C   LIG    1        7.187   0.520   4.850  0.00  0.00    +0.250 C 
ENDBRANCH  20  27
ENDBRANCH  18  23
ENDBRANCH   1  19
TORSDOF 4
