REMARK  Name = ZINCpk00000KfKNQ.0
REMARK                            x       y       z     vdW  Elec       q    Type
REMARK                         _______ _______ _______ _____ _____    ______ ____
ROOT
ATOM      1  N   LIG    1       -0.789   3.056   0.025  0.00  0.00    -0.560 N 
ATOM      2  C   LIG    1       -1.101   1.755   0.016  0.00  0.00    +0.710 C 
ATOM      3  N   LIG    1       -0.011   0.966   0.007  0.00  0.00    -0.720 N 
ATOM      4  H   LIG    1        0.002  -0.004   0.002  0.00  0.00    +0.440 HD
ATOM      5  C   LIG    1        1.158   1.862   0.001  0.00  0.00    +0.230 C 
ATOM      6  O   LIG    1       -2.240   1.333   0.019  0.00  0.00    -0.540 OA
ATOM      7  C   LIG    1        0.545   3.248   0.013  0.00  0.00    +0.530 C 
ATOM      8  O   LIG    1        1.132   4.309   0.014  0.00  0.00    -0.460 OA
ENDROOT
BRANCH   1   9
ATOM      9  C   LIG    1       -1.776   4.138   0.038  0.00  0.00    +0.360 C 
BRANCH   9  11
ATOM     10  N   LIG    1       -3.023   5.495  -1.612  0.00  0.00    -0.610 N 
ATOM     11  C   LIG    1       -2.128   4.516  -1.378  0.00  0.00    +0.500 C 
ATOM     12  O   LIG    1       -1.605   3.937  -2.307  0.00  0.00    -0.530 OA
ATOM     13  C   LIG    1       -3.654   6.194  -0.490  0.00  0.00    +0.280 C 
BRANCH  10  15
ATOM     14  C   LIG    1       -4.862   5.649  -3.216  0.00  0.00    +0.030 C 
ATOM     15  C   LIG    1       -3.365   5.862  -2.989  0.00  0.00    +0.230 C 
ATOM     16  C   LIG    1       -3.017   7.333  -3.226  0.00  0.00    +0.030 C 
ENDBRANCH  10  15
ENDBRANCH   9  11
ENDBRANCH   1   9
BRANCH   5  17
ATOM     17  C   LIG    1        1.990   1.653  -1.266  0.00  0.00    +0.150 C 
BRANCH  17  18
ATOM     18  C   LIG    1        2.599   0.275  -1.245  0.00  0.00    -0.180 A 
ATOM     19  C   LIG    1        3.831  -0.047  -0.818  0.00  0.00    +0.240 A 
ATOM     20  N   LIG    1        4.032  -1.395  -0.947  0.00  0.00    -0.590 N 
ATOM     21  H   LIG    1        4.845  -1.863  -0.701  0.00  0.00    +0.420 HD
ATOM     22  C   LIG    1        2.909  -1.986  -1.481  0.00  0.00    +0.100 A 
ATOM     23  C   LIG    1        2.585  -3.297  -1.816  0.00  0.00    -0.010 A 
ATOM     24  C   LIG    1        1.346  -3.580  -2.349  0.00  0.00    +0.030 A 
ATOM     25  C   LIG    1        0.416  -2.571  -2.554  0.00  0.00    -0.020 A 
ATOM     26  C   LIG    1        0.714  -1.277  -2.232  0.00  0.00    +0.040 A 
ATOM     27  C   LIG    1        1.963  -0.967  -1.692  0.00  0.00    -0.100 A 
ENDBRANCH  17  18
ENDBRANCH   5  17
TORSDOF 5
