REMARK  Name = ZINCBI0000000f0d.0
REMARK                            x       y       z     vdW  Elec       q    Type
REMARK                         _______ _______ _______ _____ _____    ______ ____
ROOT
ATOM      1  C   LIG    1        0.662   7.663  -2.852  0.00  0.00    +0.270 C 
ATOM      2  C   LIG    1        1.994   7.302  -2.164  0.00  0.00    +0.110 C 
ATOM      3  C   LIG    1        1.704   5.985  -1.479  0.00  0.00    +0.240 C 
ATOM      4  N   LIG    1        0.485   5.639  -1.710  0.00  0.00    -0.280 NA
ATOM      5  N   LIG    1       -0.225   6.544  -2.496  0.00  0.00    -0.450 N 
ATOM      6  C   LIG    1       -1.512   6.414  -2.874  0.00  0.00    +0.540 C 
ATOM      7  O   LIG    1       -2.030   7.264  -3.567  0.00  0.00    -0.510 OA
ENDROOT
BRANCH   1  12
ATOM      8  C   LIG    1       -0.193  11.330  -2.528  0.00  0.00    +0.140 A 
ATOM      9  C   LIG    1       -0.868  11.348  -1.317  0.00  0.00    -0.070 A 
ATOM     10  C   LIG    1       -1.046  10.176  -0.608  0.00  0.00    +0.060 A 
ATOM     11  C   LIG    1       -0.551   8.985  -1.105  0.00  0.00    -0.040 A 
ATOM     12  C   LIG    1        0.123   8.963  -2.313  0.00  0.00    -0.060 A 
ATOM     13  C   LIG    1        0.307  10.134  -3.023  0.00  0.00    +0.000 A 
BRANCH   8  15
ATOM     14  C   LIG    1       -0.553  13.676  -2.655  0.00  0.00    +0.250 C 
ATOM     15  O   LIG    1       -0.017  12.482  -3.227  0.00  0.00    -0.310 OA
ENDBRANCH   8  15
ENDBRANCH   1  12
BRANCH   3  16
ATOM     16  C   LIG    1        2.670   5.214  -0.676  0.00  0.00    -0.200 A 
ATOM     17  C   LIG    1        3.970   5.552  -0.415  0.00  0.00    +0.310 A 
ATOM     18  N   LIG    1        4.508   4.578   0.348  0.00  0.00    -0.300 N 
ATOM     19  N   LIG    1        3.546   3.594   0.595  0.00  0.00    -0.260 NA
ATOM     20  C   LIG    1        2.424   3.938   0.000  0.00  0.00    +0.160 A 
BRANCH  18  21
ATOM     21  C   LIG    1        5.827   4.557   0.820  0.00  0.00    +0.140 A 
ATOM     22  C   LIG    1        6.696   5.593   0.503  0.00  0.00    +0.000 A 
ATOM     23  C   LIG    1        7.994   5.571   0.975  0.00  0.00    +0.050 A 
ATOM     24  C   LIG    1        8.432   4.515   1.752  0.00  0.00    +0.010 A 
ATOM     25  C   LIG    1        7.570   3.479   2.064  0.00  0.00    +0.050 A 
ATOM     26  C   LIG    1        6.269   3.497   1.601  0.00  0.00    +0.030 A 
ENDBRANCH  18  21
BRANCH  20  27
ATOM     27  C   LIG    1        1.153   3.175   0.008  0.00  0.00    -0.020 A 
ATOM     28  C   LIG    1        1.174   1.781   0.000  0.00  0.00    +0.050 A 
ATOM     29  C   LIG    1       -0.013   1.076   0.008  0.00  0.00    +0.010 A 
ATOM     30  C   LIG    1       -1.221   1.750   0.017  0.00  0.00    +0.020 A 
ATOM     31  C   LIG    1       -1.247   3.133   0.030  0.00  0.00    -0.040 A 
ATOM     32  C   LIG    1       -0.067   3.848   0.022  0.00  0.00    +0.070 A 
ENDBRANCH  20  27
ENDBRANCH   3  16
BRANCH   6  33
ATOM     33  C   LIG    1       -2.307   5.211  -2.436  0.00  0.00    +0.310 C 
BRANCH  33  34
ATOM     34  N   LIG    1       -3.671   5.303  -2.974  0.00  0.00    -0.500 N 
ATOM     35  H   LIG    1       -3.633   5.333  -3.982  0.00  0.00    +0.440 HD
ATOM     36  H   LIG    1       -4.113   6.142  -2.630  0.00  0.00    +0.430 HD
BRANCH  34  37
ATOM     37  C   LIG    1       -4.446   4.131  -2.548  0.00  0.00    +0.290 C 
BRANCH  37  38
ATOM     38  C   LIG    1       -5.867   4.227  -3.108  0.00  0.00    +0.220 C 
BRANCH  38  39
ATOM     39  O   LIG    1       -5.822   4.152  -4.535  0.00  0.00    -0.580 OA
ATOM     40  H   LIG    1       -6.689   4.206  -4.959  0.00  0.00    +0.410 HD
ENDBRANCH  38  39
ENDBRANCH  37  38
ENDBRANCH  34  37
ENDBRANCH  33  34
ENDBRANCH   6  33
TORSDOF 10
