REMARK  Name = ZINCpk000004O9Fz.0
REMARK                            x       y       z     vdW  Elec       q    Type
REMARK                         _______ _______ _______ _____ _____    ______ ____
ROOT
ATOM      1  C   LIG    1       -2.808   3.885  -0.654  0.00  0.00    +0.520 C 
ATOM      2  N   LIG    1       -1.505   3.753  -0.339  0.00  0.00    -0.600 N 
ATOM      3  C   LIG    1       -0.607   3.192  -1.323  0.00  0.00    +0.280 C 
ATOM      4  C   LIG    1       -0.560   1.652  -1.166  0.00  0.00    +0.010 C 
ATOM      5  C   LIG    1        0.161   1.286   0.062  0.00  0.00    +0.020 C 
ATOM      6  C   LIG    1       -0.500   1.776   1.347  0.00  0.00    +0.020 C 
ATOM      7  C   LIG    1       -0.058   3.194   1.625  0.00  0.00    +0.250 C 
ATOM      8  C   LIG    1       -1.053   4.187   0.998  0.00  0.00    +0.250 C 
ATOM      9  O   LIG    1       -3.192   3.616  -1.773  0.00  0.00    -0.500 OA
ENDROOT
BRANCH   1  14
ATOM     10  C   LIG    1       -5.314   7.697   1.567  0.00  0.00    +0.180 C 
ATOM     11  C   LIG    1       -4.944   6.393   0.908  0.00  0.00    +0.090 C 
ATOM     12  N   LIG    1       -5.763   5.556   0.399  0.00  0.00    -0.280 NA
ATOM     13  O   LIG    1       -5.127   4.422  -0.156  0.00  0.00    -0.170 OA
ATOM     14  C   LIG    1       -3.790   4.368   0.382  0.00  0.00    +0.130 C 
ATOM     15  C   LIG    1       -3.537   5.854   0.736  0.00  0.00    +0.080 C 
ENDBRANCH   1  14
BRANCH   7  16
ATOM     16  N   LIG    1       -0.005   3.409   3.073  0.00  0.00    -0.690 N 
ATOM     17  H   LIG    1       -0.557   2.873   3.664  0.00  0.00    +0.420 HD
BRANCH  16  18
ATOM     18  C   LIG    1        0.834   4.377   3.598  0.00  0.00    +0.570 A 
ATOM     19  N   LIG    1        1.580   5.099   2.776  0.00  0.00    -0.560 NA
ATOM     20  C   LIG    1        2.394   6.034   3.243  0.00  0.00    +0.390 A 
ATOM     21  C   LIG    1        2.452   6.247   4.606  0.00  0.00    -0.310 A 
ATOM     22  C   LIG    1        3.236   7.193   5.481  0.00  0.00    +0.290 C 
ATOM     23  O   LIG    1        3.170   6.647   6.812  0.00  0.00    -0.350 OA
ATOM     24  C   LIG    1        1.927   5.921   6.856  0.00  0.00    +0.310 C 
ATOM     25  C   LIG    1        1.657   5.473   5.441  0.00  0.00    +0.190 A 
ATOM     26  N   LIG    1        0.864   4.561   4.912  0.00  0.00    -0.550 NA
ENDBRANCH  16  18
ENDBRANCH   7  16
TORSDOF 3
