REMARK  Name = ZINCvU0000000Jzt.0
REMARK                            x       y       z     vdW  Elec       q    Type
REMARK                         _______ _______ _______ _____ _____    ______ ____
ROOT
ATOM      1  C   LIG    1        8.552   1.005  -2.154  0.00  0.00    +0.220 C 
ENDROOT
BRANCH   1   5
ATOM      2  C   LIG    1       11.461   3.138  -2.786  0.00  0.00    +0.110 A 
ATOM      3  C   LIG    1       12.184   2.541  -1.817  0.00  0.00    -0.060 A 
ATOM      4  S   LIG    1       11.178   1.296  -1.081  0.00  0.00    +0.220 S 
ATOM      5  C   LIG    1        9.896   1.687  -2.142  0.00  0.00    +0.020 A 
ATOM      6  N   LIG    1       10.238   2.649  -2.927  0.00  0.00    -0.440 NA
BRANCH   2  10
ATOM      7  C   LIG    1       12.982   6.316  -5.176  0.00  0.00    +0.110 A 
ATOM      8  C   LIG    1       13.777   5.744  -4.196  0.00  0.00    -0.030 A 
ATOM      9  C   LIG    1       13.285   4.716  -3.416  0.00  0.00    +0.030 A 
ATOM     10  C   LIG    1       11.990   4.245  -3.620  0.00  0.00    -0.020 A 
ATOM     11  C   LIG    1       11.189   4.820  -4.606  0.00  0.00    +0.010 A 
ATOM     12  C   LIG    1       11.685   5.852  -5.381  0.00  0.00    +0.100 A 
BRANCH   7  14
ATOM     13  C   LIG    1       14.808   7.756  -5.676  0.00  0.00    +0.240 C 
ATOM     14  O   LIG    1       13.469   7.330  -5.939  0.00  0.00    -0.300 OA
ENDBRANCH   7  14
BRANCH  12  15
ATOM     15  O   LIG    1       10.906   6.415  -6.344  0.00  0.00    -0.310 OA
ATOM     16  C   LIG    1        9.586   5.889  -6.500  0.00  0.00    +0.240 C 
ENDBRANCH  12  15
ENDBRANCH   2  10
ENDBRANCH   1   5
BRANCH   1  17
ATOM     17  C   LIG    1        7.893   1.172  -0.808  0.00  0.00    +0.410 C 
ATOM     18  O   LIG    1        8.571   1.357   0.180  0.00  0.00    -0.420 OA
BRANCH  17  19
ATOM     19  C   LIG    1        6.429   1.111  -0.695  0.00  0.00    -0.170 A 
ATOM     20  C   LIG    1        5.816   1.266   0.555  0.00  0.00    +0.090 A 
ATOM     21  C   LIG    1        4.456   1.208   0.659  0.00  0.00    +0.010 A 
ATOM     22  C   LIG    1        3.675   0.996  -0.481  0.00  0.00    +0.010 A 
ATOM     23  C   LIG    1        4.286   0.836  -1.728  0.00  0.00    +0.010 A 
ATOM     24  C   LIG    1        5.646   0.898  -1.836  0.00  0.00    +0.060 A 
BRANCH  22  25
ATOM     25  C   LIG    1        2.205   0.934  -0.367  0.00  0.00    -0.120 C 
ATOM     26  C   LIG    1        1.437   1.948  -0.001  0.00  0.00    -0.010 C 
ATOM     27  C   LIG    1       -0.019   1.542   0.011  0.00  0.00    +0.060 C 
ATOM     28  C   LIG    1        0.002  -0.004   0.002  0.00  0.00    +0.020 C 
ATOM     29  C   LIG    1        1.372  -0.294  -0.652  0.00  0.00    +0.060 C 
ENDBRANCH  22  25
ENDBRANCH  17  19
ENDBRANCH   1  17
BRANCH   1  30
ATOM     30  C   LIG    1        8.731  -0.428  -2.438  0.00  0.00    +0.200 C 
ATOM     31  N   LIG    1        8.869  -1.534  -2.658  0.00  0.00    -0.370 NA
ENDBRANCH   1  30
TORSDOF 8
