REMARK  Name = ZINCqH0000007NCh.0
REMARK                            x       y       z     vdW  Elec       q    Type
REMARK                         _______ _______ _______ _____ _____    ______ ____
ROOT
ATOM      1  S   LIG    1       -0.859  -1.916   2.521  0.00  0.00    +0.100 S 
ENDROOT
BRANCH   1   6
ATOM      2  N   LIG    1       -1.203  -0.724   0.010  0.00  0.00    -0.410 N 
ATOM      3  C   LIG    1       -2.162  -0.743  -0.967  0.00  0.00    +0.390 A 
ATOM      4  N   LIG    1       -3.111  -1.539  -0.563  0.00  0.00    -0.280 NA
ATOM      5  N   LIG    1       -2.826  -2.015   0.597  0.00  0.00    -0.300 NA
ATOM      6  C   LIG    1       -1.666  -1.549   0.998  0.00  0.00    +0.160 A 
BRANCH   2  12
ATOM      7  C   LIG    1        1.220  -0.680  -0.013  0.00  0.00    +0.150 A 
ATOM      8  C   LIG    1        2.406   0.035  -0.021  0.00  0.00    -0.060 A 
ATOM      9  C   LIG    1        2.379   1.418  -0.013  0.00  0.00    +0.080 A 
ATOM     10  C   LIG    1        1.171   2.089   0.002  0.00  0.00    -0.010 A 
ATOM     11  C   LIG    1       -0.017   1.382   0.010  0.00  0.00    +0.080 A 
ATOM     12  C   LIG    1        0.002  -0.004   0.002  0.00  0.00    +0.060 A 
BRANCH   7  14
ATOM     13  C   LIG    1        2.529  -2.665  -0.036  0.00  0.00    +0.250 C 
ATOM     14  O   LIG    1        1.244  -2.040  -0.020  0.00  0.00    -0.300 OA
ENDBRANCH   7  14
ENDBRANCH   2  12
ENDBRANCH   1   6
BRANCH   1  15
ATOM     15  C   LIG    1       -2.070  -3.044   3.254  0.00  0.00    +0.100 C 
BRANCH  15  16
ATOM     16  C   LIG    1       -1.578  -3.501   4.603  0.00  0.00    +0.530 C 
ATOM     17  N   LIG    1       -2.321  -4.352   5.339  0.00  0.00    -0.650 N 
ATOM     18  H   LIG    1       -3.173  -4.669   5.000  0.00  0.00    +0.420 HD
ATOM     19  O   LIG    1       -0.513  -3.104   5.027  0.00  0.00    -0.450 OA
BRANCH  17  20
ATOM     20  C   LIG    1       -1.865  -4.775   6.587  0.00  0.00    +0.380 A 
ATOM     21  N   LIG    1       -0.700  -4.343   7.041  0.00  0.00    -0.450 NA
ATOM     22  C   LIG    1       -0.235  -4.714   8.218  0.00  0.00    +0.340 A 
ATOM     23  C   LIG    1       -0.948  -5.584   9.021  0.00  0.00    -0.110 A 
ATOM     24  C   LIG    1       -2.174  -6.066   8.578  0.00  0.00    +0.130 A 
ATOM     25 CL   LIG    1       -0.320  -6.069  10.565  0.00  0.00    -0.040 Cl
ATOM     26  C   LIG    1       -2.638  -5.654   7.341  0.00  0.00    -0.120 A 
ATOM     27 CL   LIG    1       -4.162  -6.224   6.738  0.00  0.00    -0.040 Cl
ENDBRANCH  17  20
ENDBRANCH  15  16
ENDBRANCH   1  15
TORSDOF 6
