REMARK  Name = ZINCpk00000xJmwx.0
REMARK                            x       y       z     vdW  Elec       q    Type
REMARK                         _______ _______ _______ _____ _____    ______ ____
ROOT
ATOM      1  N   LIG    1        2.765   0.354   0.834  0.00  0.00    -0.660 N 
ATOM      2  H   LIG    1        2.520  -0.178   0.060  0.00  0.00    +0.420 HD
ATOM      3  C   LIG    1        2.120   1.510   1.087  0.00  0.00    +0.530 C 
ATOM      4  O   LIG    1        2.358   2.127   2.104  0.00  0.00    -0.510 OA
ENDROOT
BRANCH   1   8
ATOM      5  C   LIG    1        5.817  -0.928   3.374  0.00  0.00    +0.090 A 
ATOM      6  C   LIG    1        5.618   0.425   3.156  0.00  0.00    -0.010 A 
ATOM      7  C   LIG    1        4.607   0.850   2.315  0.00  0.00    +0.020 A 
ATOM      8  C   LIG    1        3.789  -0.078   1.686  0.00  0.00    +0.150 A 
ATOM      9  C   LIG    1        3.982  -1.436   1.907  0.00  0.00    -0.060 A 
ATOM     10  C   LIG    1        4.998  -1.862   2.746  0.00  0.00    +0.120 A 
BRANCH   5  12
ATOM     11  C   LIG    1        7.614  -0.332   4.814  0.00  0.00    +0.250 C 
ATOM     12  O   LIG    1        6.812  -1.345   4.203  0.00  0.00    -0.310 OA
ENDBRANCH   5  12
BRANCH  10  13
ATOM     13  O   LIG    1        5.192  -3.191   2.959  0.00  0.00    -0.300 OA
ATOM     14  C   LIG    1        4.314  -4.092   2.281  0.00  0.00    +0.240 C 
ENDBRANCH  10  13
ENDBRANCH   1   8
BRANCH   3  15
ATOM     15  C   LIG    1        1.101   2.035   0.108  0.00  0.00    +0.000 C 
ATOM     16  C   LIG    1        0.432   3.317   0.655  0.00  0.00    +0.100 C 
ATOM     17  C   LIG    1       -1.020   3.152   0.154  0.00  0.00    +0.280 C 
ATOM     18  N   LIG    1       -1.216   1.707  -0.015  0.00  0.00    -0.520 N 
ATOM     19  C   LIG    1       -0.041   1.055  -0.044  0.00  0.00    +0.520 C 
ATOM     20  O   LIG    1        0.085  -0.144  -0.178  0.00  0.00    -0.520 OA
BRANCH  18  21
ATOM     21  C   LIG    1       -2.473   1.084  -0.128  0.00  0.00    -0.000 A 
ATOM     22  C   LIG    1       -2.695  -0.246  -0.281  0.00  0.00    +0.240 A 
ATOM     23  N   LIG    1       -4.039  -0.432  -0.349  0.00  0.00    -0.370 N 
ATOM     24  N   LIG    1       -4.653   0.821  -0.235  0.00  0.00    -0.280 NA
ATOM     25  C   LIG    1       -4.724  -1.717  -0.513  0.00  0.00    +0.360 C 
ATOM     26  C   LIG    1       -3.720   1.727  -0.097  0.00  0.00    +0.230 A 
ENDBRANCH  18  21
ENDBRANCH   3  15
TORSDOF 5
