REMARK  Name = ZINCrD000000BalF.0
REMARK                            x       y       z     vdW  Elec       q    Type
REMARK                         _______ _______ _______ _____ _____    ______ ____
ROOT
ATOM      1  C   LIG    1       -1.292   1.522   0.102  0.00  0.00    +0.220 A 
ATOM      2  C   LIG    1       -1.457   2.900   0.053  0.00  0.00    +0.010 A 
ATOM      3  C   LIG    1       -2.723   3.446   0.140  0.00  0.00    +0.150 A 
ATOM      4  C   LIG    1       -3.824   2.622   0.289  0.00  0.00    -0.680 A 
ATOM      5  C   LIG    1       -3.662   1.250   0.345  0.00  0.00    +0.150 A 
ATOM      6  C   LIG    1       -2.399   0.698   0.251  0.00  0.00    -0.030 A 
ENDROOT
BRANCH   1   9
ATOM      7  O   LIG    1        0.635   2.524  -1.437  0.00  0.00    -0.560 OA
ATOM      8  C   LIG    1        0.927   1.560  -0.757  0.00  0.00    +0.700 C 
ATOM      9  N   LIG    1       -0.011   0.966   0.007  0.00  0.00    -0.690 N 
ATOM     10  H   LIG    1        0.200   0.151   0.489  0.00  0.00    +0.410 HD
ATOM     11  N   LIG    1        2.188   1.083  -0.768  0.00  0.00    -0.740 N 
ATOM     12  H   LIG    1        2.420   0.314  -0.226  0.00  0.00    +0.400 HD
BRANCH  11  13
ATOM     13  C   LIG    1        3.207   1.729  -1.599  0.00  0.00    +0.280 C 
BRANCH  13  14
ATOM     14  C   LIG    1        4.541   0.998  -1.429  0.00  0.00    +0.020 C 
ATOM     15  C   LIG    1        5.078   1.177   0.013  0.00  0.00    +0.020 C 
ATOM     16  C   LIG    1        6.602   0.955  -0.157  0.00  0.00    +0.020 C 
ATOM     17  C   LIG    1        6.932   1.618  -1.512  0.00  0.00    +0.050 C 
ATOM     18  C   LIG    1        5.624   1.641  -2.314  0.00  0.00    -0.120 C 
ATOM     19  C   LIG    1        5.287   2.807  -3.238  0.00  0.00    +0.030 C 
ATOM     20  C   LIG    1        5.622   1.434  -3.825  0.00  0.00    +0.020 C 
ENDBRANCH  13  14
ENDBRANCH  11  13
ENDBRANCH   1   9
BRANCH   4  21
ATOM     21  S   LIG    1       -5.436   3.323   0.407  0.00  0.00    +2.510 S 
ATOM     22  O   LIG    1       -6.299   2.298  -0.065  0.00  0.00    -0.940 OA
ATOM     23  O   LIG    1       -5.330   4.564  -0.276  0.00  0.00    -0.920 OA
BRANCH  21  24
ATOM     24  C   LIG    1       -5.682   3.594   2.184  0.00  0.00    -0.320 C 
BRANCH  24  25
ATOM     25  C   LIG    1       -7.064   4.207   2.420  0.00  0.00    +0.170 C 
ATOM     26  C   LIG    1       -7.267   4.512   3.925  0.00  0.00    +0.040 C 
ATOM     27  C   LIG    1       -8.330   5.642   3.856  0.00  0.00    +0.010 C 
ATOM     28  C   LIG    1       -7.936   6.384   2.561  0.00  0.00    +0.210 C 
ATOM     29  O   LIG    1       -7.164   5.480   1.762  0.00  0.00    -0.380 OA
ENDBRANCH  24  25
ENDBRANCH  21  24
ENDBRANCH   4  21
TORSDOF 6
