REMARK  Name = ZINCvU0000000Iqp.0
REMARK                            x       y       z     vdW  Elec       q    Type
REMARK                         _______ _______ _______ _____ _____    ______ ____
ROOT
ATOM      1  N   LIG    1       -0.066   1.165  -4.066  0.00  0.00    -0.470 N 
ATOM      2  C   LIG    1        0.947   0.481  -4.717  0.00  0.00    +0.050 A 
ATOM      3  C   LIG    1        1.264   0.275  -6.050  0.00  0.00    +0.090 A 
ATOM      4  C   LIG    1        2.374  -0.476  -6.384  0.00  0.00    -0.170 A 
ATOM      5  C   LIG    1        3.174  -1.025  -5.394  0.00  0.00    +0.060 A 
ATOM      6  C   LIG    1        2.874  -0.830  -4.064  0.00  0.00    +0.080 A 
ATOM      7  C   LIG    1        1.755  -0.072  -3.709  0.00  0.00    +0.090 A 
ATOM      8  N   LIG    1        1.215   0.293  -2.517  0.00  0.00    -0.500 NA
ATOM      9  C   LIG    1        0.142   1.016  -2.723  0.00  0.00    +0.260 A 
ENDROOT
BRANCH   4  10
ATOM     10  C   LIG    1        2.717  -0.700  -7.834  0.00  0.00    +0.510 C 
ATOM     11  F   LIG    1        1.544  -0.697  -8.597  0.00  0.00    -0.180 F 
ATOM     12  F   LIG    1        3.362  -1.933  -7.975  0.00  0.00    -0.170 F 
ATOM     13  F   LIG    1        3.564   0.322  -8.276  0.00  0.00    -0.170 F 
ENDBRANCH   4  10
BRANCH   1  14
ATOM     14  C   LIG    1       -1.159   1.909  -4.698  0.00  0.00    +0.300 C 
BRANCH  14  16
ATOM     15  C   LIG    1       -1.870   4.139  -5.572  0.00  0.00    +0.040 C 
ATOM     16  C   LIG    1       -0.729   3.362  -4.912  0.00  0.00    +0.010 C 
ENDBRANCH  14  16
ENDBRANCH   1  14
BRANCH   9  17
ATOM     17  S   LIG    1       -0.877   1.700  -1.458  0.00  0.00    +0.090 S 
BRANCH  17  18
ATOM     18  C   LIG    1       -0.003   1.099   0.008  0.00  0.00    +0.110 C 
BRANCH  18  19
ATOM     19  C   LIG    1       -0.716   1.575   1.248  0.00  0.00    +0.530 C 
ATOM     20  N   LIG    1       -0.242   1.246   2.466  0.00  0.00    -0.650 N 
ATOM     21  H   LIG    1        0.510   0.638   2.546  0.00  0.00    +0.420 HD
ATOM     22  O   LIG    1       -1.716   2.254   1.149  0.00  0.00    -0.510 OA
BRANCH  20  23
ATOM     23  C   LIG    1       -0.835   1.783   3.618  0.00  0.00    +0.080 A 
ATOM     24  C   LIG    1       -1.519   2.987   3.549  0.00  0.00    +0.110 A 
ATOM     25  C   LIG    1       -2.108   3.514   4.683  0.00  0.00    -0.080 A 
ATOM     26  C   LIG    1       -2.007   2.846   5.894  0.00  0.00    +0.150 A 
ATOM     27  C   LIG    1       -1.319   1.643   5.969  0.00  0.00    -0.080 A 
ATOM     28  C   LIG    1       -0.732   1.111   4.834  0.00  0.00    +0.140 A 
BRANCH  26  29
ATOM     29  O   LIG    1       -2.583   3.369   7.009  0.00  0.00    -0.320 OA
ATOM     30  C   LIG    1       -3.276   4.610   6.859  0.00  0.00    +0.250 C 
ENDBRANCH  26  29
BRANCH  28  31
ATOM     31  O   LIG    1       -0.057  -0.067   4.905  0.00  0.00    -0.320 OA
ATOM     32  C   LIG    1        0.008  -0.702   6.184  0.00  0.00    +0.250 C 
ENDBRANCH  28  31
ENDBRANCH  20  23
ENDBRANCH  18  19
ENDBRANCH  17  18
ENDBRANCH   9  17
TORSDOF 9
