REMARK  Name = ZINCnE000001QssE.0
REMARK                            x       y       z     vdW  Elec       q    Type
REMARK                         _______ _______ _______ _____ _____    ______ ____
ROOT
ATOM      1  C   LIG    1        1.222   3.287  -0.779  0.00  0.00    +0.520 C 
ATOM      2  N   LIG    1        2.467   3.800  -0.819  0.00  0.00    -0.720 N 
ATOM      3  H   LIG    1        3.182   3.379  -0.315  0.00  0.00    +0.390 HD
ATOM      4  O   LIG    1        0.311   3.862  -1.338  0.00  0.00    -0.510 OA
ENDROOT
BRANCH   1   7
ATOM      5  C   LIG    1       -0.475   1.468  -0.033  0.00  0.00    +0.080 C 
ATOM      6  C   LIG    1        0.124   2.075   1.237  0.00  0.00    +0.060 C 
ATOM      7  C   LIG    1        0.960   1.999  -0.042  0.00  0.00    -0.050 C 
BRANCH   5  10
ATOM      8  C   LIG    1       -2.115   0.438  -2.342  0.00  0.00    +0.090 C 
ATOM      9  C   LIG    1       -2.252   1.833  -1.787  0.00  0.00    -0.110 A 
ATOM     10  C   LIG    1       -1.518   2.273  -0.764  0.00  0.00    -0.140 A 
ATOM     11  S   LIG    1       -1.950   3.940  -0.403  0.00  0.00    +0.180 S 
ATOM     12  C   LIG    1       -3.143   3.942  -1.696  0.00  0.00    -0.070 A 
ATOM     13  C   LIG    1       -3.152   2.752  -2.298  0.00  0.00    -0.010 A 
ENDBRANCH   5  10
ENDBRANCH   1   7
BRANCH   2  14
ATOM     14  C   LIG    1        2.743   4.993  -1.624  0.00  0.00    +0.310 C 
BRANCH  14  15
ATOM     15  C   LIG    1        3.999   5.657  -1.123  0.00  0.00    -0.070 A 
ATOM     16  C   LIG    1        5.080   4.888  -0.733  0.00  0.00    -0.010 A 
ATOM     17  C   LIG    1        6.234   5.497  -0.278  0.00  0.00    -0.020 A 
ATOM     18  C   LIG    1        6.305   6.876  -0.204  0.00  0.00    -0.020 A 
ATOM     19  C   LIG    1        5.223   7.645  -0.589  0.00  0.00    -0.010 A 
ATOM     20  C   LIG    1        4.070   7.036  -1.049  0.00  0.00    +0.080 A 
ENDBRANCH  14  15
BRANCH  14  21
ATOM     21  C   LIG    1        2.928   4.589  -3.088  0.00  0.00    -0.070 C 
BRANCH  21  22
ATOM     22  C   LIG    1        3.047   5.827  -3.939  0.00  0.00    +0.500 C 
ATOM     23  O   LIG    1        3.323   5.729  -5.122  0.00  0.00    -0.700 OA
ATOM     24  O   LIG    1        2.866   6.927  -3.444  0.00  0.00    -0.690 OA
ENDBRANCH  21  22
ENDBRANCH  14  21
ENDBRANCH   2  14
TORSDOF 6
