REMARK  Name = ZINCkj000005lGuC.1
REMARK                            x       y       z     vdW  Elec       q    Type
REMARK                         _______ _______ _______ _____ _____    ______ ____
ROOT
ATOM      1  O   LIG    1       -1.351   4.314  -1.470  0.00  0.00    -0.510 OA
ATOM      2  C   LIG    1       -2.313   3.577  -1.402  0.00  0.00    +0.510 C 
ATOM      3  N   LIG    1       -3.450   3.892  -2.053  0.00  0.00    -0.690 N 
ATOM      4  H   LIG    1       -4.242   3.344  -1.938  0.00  0.00    +0.410 HD
ENDROOT
BRANCH   2   5
ATOM      5  C   LIG    1       -2.235   2.311  -0.589  0.00  0.00    +0.160 C 
ATOM      6  C   LIG    1       -1.155   1.374  -1.163  0.00  0.00    +0.100 C 
ATOM      7  C   LIG    1       -0.430   0.784   0.066  0.00  0.00    +0.090 C 
ATOM      8  C   LIG    1       -1.152   1.397   1.276  0.00  0.00    +0.160 C 
ATOM      9  C   LIG    1       -0.250   1.538   2.468  0.00  0.00    +0.070 C 
ATOM     10  C   LIG    1        0.682   2.739   2.336  0.00  0.00    +0.040 C 
ATOM     11  C   LIG    1       -0.171   3.983   2.063  0.00  0.00    +0.050 C 
ATOM     12  C   LIG    1       -0.926   3.779   0.755  0.00  0.00    +0.260 C 
ATOM     13  N   LIG    1       -1.800   2.614   0.801  0.00  0.00    -0.360 N 
ATOM     14  H   LIG    1       -2.606   2.816   1.373  0.00  0.00    +0.420 HD
ENDBRANCH   2   5
BRANCH   3  15
ATOM     15  C   LIG    1       -3.490   5.062  -2.934  0.00  0.00    +0.180 C 
ATOM     16  C   LIG    1       -4.868   5.156  -3.581  0.00  0.00    +0.070 C 
ATOM     17  C   LIG    1       -5.258   3.804  -4.182  0.00  0.00    +0.110 C 
ATOM     18  S   LIG    1       -4.079   3.386  -5.500  0.00  0.00    -0.240 S 
ATOM     19  C   LIG    1       -2.480   3.546  -4.651  0.00  0.00    +0.100 C 
ATOM     20  C   LIG    1       -2.403   4.928  -3.997  0.00  0.00    +0.060 C 
BRANCH  15  21
ATOM     21  C   LIG    1       -3.233   6.324  -2.108  0.00  0.00    +0.190 C 
BRANCH  21  22
ATOM     22  O   LIG    1       -4.167   6.383  -1.028  0.00  0.00    -0.570 OA
ATOM     23  H   LIG    1       -4.063   7.160  -0.460  0.00  0.00    +0.390 HD
ENDBRANCH  21  22
ENDBRANCH  15  21
ENDBRANCH   3  15
TORSDOF 4
