REMARK  Name = ZINCkj000005lGuC.0
REMARK                            x       y       z     vdW  Elec       q    Type
REMARK                         _______ _______ _______ _____ _____    ______ ____
ROOT
ATOM      1  O   LIG    1       -4.059   4.329  -1.191  0.00  0.00    -0.520 OA
ATOM      2  C   LIG    1       -3.395   5.103  -0.534  0.00  0.00    +0.520 C 
ATOM      3  N   LIG    1       -3.696   6.416  -0.533  0.00  0.00    -0.690 N 
ATOM      4  H   LIG    1       -3.213   7.024   0.049  0.00  0.00    +0.410 HD
ENDROOT
BRANCH   2   5
ATOM      5  C   LIG    1       -2.234   4.595   0.281  0.00  0.00    +0.170 C 
ATOM      6  C   LIG    1       -2.510   4.776   1.798  0.00  0.00    +0.080 C 
ATOM      7  C   LIG    1       -1.902   3.516   2.467  0.00  0.00    +0.080 C 
ATOM      8  C   LIG    1       -1.267   2.747   1.305  0.00  0.00    +0.170 C 
ATOM      9  C   LIG    1       -1.348   1.234   1.439  0.00  0.00    +0.070 C 
ATOM     10  C   LIG    1       -0.709   0.625   0.180  0.00  0.00    +0.040 C 
ATOM     11  C   LIG    1       -1.384   1.167  -1.079  0.00  0.00    +0.050 C 
ATOM     12  C   LIG    1       -1.395   2.703  -1.073  0.00  0.00    +0.260 C 
ATOM     13  N   LIG    1       -2.091   3.138   0.130  0.00  0.00    -0.380 N 
ATOM     14  H   LIG    1       -2.996   2.694   0.183  0.00  0.00    +0.430 HD
ENDBRANCH   2   5
BRANCH   3  15
ATOM     15  C   LIG    1       -4.754   6.926  -1.409  0.00  0.00    +0.180 C 
ATOM     16  C   LIG    1       -4.859   8.439  -1.242  0.00  0.00    +0.070 C 
ATOM     17  C   LIG    1       -4.937   8.797   0.243  0.00  0.00    +0.110 C 
ATOM     18  S   LIG    1       -6.454   8.078   0.941  0.00  0.00    -0.240 S 
ATOM     19  C   LIG    1       -6.307   6.331   0.462  0.00  0.00    +0.100 C 
ATOM     20  C   LIG    1       -6.074   6.251  -1.049  0.00  0.00    +0.060 C 
BRANCH  15  21
ATOM     21  C   LIG    1       -4.403   6.603  -2.863  0.00  0.00    +0.200 C 
BRANCH  21  22
ATOM     22  O   LIG    1       -3.102   7.113  -3.164  0.00  0.00    -0.570 OA
ATOM     23  H   LIG    1       -2.814   6.944  -4.071  0.00  0.00    +0.390 HD
ENDBRANCH  21  22
ENDBRANCH  15  21
ENDBRANCH   3  15
TORSDOF 4
