REMARK  Name = ZINCrH000004r8L7.0
REMARK                            x       y       z     vdW  Elec       q    Type
REMARK                         _______ _______ _______ _____ _____    ______ ____
ROOT
ATOM      1  N   LIG    1        3.480   1.916   3.857  0.00  0.00    -0.620 N 
ATOM      2  H   LIG    1        4.200   1.648   3.264  0.00  0.00    +0.430 HD
ATOM      3  C   LIG    1        3.740   2.198   5.149  0.00  0.00    +0.520 C 
ATOM      4  O   LIG    1        2.841   2.533   5.890  0.00  0.00    -0.490 OA
ENDROOT
BRANCH   3   5
ATOM      5  C   LIG    1        5.150   2.095   5.673  0.00  0.00    +0.010 C 
ATOM      6  C   LIG    1        5.657   0.662   5.496  0.00  0.00    +0.030 C 
ATOM      7  C   LIG    1        7.101   0.570   5.998  0.00  0.00    +0.300 C 
ATOM      8  N   LIG    1        7.153   1.061   7.382  0.00  0.00    -0.630 N 
ATOM      9  C   LIG    1        6.608   2.393   7.679  0.00  0.00    +0.260 C 
ATOM     10  C   LIG    1        7.689   0.305   8.360  0.00  0.00    +0.730 C 
ATOM     11  N   LIG    1        7.935   0.844   9.570  0.00  0.00    -0.640 N 
ATOM     12  C   LIG    1        7.509   2.178  10.017  0.00  0.00    +0.250 C 
ATOM     13  C   LIG    1        8.034   2.369  11.455  0.00  0.00    +0.030 C 
ATOM     14  C   LIG    1        9.214   1.365  11.529  0.00  0.00    +0.040 C 
ATOM     15  C   LIG    1        8.681   0.195  10.664  0.00  0.00    +0.270 C 
ATOM     16  O   LIG    1        7.952  -0.864   8.150  0.00  0.00    -0.580 OA
ATOM     17  C   LIG    1        5.169   2.465   7.158  0.00  0.00    +0.050 C 
ENDBRANCH   3   5
BRANCH   1  22
ATOM     18  C   LIG    1        0.716   1.258  -0.593  0.00  0.00    +0.100 C 
ATOM     19  C   LIG    1       -0.101   1.692   0.597  0.00  0.00    -0.040 A 
ATOM     20  C   LIG    1        0.530   1.900   1.842  0.00  0.00    +0.110 A 
ATOM     21  N   LIG    1        1.832   1.764   2.161  0.00  0.00    -0.500 NA
ATOM     22  C   LIG    1        2.185   2.010   3.375  0.00  0.00    +0.310 A 
ATOM     23  S   LIG    1        0.789   2.483   4.333  0.00  0.00    +0.180 S 
ATOM     24  C   LIG    1       -0.256   2.304   2.926  0.00  0.00    -0.210 A 
ATOM     25  C   LIG    1       -1.627   2.492   2.771  0.00  0.00    -0.040 A 
ATOM     26  C   LIG    1       -2.221   2.282   1.546  0.00  0.00    +0.020 A 
ATOM     27  C   LIG    1       -2.463   2.926   3.947  0.00  0.00    +0.110 C 
ATOM     28  C   LIG    1       -1.452   1.889   0.461  0.00  0.00    +0.030 A 
ENDBRANCH   1  22
TORSDOF 2
