REMARK  Name = ZINCrD000000fD6t.1
REMARK                            x       y       z     vdW  Elec       q    Type
REMARK                         _______ _______ _______ _____ _____    ______ ____
ROOT
ATOM      1  S   LIG    1       -2.549  -0.082  -0.690  0.00  0.00    +2.690 S 
ATOM      2  O   LIG    1       -2.602   1.281  -0.290  0.00  0.00    -0.950 OA
ATOM      3  O   LIG    1       -3.602  -1.005  -0.445  0.00  0.00    -0.940 OA
ENDROOT
BRANCH   1  10
ATOM      4  C   LIG    1       -2.467  -2.079  -7.193  0.00  0.00    +0.110 C 
ATOM      5  C   LIG    1       -1.825  -0.755  -7.516  0.00  0.00    +0.530 C 
ATOM      6  N   LIG    1       -1.576   0.131  -6.532  0.00  0.00    -0.550 N 
ATOM      7  C   LIG    1       -1.869  -0.070  -5.179  0.00  0.00    +0.210 A 
ATOM      8  C   LIG    1       -2.456  -1.172  -4.555  0.00  0.00    -0.040 A 
ATOM      9  C   LIG    1       -2.660  -1.171  -3.192  0.00  0.00    +0.170 A 
ATOM     10  C   LIG    1       -2.286  -0.079  -2.432  0.00  0.00    -0.700 A 
ATOM     11  C   LIG    1       -1.708   1.019  -3.044  0.00  0.00    +0.180 A 
ATOM     12  C   LIG    1       -1.496   1.020  -4.409  0.00  0.00    -0.150 A 
ATOM     13  C   LIG    1       -0.891   2.067  -5.317  0.00  0.00    +0.120 C 
ATOM     14  C   LIG    1       -0.958   1.446  -6.722  0.00  0.00    +0.230 C 
ATOM     15  C   LIG    1        0.449   1.293  -7.304  0.00  0.00    +0.060 C 
ATOM     16  O   LIG    1       -1.532  -0.487  -8.662  0.00  0.00    -0.510 OA
ENDBRANCH   1  10
BRANCH   1  17
ATOM     17  N   LIG    1       -1.193  -0.723   0.010  0.00  0.00    -1.040 N 
ATOM     18  H   LIG    1       -1.258  -1.529   0.546  0.00  0.00    +0.430 HD
BRANCH  17  19
ATOM     19  C   LIG    1        0.044  -0.104  -0.170  0.00  0.00    +0.180 A 
ATOM     20  C   LIG    1        0.129   1.269  -0.241  0.00  0.00    +0.000 A 
ATOM     21  C   LIG    1        1.357   1.899  -0.420  0.00  0.00    +0.060 A 
ATOM     22  C   LIG    1        2.506   1.177  -0.531  0.00  0.00    +0.020 A 
ATOM     23  C   LIG    1        2.461  -0.225  -0.464  0.00  0.00    -0.080 A 
ATOM     24  C   LIG    1        3.631  -1.000  -0.576  0.00  0.00    +0.080 A 
ATOM     25  C   LIG    1        3.513  -2.359  -0.502  0.00  0.00    -0.030 A 
ATOM     26  C   LIG    1        2.260  -2.939  -0.322  0.00  0.00    +0.290 A 
ATOM     27  N   LIG    1        1.173  -2.213  -0.219  0.00  0.00    -0.470 NA
ATOM     28  C   LIG    1        1.219  -0.880  -0.282  0.00  0.00    +0.110 A 
ENDBRANCH  17  19
ENDBRANCH   1  17
TORSDOF 3
