REMARK  Name = ZINCtV00000L6l93.1
REMARK                            x       y       z     vdW  Elec       q    Type
REMARK                         _______ _______ _______ _____ _____    ______ ____
ROOT
ATOM      1  C   LIG    1       -1.630   5.190  -1.452  0.00  0.00    +0.110 C 
ATOM      2  C   LIG    1       -1.749   3.691  -1.559  0.00  0.00    -0.090 A 
ATOM      3  C   LIG    1       -0.964   2.877  -0.766  0.00  0.00    +0.080 A 
ATOM      4  C   LIG    1       -1.072   1.502  -0.864  0.00  0.00    -0.090 A 
ATOM      5  C   LIG    1       -1.963   0.937  -1.759  0.00  0.00    +0.010 A 
ATOM      6  C   LIG    1       -2.756   1.747  -2.551  0.00  0.00    -0.020 A 
ATOM      7 CL   LIG    1       -2.090  -0.790  -1.884  0.00  0.00    -0.050 Cl
ATOM      8  C   LIG    1       -2.648   3.128  -2.455  0.00  0.00    +0.200 A 
ENDROOT
BRANCH   8   9
ATOM      9  N   LIG    1       -3.443   3.949  -3.259  0.00  0.00    -1.040 N 
ATOM     10  H   LIG    1       -3.104   4.806  -3.562  0.00  0.00    +0.430 HD
BRANCH   9  11
ATOM     11  S   LIG    1       -4.964   3.460  -3.694  0.00  0.00    +2.680 S 
ATOM     12  O   LIG    1       -5.520   4.516  -4.465  0.00  0.00    -0.920 OA
ATOM     13  O   LIG    1       -5.575   2.954  -2.515  0.00  0.00    -0.930 OA
BRANCH  11  14
ATOM     14  C   LIG    1       -4.779   2.090  -4.786  0.00  0.00    -0.660 A 
ATOM     15  C   LIG    1       -5.261   0.846  -4.423  0.00  0.00    +0.140 A 
ATOM     16  C   LIG    1       -5.116  -0.229  -5.280  0.00  0.00    +0.030 A 
ATOM     17  C   LIG    1       -4.489  -0.061  -6.500  0.00  0.00    +0.090 A 
ATOM     18  C   LIG    1       -4.007   1.183  -6.864  0.00  0.00    +0.040 A 
ATOM     19  C   LIG    1       -4.157   2.260  -6.010  0.00  0.00    -0.000 A 
ATOM     20 BR   LIG    1       -3.505   3.962  -6.511  0.00  0.00    -0.020 Br
ENDBRANCH  11  14
ENDBRANCH   9  11
ENDBRANCH   8   9
BRANCH   4  21
ATOM     21  C   LIG    1       -0.214   0.617   0.003  0.00  0.00    +0.230 C 
BRANCH  21  22
ATOM     22  C   LIG    1        1.232   0.780  -0.390  0.00  0.00    -0.080 A 
ATOM     23  C   LIG    1        1.875   1.984  -0.172  0.00  0.00    +0.040 A 
ATOM     24  C   LIG    1        3.203   2.132  -0.527  0.00  0.00    +0.040 A 
ATOM     25  C   LIG    1        3.885   1.079  -1.110  0.00  0.00    -0.030 A 
ATOM     26  C   LIG    1        3.239  -0.124  -1.332  0.00  0.00    +0.030 A 
ATOM     27 CL   LIG    1        5.550   1.267  -1.563  0.00  0.00    -0.060 Cl
ATOM     28  C   LIG    1        1.913  -0.273  -0.972  0.00  0.00    +0.060 A 
ENDBRANCH  21  22
BRANCH  21  29
ATOM     29  C   LIG    1       -0.385   0.997   1.414  0.00  0.00    +0.210 C 
ATOM     30  N   LIG    1       -0.517   1.291   2.504  0.00  0.00    -0.400 NA
ENDBRANCH  21  29
ENDBRANCH   4  21
TORSDOF 6
