REMARK  Name = ZINCrg00000fSBeP.0
REMARK                            x       y       z     vdW  Elec       q    Type
REMARK                         _______ _______ _______ _____ _____    ______ ____
ROOT
ATOM      1  O   LIG    1        1.032   4.654  -0.197  0.00  0.00    -0.490 OA
ATOM      2  C   LIG    1        1.472   4.122  -1.194  0.00  0.00    +0.500 C 
ATOM      3  N   LIG    1        1.716   2.797  -1.200  0.00  0.00    -0.720 N 
ATOM      4  H   LIG    1        2.068   2.372  -1.998  0.00  0.00    +0.400 HD
ENDROOT
BRANCH   3   5
ATOM      5  C   LIG    1        1.450   1.998  -0.001  0.00  0.00    +0.260 C 
ATOM      6  C   LIG    1        2.312   0.719  -0.016  0.00  0.00    +0.050 C 
ATOM      7  C   LIG    1        1.389  -0.368   0.588  0.00  0.00    +0.000 C 
ATOM      8  C   LIG    1        0.002  -0.004   0.002  0.00  0.00    +0.000 C 
ATOM      9  C   LIG    1       -0.019   1.538   0.011  0.00  0.00    +0.150 C 
BRANCH   9  10
ATOM     10  O   LIG    1       -0.671   2.013   1.190  0.00  0.00    -0.550 OA
ATOM     11  H   LIG    1       -1.595   1.738   1.266  0.00  0.00    +0.380 HD
ENDBRANCH   9  10
BRANCH   7  12
ATOM     12  C   LIG    1        1.821  -1.763   0.131  0.00  0.00    +0.330 C 
BRANCH  12  13
ATOM     13  N   LIG    1        0.928  -2.767   0.713  0.00  0.00    -0.370 N 
ATOM     14  C   LIG    1        0.225  -3.695   0.032  0.00  0.00    +0.220 A 
ATOM     15  C   LIG    1       -0.471  -4.429   0.931  0.00  0.00    -0.120 A 
ATOM     16  C   LIG    1       -0.190  -3.926   2.206  0.00  0.00    +0.220 A 
ATOM     17  N   LIG    1        0.649  -2.930   2.076  0.00  0.00    -0.290 NA
ENDBRANCH  12  13
ENDBRANCH   7  12
ENDBRANCH   3   5
BRANCH   2  18
ATOM     18  C   LIG    1        1.746   4.944  -2.428  0.00  0.00    +0.370 C 
BRANCH  18  19
ATOM     19  N   LIG    1        1.401   6.344  -2.168  0.00  0.00    -0.280 N 
ATOM     20  C   LIG    1        2.227   7.403  -2.326  0.00  0.00    +0.150 A 
ATOM     21  C   LIG    1        1.500   8.504  -1.973  0.00  0.00    +0.020 A 
ATOM     22  N   LIG    1        0.282   8.052  -1.624  0.00  0.00    -0.250 NA
ATOM     23  N   LIG    1        0.260   6.773  -1.757  0.00  0.00    -0.050 NA
BRANCH  21  24
ATOM     24  C   LIG    1        1.961   9.915  -1.975  0.00  0.00    -0.010 A 
ATOM     25  C   LIG    1        3.264  10.224  -2.360  0.00  0.00    +0.010 A 
ATOM     26  C   LIG    1        3.685  11.538  -2.366  0.00  0.00    +0.010 A 
ATOM     27  C   LIG    1        2.821  12.546  -1.978  0.00  0.00    +0.010 A 
ATOM     28  C   LIG    1        1.529  12.244  -1.589  0.00  0.00    +0.010 A 
ATOM     29  C   LIG    1        1.095  10.934  -1.586  0.00  0.00    +0.040 A 
ENDBRANCH  21  24
ENDBRANCH  18  19
ENDBRANCH   2  18
TORSDOF 7
