REMARK  Name = ZINCqH0000000kls.0
REMARK                            x       y       z     vdW  Elec       q    Type
REMARK                         _______ _______ _______ _____ _____    ______ ____
ROOT
ATOM      1  N   LIG    1       -3.468  -0.491  -2.220  0.00  0.00    -0.510 N 
ATOM      2  C   LIG    1       -3.851  -1.774  -2.063  0.00  0.00    +0.580 A 
ATOM      3  C   LIG    1       -3.449  -2.471  -0.902  0.00  0.00    -0.340 A 
ATOM      4  C   LIG    1       -2.670  -1.815   0.049  0.00  0.00    +0.190 A 
ATOM      5  N   LIG    1       -2.318  -0.513  -0.186  0.00  0.00    -0.480 NA
ATOM      6  C   LIG    1       -2.350  -2.627   1.139  0.00  0.00    +0.040 A 
ATOM      7  C   LIG    1       -2.835  -3.876   1.093  0.00  0.00    -0.100 A 
ATOM      8  S   LIG    1       -3.759  -4.121  -0.379  0.00  0.00    +0.240 S 
ATOM      9  O   LIG    1       -4.534  -2.325  -2.911  0.00  0.00    -0.520 OA
ATOM     10  C   LIG    1       -2.704   0.116  -1.265  0.00  0.00    +0.350 A 
ENDROOT
BRANCH   7  11
ATOM     11  C   LIG    1       -2.621  -4.903   2.135  0.00  0.00    -0.030 A 
ATOM     12  C   LIG    1       -1.862  -4.605   3.268  0.00  0.00    +0.040 A 
ATOM     13  C   LIG    1       -1.671  -5.565   4.240  0.00  0.00    +0.010 A 
ATOM     14  C   LIG    1       -2.220  -6.826   4.087  0.00  0.00    +0.020 A 
ATOM     15  C   LIG    1       -2.968  -7.131   2.964  0.00  0.00    +0.020 A 
ATOM     16  C   LIG    1       -3.171  -6.177   1.988  0.00  0.00    +0.020 A 
ENDBRANCH   7  11
BRANCH   1  17
ATOM     17  C   LIG    1       -3.872   0.253  -3.416  0.00  0.00    +0.330 C 
BRANCH  17  19
ATOM     18  C   LIG    1       -3.183  -0.373  -5.673  0.00  0.00    +0.070 C 
ATOM     19  C   LIG    1       -2.833   0.075  -4.493  0.00  0.00    -0.070 C 
ENDBRANCH  17  19
ENDBRANCH   1  17
BRANCH  10  20
ATOM     20  S   LIG    1       -2.219   1.794  -1.497  0.00  0.00    +0.050 S 
BRANCH  20  21
ATOM     21  C   LIG    1       -1.264   2.057   0.019  0.00  0.00    -0.010 C 
ATOM     22  C   LIG    1       -0.749   3.512   0.087  0.00  0.00    +0.080 C 
ATOM     23  C   LIG    1        0.728   3.317   0.500  0.00  0.00    +0.270 C 
ATOM     24  O   LIG    1        1.072   1.990   0.003  0.00  0.00    -0.340 OA
ATOM     25  C   LIG    1       -0.014   1.204   0.009  0.00  0.00    +0.490 C 
ATOM     26  O   LIG    1        0.002  -0.004   0.002  0.00  0.00    -0.400 OA
ENDBRANCH  20  21
ENDBRANCH  10  20
TORSDOF 5
