REMARK  Name = ZINCrH000004vGsb.0
REMARK                            x       y       z     vdW  Elec       q    Type
REMARK                         _______ _______ _______ _____ _____    ______ ____
ROOT
ATOM      1  O   LIG    1        0.831   3.603  -1.153  0.00  0.00    -0.500 OA
ATOM      2  C   LIG    1        1.785   2.875  -0.953  0.00  0.00    +0.590 C 
ATOM      3  N   LIG    1        1.600   1.550  -0.790  0.00  0.00    -0.600 N 
ATOM      4  C   LIG    1        0.244   0.986  -0.728  0.00  0.00    +0.290 C 
ATOM      5  C   LIG    1        0.118  -0.107  -1.797  0.00  0.00    +0.290 C 
ATOM      6  N   LIG    1        1.268  -1.014  -1.678  0.00  0.00    -1.000 NA
ATOM      7  C   LIG    1        2.624  -0.450  -1.740  0.00  0.00    +0.300 C 
ATOM      8  C   LIG    1        2.750   0.643  -0.672  0.00  0.00    +0.270 C 
ENDROOT
BRANCH   2   9
ATOM      9  C   LIG    1        3.139   3.440  -0.889  0.00  0.00    -0.230 A 
ATOM     10  C   LIG    1        3.616   4.368  -1.727  0.00  0.00    +0.030 A 
ATOM     11  C   LIG    1        4.941   4.774  -1.490  0.00  0.00    -0.090 A 
ATOM     12  C   LIG    1        5.717   5.725  -2.193  0.00  0.00    +0.070 A 
ATOM     13  C   LIG    1        6.996   5.989  -1.813  0.00  0.00    +0.020 A 
ATOM     14  C   LIG    1        7.563   5.332  -0.729  0.00  0.00    +0.060 A 
ATOM     15  C   LIG    1        6.835   4.403  -0.025  0.00  0.00    +0.050 A 
ATOM     16  C   LIG    1        5.518   4.114  -0.398  0.00  0.00    -0.130 A 
ATOM     17 CL   LIG    1        2.664   5.026  -3.020  0.00  0.00    -0.020 Cl
ATOM     18  S   LIG    1        4.350   2.997   0.301  0.00  0.00    +0.180 S 
ENDBRANCH   2   9
BRANCH   6  19
ATOM     19  S   LIG    1        1.041  -2.642  -1.478  0.00  0.00    +2.690 S 
ATOM     20  O   LIG    1       -0.255  -2.800  -0.917  0.00  0.00    -0.950 OA
ATOM     21  O   LIG    1        2.221  -3.139  -0.862  0.00  0.00    -0.950 OA
BRANCH  19  22
ATOM     22  C   LIG    1        0.978  -3.361  -3.086  0.00  0.00    -0.680 A 
ATOM     23  C   LIG    1       -0.233  -3.486  -3.740  0.00  0.00    +0.120 A 
ATOM     24  C   LIG    1       -0.282  -4.046  -5.003  0.00  0.00    -0.010 A 
ATOM     25  C   LIG    1        0.879  -4.490  -5.607  0.00  0.00    +0.070 A 
ATOM     26  C   LIG    1        2.090  -4.370  -4.951  0.00  0.00    -0.010 A 
ATOM     27  C   LIG    1        2.139  -3.806  -3.690  0.00  0.00    +0.120 A 
ENDBRANCH  19  22
ENDBRANCH   6  19
TORSDOF 3
