REMARK  Name = ZINCrg000000qY49.0
REMARK                            x       y       z     vdW  Elec       q    Type
REMARK                         _______ _______ _______ _____ _____    ______ ____
ROOT
ATOM      1  N   LIG    1        2.045  -6.694   0.006  0.00  0.00    -0.680 N 
ATOM      2  H   LIG    1        2.034  -6.042  -0.712  0.00  0.00    +0.410 HD
ATOM      3  C   LIG    1        1.165  -6.593   1.022  0.00  0.00    +0.630 C 
ATOM      4  O   LIG    1        1.116  -7.460   1.872  0.00  0.00    -0.470 OA
ENDROOT
BRANCH   1  10
ATOM      5  C   LIG    1        4.098  -8.717  -3.415  0.00  0.00    +0.130 A 
ATOM      6  C   LIG    1        5.178  -7.895  -3.696  0.00  0.00    -0.060 A 
ATOM      7  C   LIG    1        5.608  -6.978  -2.756  0.00  0.00    +0.040 A 
ATOM      8  C   LIG    1        4.962  -6.882  -1.539  0.00  0.00    +0.030 A 
ATOM      9  C   LIG    1        3.882  -7.701  -1.254  0.00  0.00    -0.080 A 
ATOM     10  C   LIG    1        3.019  -7.788  -0.013  0.00  0.00    +0.230 C 
ATOM     11  C   LIG    1        2.295  -9.147  -0.119  0.00  0.00    +0.070 C 
ATOM     12  C   LIG    1        2.264  -9.387  -1.644  0.00  0.00    +0.090 C 
ATOM     13  C   LIG    1        3.448  -8.620  -2.190  0.00  0.00    -0.110 A 
BRANCH   5  15
ATOM     14  C   LIG    1        4.386  -9.666  -5.575  0.00  0.00    +0.250 C 
ATOM     15  O   LIG    1        3.673  -9.619  -4.338  0.00  0.00    -0.320 OA
ENDBRANCH   5  15
BRANCH  10  16
ATOM     16  C   LIG    1        3.888  -7.747   1.245  0.00  0.00    +0.200 C 
BRANCH  16  17
ATOM     17  O   LIG    1        4.484  -6.454   1.370  0.00  0.00    -0.570 OA
ATOM     18  H   LIG    1        5.050  -6.355   2.148  0.00  0.00    +0.380 HD
ENDBRANCH  16  17
ENDBRANCH  10  16
ENDBRANCH   1  10
BRANCH   3  19
ATOM     19  C   LIG    1        0.257  -5.423   1.103  0.00  0.00    +0.150 A 
ATOM     20  N   LIG    1       -0.642  -5.192   2.037  0.00  0.00    -0.380 NA
ATOM     21  C   LIG    1       -1.224  -4.024   1.698  0.00  0.00    +0.220 A 
ATOM     22  N   LIG    1       -0.651  -3.607   0.597  0.00  0.00    -0.340 NA
ATOM     23  O   LIG    1        0.200  -4.396   0.242  0.00  0.00    +0.110 OA
BRANCH  21  24
ATOM     24  C   LIG    1       -2.310  -3.334   2.439  0.00  0.00    +0.140 A 
ATOM     25  C   LIG    1       -2.814  -2.122   1.972  0.00  0.00    +0.270 A 
ATOM     26  N   LIG    1       -3.780  -1.513   2.635  0.00  0.00    -0.430 NA
ATOM     27  C   LIG    1       -4.268  -2.052   3.739  0.00  0.00    +0.250 A 
ATOM     28  C   LIG    1       -3.769  -3.257   4.206  0.00  0.00    +0.240 A 
ATOM     29  N   LIG    1       -2.804  -3.872   3.550  0.00  0.00    -0.400 NA
ENDBRANCH  21  24
ENDBRANCH   3  19
TORSDOF 6
