REMARK  Name = ZINCrg00000bvC72.0
REMARK                            x       y       z     vdW  Elec       q    Type
REMARK                         _______ _______ _______ _____ _____    ______ ____
ROOT
ATOM      1  C   LIG    1       -2.354   2.454   3.386  0.00  0.00    +0.520 C 
ATOM      2  N   LIG    1       -2.782   2.460   2.108  0.00  0.00    -0.610 N 
ATOM      3  C   LIG    1       -3.768   3.450   1.653  0.00  0.00    +0.280 C 
ATOM      4  C   LIG    1       -3.210   4.173   0.424  0.00  0.00    +0.030 C 
ATOM      5  C   LIG    1       -2.821   3.141  -0.637  0.00  0.00    -0.010 C 
ATOM      6  C   LIG    1       -1.730   2.222  -0.081  0.00  0.00    +0.250 C 
ATOM      7  C   LIG    1       -2.295   3.862  -1.880  0.00  0.00    +0.030 C 
ATOM      8  C   LIG    1       -2.272   1.476   1.143  0.00  0.00    +0.270 C 
ATOM      9  O   LIG    1       -2.719   3.320   4.152  0.00  0.00    -0.510 OA
ENDROOT
BRANCH   6  10
ATOM     10  N   LIG    1       -0.568   3.023   0.309  0.00  0.00    -0.720 N 
ATOM     11  H   LIG    1       -0.679   3.958   0.540  0.00  0.00    +0.400 HD
ATOM     12  C   LIG    1        0.656   2.461   0.346  0.00  0.00    +0.510 C 
ATOM     13  O   LIG    1        0.795   1.291   0.056  0.00  0.00    -0.520 OA
BRANCH  12  14
ATOM     14  C   LIG    1        1.854   3.286   0.741  0.00  0.00    +0.210 C 
ATOM     15  C   LIG    1        2.331   4.142  -0.453  0.00  0.00    +0.070 C 
ATOM     16  C   LIG    1        3.865   4.131  -0.255  0.00  0.00    +0.060 C 
ATOM     17  C   LIG    1        4.128   2.867   0.532  0.00  0.00    +0.520 C 
ATOM     18  O   LIG    1        5.213   2.340   0.657  0.00  0.00    -0.520 OA
ATOM     19  N   LIG    1        2.985   2.413   1.075  0.00  0.00    -0.710 N 
ATOM     20  H   LIG    1        2.917   1.611   1.616  0.00  0.00    +0.420 HD
ENDBRANCH  12  14
ENDBRANCH   6  10
BRANCH   1  22
ATOM     21  C   LIG    1       -2.162   0.030   3.876  0.00  0.00    +0.060 C 
ATOM     22  C   LIG    1       -1.422   1.369   3.863  0.00  0.00    +0.160 C 
BRANCH  22  23
ATOM     23  O   LIG    1       -0.970   1.677   5.183  0.00  0.00    -0.290 OA
BRANCH  23  24
ATOM     24  C   LIG    1        0.224   1.152   5.565  0.00  0.00    +0.130 A 
ATOM     25  C   LIG    1        0.780   1.505   6.785  0.00  0.00    -0.020 A 
ATOM     26  C   LIG    1        1.991   0.966   7.173  0.00  0.00    +0.050 A 
ATOM     27  C   LIG    1        2.654   0.083   6.341  0.00  0.00    -0.030 A 
ATOM     28  C   LIG    1        2.104  -0.267   5.122  0.00  0.00    +0.050 A 
ATOM     29  C   LIG    1        0.891   0.265   4.732  0.00  0.00    -0.080 A 
ENDBRANCH  23  24
ENDBRANCH  22  23
ENDBRANCH   1  22
TORSDOF 5
