REMARK  Name = ZINCrH000004mMDJ.0
REMARK                            x       y       z     vdW  Elec       q    Type
REMARK                         _______ _______ _______ _____ _____    ______ ____
ROOT
ATOM      1  N   LIG    1        0.652  -0.876  -1.264  0.00  0.00    -0.560 N 
ATOM      2  C   LIG    1       -0.133  -1.400  -2.227  0.00  0.00    +0.600 C 
ATOM      3  O   LIG    1        0.343  -1.689  -3.308  0.00  0.00    -0.520 OA
ENDROOT
BRANCH   1   7
ATOM      4  C   LIG    1        4.768  -0.571  -1.863  0.00  0.00    +0.100 A 
ATOM      5  C   LIG    1        3.991   0.575  -1.785  0.00  0.00    -0.030 A 
ATOM      6  C   LIG    1        2.627   0.474  -1.591  0.00  0.00    +0.050 A 
ATOM      7  C   LIG    1        2.034  -0.775  -1.465  0.00  0.00    +0.140 A 
ATOM      8  C   LIG    1        2.811  -1.923  -1.544  0.00  0.00    +0.030 A 
ATOM      9  C   LIG    1        4.175  -1.822  -1.743  0.00  0.00    +0.080 A 
ATOM     10  F   LIG    1        4.932  -2.938  -1.819  0.00  0.00    -0.130 F 
BRANCH   4  12
ATOM     11  C   LIG    1        6.652   0.847  -2.174  0.00  0.00    +0.250 C 
ATOM     12  O   LIG    1        6.110  -0.470  -2.059  0.00  0.00    -0.310 OA
ENDBRANCH   4  12
ENDBRANCH   1   7
BRANCH   2  13
ATOM     13  C   LIG    1       -1.567  -1.623  -1.970  0.00  0.00    -0.290 A 
ATOM     14  C   LIG    1       -2.463  -2.247  -2.813  0.00  0.00    +0.170 A 
ATOM     15  N   LIG    1       -3.662  -2.241  -2.201  0.00  0.00    -0.320 N 
ATOM     16  N   LIG    1       -3.523  -1.608  -0.961  0.00  0.00    -0.290 NA
ATOM     17  C   LIG    1       -2.156  -2.830  -4.169  0.00  0.00    +0.170 C 
ATOM     18  C   LIG    1       -2.280  -1.241  -0.811  0.00  0.00    +0.290 A 
BRANCH  15  19
ATOM     19  C   LIG    1       -4.846  -2.778  -2.717  0.00  0.00    +0.190 A 
ATOM     20  C   LIG    1       -6.059  -2.109  -2.568  0.00  0.00    -0.010 A 
ATOM     21  C   LIG    1       -7.204  -2.669  -3.096  0.00  0.00    +0.290 A 
ATOM     22  N   LIG    1       -7.162  -3.828  -3.726  0.00  0.00    -0.480 NA
ATOM     23  C   LIG    1       -6.034  -4.495  -3.883  0.00  0.00    +0.290 A 
ATOM     24  C   LIG    1       -4.845  -3.999  -3.389  0.00  0.00    -0.030 A 
ENDBRANCH  15  19
ENDBRANCH   2  13
BRANCH   1  25
ATOM     25  C   LIG    1        0.058  -0.414  -0.007  0.00  0.00    +0.220 C 
ATOM     26  C   LIG    1        1.170  -0.057   0.981  0.00  0.00    +0.060 C 
ATOM     27  C   LIG    1       -0.803   0.822  -0.275  0.00  0.00    +0.040 C 
ENDBRANCH   1  25
TORSDOF 5
