REMARK  Name = ZINCrH00000No4V2.0
REMARK                            x       y       z     vdW  Elec       q    Type
REMARK                         _______ _______ _______ _____ _____    ______ ____
ROOT
ATOM      1  C   LIG    1        5.061   3.877  -2.874  0.00  0.00    +0.180 C 
ATOM      2  N   LIG    1        5.159   3.506  -1.658  0.00  0.00    -0.230 NA
ATOM      3  N   LIG    1        4.713   2.300  -1.117  0.00  0.00    -0.480 N 
ATOM      4  C   LIG    1        3.965   1.439  -1.909  0.00  0.00    +0.330 C 
ATOM      5  S   LIG    1        4.460   1.328  -3.609  0.00  0.00    -0.050 S 
ATOM      6  N   LIG    1        2.964   0.751  -1.433  0.00  0.00    -0.470 NA
ATOM      7  C   LIG    1        5.030   1.945   0.269  0.00  0.00    +0.340 C 
ATOM      8  C   LIG    1        4.425   3.107  -3.994  0.00  0.00    +0.050 C 
ATOM      9  C   LIG    1        2.975   3.564  -4.167  0.00  0.00    +0.070 C 
ENDROOT
BRANCH   1  14
ATOM     10  C   LIG    1        6.637   7.180  -3.089  0.00  0.00    -0.210 A 
ATOM     11  C   LIG    1        6.234   6.970  -4.392  0.00  0.00    +0.110 A 
ATOM     12  N   LIG    1        5.627   5.769  -4.460  0.00  0.00    -0.530 N 
ATOM     13  H   LIG    1        5.248   5.375  -5.262  0.00  0.00    +0.420 HD
ATOM     14  C   LIG    1        5.629   5.188  -3.213  0.00  0.00    +0.040 A 
ATOM     15  C   LIG    1        6.437   7.922  -5.543  0.00  0.00    +0.160 C 
ATOM     16  C   LIG    1        6.242   6.040  -2.344  0.00  0.00    -0.040 A 
ATOM     17  C   LIG    1        6.461   5.812  -0.871  0.00  0.00    +0.130 C 
BRANCH  10  18
ATOM     18  C   LIG    1        7.340   8.364  -2.570  0.00  0.00    +0.550 C 
ATOM     19  O   LIG    1        6.705   9.309  -2.143  0.00  0.00    -0.500 OA
BRANCH  18  21
ATOM     20  C   LIG    1        9.312   9.602  -2.042  0.00  0.00    +0.250 C 
ATOM     21  O   LIG    1        8.687   8.402  -2.569  0.00  0.00    -0.350 OA
ENDBRANCH  18  21
ENDBRANCH  10  18
ENDBRANCH   1  14
BRANCH   6  22
ATOM     22  C   LIG    1        2.515   0.969  -0.055  0.00  0.00    +0.240 C 
BRANCH  22  23
ATOM     23  C   LIG    1        1.208   0.253   0.167  0.00  0.00    -0.070 A 
ATOM     24  C   LIG    1        1.204  -1.054   0.617  0.00  0.00    +0.020 A 
ATOM     25  C   LIG    1        0.005  -1.712   0.816  0.00  0.00    +0.000 A 
ATOM     26  C   LIG    1       -1.190  -1.061   0.573  0.00  0.00    +0.000 A 
ATOM     27  C   LIG    1       -1.186   0.246   0.122  0.00  0.00    +0.000 A 
ATOM     28  C   LIG    1        0.013   0.903  -0.081  0.00  0.00    +0.020 A 
ENDBRANCH  22  23
ENDBRANCH   6  22
TORSDOF 5
