REMARK  Name = ZINCnE000001D8xf.0
REMARK                            x       y       z     vdW  Elec       q    Type
REMARK                         _______ _______ _______ _____ _____    ______ ____
ROOT
ATOM      1  N   LIG    1       -0.017   1.387   0.010  0.00  0.00    -0.680 NA
ATOM      2  C   LIG    1        1.141   2.076   0.002  0.00  0.00    +0.460 C 
ATOM      3  O   LIG    1        2.200   1.484  -0.011  0.00  0.00    -0.570 OA
ENDROOT
BRANCH   1   7
ATOM      4  C   LIG    1       -0.313  -2.429  -0.008  0.00  0.00    -0.070 A 
ATOM      5  N   LIG    1        0.909  -1.999  -0.017  0.00  0.00    -0.230 NA
ATOM      6  N   LIG    1        1.068  -0.747  -0.018  0.00  0.00    -0.370 NA
ATOM      7  C   LIG    1        0.002  -0.004   0.002  0.00  0.00    +0.290 A 
ATOM      8  S   LIG    1       -1.376  -1.021   0.010  0.00  0.00    -0.010 S 
BRANCH   4  10
ATOM      9  C   LIG    1       -0.193  -4.575   1.228  0.00  0.00    +0.030 C 
ATOM     10  C   LIG    1       -0.748  -3.872  -0.012  0.00  0.00    +0.040 C 
ATOM     11  C   LIG    1       -0.216  -4.561  -1.270  0.00  0.00    +0.030 C 
ATOM     12  C   LIG    1       -2.276  -3.943   0.002  0.00  0.00    +0.040 C 
ENDBRANCH   4  10
ENDBRANCH   1   7
BRANCH   2  13
ATOM     13  C   LIG    1        1.121   3.583   0.011  0.00  0.00    +0.060 C 
BRANCH  13  14
ATOM     14  C   LIG    1        2.556   4.113  -0.000  0.00  0.00    +0.030 C 
ATOM     15  C   LIG    1        3.259   3.703   1.295  0.00  0.00    +0.240 C 
ATOM     16  O   LIG    1        4.501   4.411   1.381  0.00  0.00    -0.380 OA
ATOM     17  C   LIG    1        4.335   5.806   1.636  0.00  0.00    +0.260 C 
ATOM     18  C   LIG    1        3.371   6.406   0.645  0.00  0.00    -0.120 A 
ATOM     19  C   LIG    1        3.329   7.784   0.508  0.00  0.00    +0.000 A 
ATOM     20  C   LIG    1        2.452   8.369  -0.384  0.00  0.00    -0.010 A 
ATOM     21  C   LIG    1        1.612   7.577  -1.143  0.00  0.00    +0.000 A 
ATOM     22  C   LIG    1        1.654   6.203  -1.009  0.00  0.00    +0.010 A 
ATOM     23  C   LIG    1        2.535   5.615  -0.116  0.00  0.00    -0.060 A 
ENDBRANCH  13  14
ENDBRANCH   2  13
TORSDOF 4
