REMARK  Name = ZINCrm000000OU4x.0
REMARK                            x       y       z     vdW  Elec       q    Type
REMARK                         _______ _______ _______ _____ _____    ______ ____
ROOT
ATOM      1  N   LIG    1        3.472   2.051  -0.020  0.00  0.00    -0.670 N 
ATOM      2  H   LIG    1        3.464   3.021  -0.014  0.00  0.00    +0.420 HD
ENDROOT
BRANCH   1   7
ATOM      3  C   LIG    1       -0.016   1.327   0.009  0.00  0.00    +0.560 A 
ATOM      4  N   LIG    1        0.002  -0.004   0.002  0.00  0.00    -0.630 NA
ATOM      5  C   LIG    1        1.155  -0.651  -0.013  0.00  0.00    +0.620 A 
ATOM      6  N   LIG    1        2.293   0.020  -0.020  0.00  0.00    -0.610 NA
ATOM      7  C   LIG    1        2.283   1.351  -0.013  0.00  0.00    +0.620 A 
ATOM      8  N   LIG    1        1.127   2.005   0.002  0.00  0.00    -0.610 NA
BRANCH   3  12
ATOM      9  C   LIG    1       -3.467   1.758  -0.785  0.00  0.00    +0.180 C 
ATOM     10  C   LIG    1       -2.641   2.452  -1.900  0.00  0.00    +0.060 C 
ATOM     11  C   LIG    1       -1.349   2.869  -1.167  0.00  0.00    +0.250 C 
ATOM     12  N   LIG    1       -1.220   2.001   0.019  0.00  0.00    -0.440 N 
ATOM     13  C   LIG    1       -2.357   1.056   0.036  0.00  0.00    +0.260 C 
BRANCH   9  14
ATOM     14  N   LIG    1       -4.399   0.776  -1.355  0.00  0.00    -0.630 N 
ATOM     15  H   LIG    1       -5.034   1.242  -1.986  0.00  0.00    +0.440 HD
ATOM     16  H   LIG    1       -4.924   0.340  -0.612  0.00  0.00    +0.440 HD
ATOM     17  H   LIG    1       -3.881   0.073  -1.859  0.00  0.00    +0.430 HD
ENDBRANCH   9  14
ENDBRANCH   3  12
ENDBRANCH   1   7
BRANCH   1  18
ATOM     18  C   LIG    1        4.747   1.329  -0.035  0.00  0.00    +0.300 C 
BRANCH  18  19
ATOM     19  C   LIG    1        5.902   2.333  -0.040  0.00  0.00    +0.040 C 
BRANCH  19  20
ATOM     20  C   LIG    1        7.228   1.584  -0.182  0.00  0.00    +0.010 C 
ATOM     21  C   LIG    1        8.384   2.587  -0.192  0.00  0.00    +0.070 C 
ATOM     22  C   LIG    1        9.700   1.839  -0.415  0.00  0.00    +0.260 C 
ATOM     23  N   LIG    1        9.653   1.129  -1.700  0.00  0.00    -0.510 N 
ATOM     24  C   LIG    1        8.593   0.115  -1.670  0.00  0.00    +0.250 C 
ATOM     25  H   LIG    1        9.466   1.790  -2.439  0.00  0.00    +0.430 HD
ATOM     26  H   LIG    1       10.542   0.681  -1.868  0.00  0.00    +0.430 HD
ATOM     27  C   LIG    1        7.234   0.798  -1.497  0.00  0.00    +0.060 C 
ENDBRANCH  19  20
BRANCH  19  28
ATOM     28  C   LIG    1        5.899   3.109   1.252  0.00  0.00    -0.100 A 
ATOM     29  C   LIG    1        6.032   2.445   2.457  0.00  0.00    +0.010 A 
ATOM     30  C   LIG    1        6.034   3.157   3.642  0.00  0.00    +0.020 A 
ATOM     31  C   LIG    1        5.893   4.532   3.622  0.00  0.00    +0.020 A 
ATOM     32  C   LIG    1        5.753   5.195   2.417  0.00  0.00    +0.020 A 
ATOM     33  C   LIG    1        5.756   4.484   1.232  0.00  0.00    +0.000 A 
ENDBRANCH  19  28
ENDBRANCH  18  19
ENDBRANCH   1  18
TORSDOF 7
