REMARK  Name = ZINCrH000004kR9O.0
REMARK                            x       y       z     vdW  Elec       q    Type
REMARK                         _______ _______ _______ _____ _____    ______ ____
ROOT
ATOM      1  N   LIG    1        1.158   3.499   0.010  0.00  0.00    -0.670 N 
ATOM      2  H   LIG    1        1.990   3.993   0.086  0.00  0.00    +0.420 HD
ATOM      3  C   LIG    1       -0.013   4.160  -0.077  0.00  0.00    +0.520 C 
ATOM      4  O   LIG    1       -1.058   3.546  -0.071  0.00  0.00    -0.500 OA
ENDROOT
BRANCH   1   7
ATOM      5  C   LIG    1        0.160   0.005  -0.626  0.00  0.00    -0.150 A 
ATOM      6  C   LIG    1        0.140   1.402  -0.609  0.00  0.00    +0.160 A 
ATOM      7  C   LIG    1        1.175   2.098  -0.009  0.00  0.00    +0.100 A 
ATOM      8  C   LIG    1        2.233   1.406   0.576  0.00  0.00    +0.140 A 
ATOM      9  C   LIG    1        2.255   0.022   0.561  0.00  0.00    -0.010 A 
ATOM     10  F   LIG    1        3.241   2.089   1.161  0.00  0.00    -0.120 F 
ATOM     11  C   LIG    1        1.226  -0.682  -0.036  0.00  0.00    +0.180 A 
ATOM     12  F   LIG    1        1.251  -2.033  -0.050  0.00  0.00    -0.100 F 
BRANCH   5  13
ATOM     13  C   LIG    1       -0.940  -0.742  -1.264  0.00  0.00    +0.510 C 
ATOM     14  O   LIG    1       -0.921  -1.957  -1.277  0.00  0.00    -0.490 OA
BRANCH  13  16
ATOM     15  C   LIG    1       -3.013  -0.879  -2.440  0.00  0.00    +0.290 C 
ATOM     16  O   LIG    1       -1.966  -0.078  -1.831  0.00  0.00    -0.350 OA
ENDBRANCH  13  16
ENDBRANCH   5  13
ENDBRANCH   1   7
BRANCH   3  17
ATOM     17  C   LIG    1       -0.023   5.664  -0.183  0.00  0.00    +0.120 C 
BRANCH  17  18
ATOM     18  C   LIG    1       -1.446   6.152  -0.266  0.00  0.00    -0.090 A 
ATOM     19  C   LIG    1       -2.054   6.297  -1.500  0.00  0.00    +0.060 A 
ATOM     20  C   LIG    1       -3.361   6.740  -1.579  0.00  0.00    -0.010 A 
ATOM     21  C   LIG    1       -4.059   7.049  -0.420  0.00  0.00    +0.150 A 
ATOM     22  C   LIG    1       -3.444   6.907   0.817  0.00  0.00    -0.010 A 
ATOM     23  C   LIG    1       -2.140   6.459   0.890  0.00  0.00    +0.060 A 
BRANCH  21  24
ATOM     24  N   LIG    1       -5.383   7.504  -0.498  0.00  0.00    -0.400 N 
ATOM     25  C   LIG    1       -6.175   7.835   0.564  0.00  0.00    +0.140 A 
ATOM     26  C   LIG    1       -7.373   8.230   0.089  0.00  0.00    -0.050 A 
ATOM     27  C   LIG    1       -7.325   8.132  -1.316  0.00  0.00    -0.050 A 
ATOM     28  C   LIG    1       -6.096   7.686  -1.648  0.00  0.00    +0.150 A 
ENDBRANCH  21  24
ENDBRANCH  17  18
ENDBRANCH   3  17
TORSDOF 6
