REMARK  Name = ZINCvU0000000DZf.0
REMARK                            x       y       z     vdW  Elec       q    Type
REMARK                         _______ _______ _______ _____ _____    ______ ____
ROOT
ATOM      1  C   LIG    1       -3.208   5.597  -2.881  0.00  0.00    +0.010 C 
ATOM      2  C   LIG    1       -4.736   5.545  -2.922  0.00  0.00    +0.090 C 
ENDROOT
BRANCH   1   5
ATOM      3  N   LIG    1       -2.748   8.019  -3.087  0.00  0.00    -0.660 N 
ATOM      4  H   LIG    1       -2.956   7.947  -4.032  0.00  0.00    +0.410 HD
ATOM      5  C   LIG    1       -2.766   6.919  -2.308  0.00  0.00    +0.540 C 
ATOM      6  O   LIG    1       -2.425   6.994  -1.147  0.00  0.00    -0.500 OA
BRANCH   3  10
ATOM      7  C   LIG    1       -1.802  11.729  -1.436  0.00  0.00    +0.130 A 
ATOM      8  C   LIG    1       -1.177  10.581  -0.968  0.00  0.00    +0.000 A 
ATOM      9  C   LIG    1       -1.490   9.353  -1.514  0.00  0.00    +0.040 A 
ATOM     10  C   LIG    1       -2.431   9.265  -2.533  0.00  0.00    +0.130 A 
ATOM     11  C   LIG    1       -3.052  10.414  -3.005  0.00  0.00    +0.010 A 
ATOM     12  C   LIG    1       -2.743  11.642  -2.454  0.00  0.00    +0.040 A 
BRANCH   7  15
ATOM     13  C   LIG    1       -2.122  15.220  -0.059  0.00  0.00    +0.110 C 
ATOM     14  C   LIG    1       -2.439  13.918  -0.750  0.00  0.00    +0.510 C 
ATOM     15  N   LIG    1       -1.484  12.976  -0.882  0.00  0.00    -0.670 N 
ATOM     16  H   LIG    1       -0.577  13.161  -0.594  0.00  0.00    +0.410 HD
ATOM     17  O   LIG    1       -3.553  13.718  -1.186  0.00  0.00    -0.530 OA
ENDBRANCH   7  15
ENDBRANCH   3  10
ENDBRANCH   1   5
BRANCH   1  18
ATOM     18  S   LIG    1       -2.586   4.252  -1.842  0.00  0.00    +0.080 S 
BRANCH  18  19
ATOM     19  C   LIG    1       -3.103   2.864  -2.797  0.00  0.00    +0.250 A 
ATOM     20  N   LIG    1       -3.754   2.931  -3.932  0.00  0.00    -0.490 NA
ATOM     21  C   LIG    1       -3.994   1.677  -4.396  0.00  0.00    +0.060 A 
ATOM     22  C   LIG    1       -4.635   1.181  -5.534  0.00  0.00    +0.060 A 
ATOM     23  C   LIG    1       -4.720  -0.179  -5.732  0.00  0.00    +0.000 A 
ATOM     24  C   LIG    1       -4.175  -1.060  -4.811  0.00  0.00    +0.030 A 
ATOM     25  C   LIG    1       -3.539  -0.586  -3.682  0.00  0.00    +0.010 A 
ATOM     26  C   LIG    1       -3.438   0.780  -3.468  0.00  0.00    +0.060 A 
ATOM     27  N   LIG    1       -2.885   1.557  -2.464  0.00  0.00    -0.470 N 
BRANCH  27  28
ATOM     28  C   LIG    1       -2.191   1.068  -1.270  0.00  0.00    +0.240 C 
ATOM     29  C   LIG    1       -0.757   1.601  -1.260  0.00  0.00    +0.010 C 
ATOM     30  C   LIG    1       -0.032   1.090  -0.013  0.00  0.00    +0.030 C 
ATOM     31  C   LIG    1       -0.765   1.577   1.238  0.00  0.00    +0.010 C 
ATOM     32  C   LIG    1       -2.200   1.045   1.229  0.00  0.00    +0.030 C 
ATOM     33  C   LIG    1       -2.925   1.555  -0.018  0.00  0.00    +0.010 C 
ENDBRANCH  27  28
ENDBRANCH  18  19
ENDBRANCH   1  18
TORSDOF 6
