REMARK  Name = ZINCpe00000zsuwN.0
REMARK                            x       y       z     vdW  Elec       q    Type
REMARK                         _______ _______ _______ _____ _____    ______ ____
ROOT
ATOM      1  C   LIG    1       -3.808   1.746   0.037  0.00  0.00    +0.200 C 
ATOM      2  C   LIG    1       -4.131   2.270   1.459  0.00  0.00    +0.060 C 
ATOM      3  C   LIG    1       -5.675   2.407   1.397  0.00  0.00    +0.040 C 
ATOM      4  C   LIG    1       -6.093   1.216   0.510  0.00  0.00    +0.250 C 
ATOM      5  N   LIG    1       -4.920   0.836  -0.294  0.00  0.00    -0.610 N 
ATOM      6  C   LIG    1       -4.869  -0.175  -1.183  0.00  0.00    +0.550 C 
ATOM      7  O   LIG    1       -3.878  -0.335  -1.864  0.00  0.00    -0.510 OA
ENDROOT
BRANCH   6   8
ATOM      8  C   LIG    1       -6.044  -1.107  -1.333  0.00  0.00    -0.010 C 
ATOM      9  C   LIG    1       -6.033  -1.724  -2.735  0.00  0.00    +0.090 C 
ATOM     10  C   LIG    1       -7.340  -2.489  -2.969  0.00  0.00    +0.340 C 
ATOM     11  N   LIG    1       -7.568  -3.392  -1.838  0.00  0.00    -0.310 N 
ATOM     12  N   LIG    1       -8.356  -4.404  -1.774  0.00  0.00    -0.090 NA
ATOM     13  N   LIG    1       -8.257  -4.931  -0.600  0.00  0.00    -0.080 NA
ATOM     14  N   LIG    1       -7.405  -4.260   0.102  0.00  0.00    -0.290 NA
ATOM     15  C   LIG    1       -6.954  -3.289  -0.642  0.00  0.00    +0.190 A 
ATOM     16  C   LIG    1       -5.946  -2.227  -0.287  0.00  0.00    +0.200 C 
ENDBRANCH   6   8
BRANCH   1  18
ATOM     17  O   LIG    1       -2.495  -0.215   0.032  0.00  0.00    -0.420 OA
ATOM     18  C   LIG    1       -2.500   0.998   0.038  0.00  0.00    +0.390 C 
BRANCH  18  19
ATOM     19  C   LIG    1       -1.231   1.737   0.047  0.00  0.00    -0.170 A 
ATOM     20  C   LIG    1       -0.014   1.043   0.048  0.00  0.00    +0.100 A 
ATOM     21  C   LIG    1        1.168   1.738   0.050  0.00  0.00    -0.020 A 
ATOM     22  C   LIG    1        1.160   3.129   0.057  0.00  0.00    +0.140 A 
ATOM     23  C   LIG    1       -0.046   3.822   0.062  0.00  0.00    -0.020 A 
ATOM     24  C   LIG    1       -1.234   3.137   0.060  0.00  0.00    +0.080 A 
BRANCH  22  25
ATOM     25  O   LIG    1        2.332   3.812   0.059  0.00  0.00    -0.500 OA
ATOM     26  H   LIG    1        2.671   4.014  -0.824  0.00  0.00    +0.400 HD
ENDBRANCH  22  25
ENDBRANCH  18  19
ENDBRANCH   1  18
TORSDOF 4
