REMARK  Name = ZINCtV000002OgJy.0
REMARK                            x       y       z     vdW  Elec       q    Type
REMARK                         _______ _______ _______ _____ _____    ______ ____
ROOT
ATOM      1  O   LIG    1       -0.276   9.476  -0.247  0.00  0.00    -0.550 OA
ATOM      2  C   LIG    1       -1.293  10.069   0.054  0.00  0.00    +0.700 C 
ATOM      3  N   LIG    1       -1.262  11.401   0.256  0.00  0.00    -0.680 N 
ATOM      4  H   LIG    1       -2.058  11.864   0.561  0.00  0.00    +0.410 HD
ATOM      5  N   LIG    1       -2.453   9.395   0.185  0.00  0.00    -0.680 N 
ATOM      6  H   LIG    1       -3.248   9.854   0.498  0.00  0.00    +0.410 HD
ENDROOT
BRANCH   3   7
ATOM      7  C   LIG    1       -0.082  12.116   0.026  0.00  0.00    +0.170 A 
ATOM      8  C   LIG    1        1.147  11.541   0.328  0.00  0.00    +0.030 A 
ATOM      9  C   LIG    1        2.312  12.241   0.098  0.00  0.00    +0.060 A 
ATOM     10  C   LIG    1        2.256  13.532  -0.429  0.00  0.00    -0.040 A 
ATOM     11  C   LIG    1        1.020  14.108  -0.727  0.00  0.00    +0.050 A 
ATOM     12  C   LIG    1       -0.141  13.401  -0.499  0.00  0.00    -0.010 A 
BRANCH  10  13
ATOM     13  C   LIG    1        3.503  14.288  -0.673  0.00  0.00    -0.090 A 
ATOM     14  C   LIG    1        4.797  13.878  -0.440  0.00  0.00    -0.040 A 
ATOM     15  C   LIG    1        5.753  14.807  -0.770  0.00  0.00    +0.270 A 
ATOM     16  N   LIG    1        5.366  15.949  -1.255  0.00  0.00    -0.450 NA
ATOM     17  S   LIG    1        3.671  15.922  -1.337  0.00  0.00    +0.220 S 
ENDBRANCH  10  13
ENDBRANCH   3   7
BRANCH   5  18
ATOM     18  C   LIG    1       -2.509   8.030  -0.129  0.00  0.00    +0.170 A 
ATOM     19  C   LIG    1       -1.723   7.521  -1.154  0.00  0.00    +0.030 A 
ATOM     20  C   LIG    1       -1.779   6.176  -1.464  0.00  0.00    +0.040 A 
ATOM     21  C   LIG    1       -2.622   5.335  -0.751  0.00  0.00    +0.070 A 
ATOM     22  C   LIG    1       -3.412   5.844   0.269  0.00  0.00    +0.050 A 
ATOM     23  C   LIG    1       -3.352   7.188   0.584  0.00  0.00    +0.000 A 
BRANCH  21  24
ATOM     24  O   LIG    1       -2.678   4.011  -1.058  0.00  0.00    -0.240 OA
BRANCH  24  25
ATOM     25  C   LIG    1       -1.658   3.218  -0.643  0.00  0.00    +0.320 A 
ATOM     26  C   LIG    1       -1.725   1.847  -0.852  0.00  0.00    -0.020 A 
ATOM     27  C   LIG    1       -0.680   1.048  -0.420  0.00  0.00    +0.130 A 
ATOM     28  C   LIG    1        0.405   1.654   0.200  0.00  0.00    -0.130 A 
ATOM     29  C   LIG    1        0.406   3.025   0.370  0.00  0.00    +0.330 A 
ATOM     30 CL   LIG    1        1.744   0.699   0.755  0.00  0.00    -0.050 Cl
ATOM     31  N   LIG    1       -0.607   3.759  -0.049  0.00  0.00    -0.510 NA
ENDBRANCH  24  25
ENDBRANCH  21  24
ENDBRANCH   5  18
TORSDOF 5
