REMARK  Name = ZINCqH0000005jhB.0
REMARK                            x       y       z     vdW  Elec       q    Type
REMARK                         _______ _______ _______ _____ _____    ______ ____
ROOT
ATOM      1  C   LIG    1        2.418   1.477  -0.013  0.00  0.00    +0.290 C 
ATOM      2  N   LIG    1        1.139   2.192   0.003  0.00  0.00    -0.600 N 
ATOM      3  C   LIG    1       -0.018   1.503   0.010  0.00  0.00    +0.540 C 
ATOM      4  O   LIG    1       -1.077   2.095   0.018  0.00  0.00    -0.530 OA
ENDROOT
BRANCH   3   5
ATOM      5  C   LIG    1        0.002  -0.004   0.002  0.00  0.00    +0.000 C 
ATOM      6  C   LIG    1        0.718  -0.497  -1.257  0.00  0.00    +0.030 C 
ATOM      7  C   LIG    1       -0.022   0.009  -2.496  0.00  0.00    +0.010 C 
ATOM      8  C   LIG    1       -1.457  -0.520  -2.486  0.00  0.00    +0.000 C 
ATOM      9  C   LIG    1       -2.173  -0.027  -1.227  0.00  0.00    +0.030 C 
ATOM     10  C   LIG    1       -1.433  -0.534   0.013  0.00  0.00    +0.040 C 
BRANCH   8  11
ATOM     11  C   LIG    1       -2.197  -0.013  -3.725  0.00  0.00    -0.060 C 
ATOM     12  C   LIG    1       -3.632  -0.543  -3.714  0.00  0.00    +0.020 C 
ATOM     13  C   LIG    1       -1.481  -0.507  -4.984  0.00  0.00    +0.020 C 
ATOM     14  C   LIG    1       -2.218   1.516  -3.717  0.00  0.00    +0.020 C 
ENDBRANCH   8  11
ENDBRANCH   3   5
BRANCH   2  15
ATOM     15  C   LIG    1        1.120   3.657   0.011  0.00  0.00    +0.390 C 
BRANCH  15  16
ATOM     16  C   LIG    1        1.126   4.152   1.435  0.00  0.00    +0.430 A 
ATOM     17  N   LIG    1        1.142   3.270   2.395  0.00  0.00    -0.580 NA
ATOM     18  C   LIG    1        1.155   3.634   3.692  0.00  0.00    +0.530 A 
ATOM     19  C   LIG    1        1.138   5.074   4.007  0.00  0.00    -0.210 A 
ATOM     20  C   LIG    1        1.145   5.543   5.318  0.00  0.00    +0.110 A 
ATOM     21  C   LIG    1        1.129   6.902   5.552  0.00  0.00    -0.010 A 
ATOM     22  C   LIG    1        1.106   7.797   4.493  0.00  0.00    +0.080 A 
ATOM     23  C   LIG    1        1.100   7.347   3.189  0.00  0.00    -0.020 A 
ATOM     24  C   LIG    1        1.116   5.983   2.933  0.00  0.00    +0.180 A 
ATOM     25  O   LIG    1        1.175   2.798   4.578  0.00  0.00    -0.480 OA
ATOM     26  N   LIG    1        1.110   5.479   1.648  0.00  0.00    -0.620 N 
ATOM     27  H   LIG    1        1.095   6.088   0.893  0.00  0.00    +0.420 HD
ENDBRANCH  15  16
ENDBRANCH   2  15
TORSDOF 4
