REMARK  Name = ZINCvU0000000Fhu.0
REMARK                            x       y       z     vdW  Elec       q    Type
REMARK                         _______ _______ _______ _____ _____    ______ ____
ROOT
ATOM      1  N   LIG    1        7.407   2.143  -1.287  0.00  0.00    -0.530 N 
ATOM      2  C   LIG    1        8.427   3.031  -1.325  0.00  0.00    +0.560 A 
ATOM      3  C   LIG    1        8.171   4.382  -0.807  0.00  0.00    -0.190 A 
ATOM      4  C   LIG    1        9.156   5.368  -0.803  0.00  0.00    +0.140 A 
ATOM      5  C   LIG    1        8.860   6.619  -0.305  0.00  0.00    -0.110 A 
ATOM      6  C   LIG    1        7.593   6.901   0.190  0.00  0.00    +0.110 A 
ATOM      7  C   LIG    1        6.613   5.949   0.195  0.00  0.00    +0.050 A 
ATOM      8 BR   LIG    1       10.191   7.963  -0.295  0.00  0.00    -0.030 Br
ATOM      9  C   LIG    1        6.882   4.671  -0.303  0.00  0.00    +0.180 A 
ATOM     10  N   LIG    1        5.936   3.703  -0.321  0.00  0.00    -0.520 NA
ATOM     11  O   LIG    1        9.517   2.723  -1.771  0.00  0.00    -0.490 OA
ATOM     12  C   LIG    1        6.190   2.504  -0.783  0.00  0.00    +0.380 A 
ENDROOT
BRANCH   1  13
ATOM     13  C   LIG    1        7.610   0.782  -1.791  0.00  0.00    +0.300 C 
BRANCH  13  14
ATOM     14  C   LIG    1        7.263   0.733  -3.280  0.00  0.00    +0.000 C 
BRANCH  14  15
ATOM     15  C   LIG    1        7.474  -0.688  -3.807  0.00  0.00    +0.030 C 
BRANCH  15  17
ATOM     16  C   LIG    1        7.339  -2.159  -5.822  0.00  0.00    +0.010 C 
ATOM     17  C   LIG    1        7.127  -0.738  -5.296  0.00  0.00    +0.000 C 
ENDBRANCH  15  17
ENDBRANCH  14  15
ENDBRANCH  13  14
ENDBRANCH   1  13
BRANCH  12  18
ATOM     18  S   LIG    1        4.901   1.304  -0.761  0.00  0.00    +0.000 S 
BRANCH  18  19
ATOM     19  C   LIG    1        3.571   2.285  -0.021  0.00  0.00    +0.120 C 
ATOM     20  C   LIG    1        3.950   2.656   1.414  0.00  0.00    +0.110 C 
BRANCH  19  21
ATOM     21  C   LIG    1        2.298   1.479  -0.012  0.00  0.00    +0.470 A 
ATOM     22  N   LIG    1        1.162   2.119   0.002  0.00  0.00    -0.580 NA
ATOM     23  C   LIG    1       -0.018   1.470   0.010  0.00  0.00    +0.540 A 
ATOM     24  C   LIG    1        0.002  -0.004   0.002  0.00  0.00    -0.210 A 
ATOM     25  C   LIG    1       -1.168  -0.760   0.010  0.00  0.00    +0.110 A 
ATOM     26  C   LIG    1       -1.086  -2.135   0.001  0.00  0.00    +0.000 A 
ATOM     27  C   LIG    1        0.150  -2.767  -0.013  0.00  0.00    +0.090 A 
ATOM     28  C   LIG    1        1.317  -2.031  -0.021  0.00  0.00    -0.020 A 
ATOM     29  C   LIG    1        1.255  -0.645  -0.013  0.00  0.00    +0.170 A 
ATOM     30  O   LIG    1       -1.071   2.083   0.018  0.00  0.00    -0.470 OA
ATOM     31  N   LIG    1        2.392   0.138  -0.020  0.00  0.00    -0.620 N 
ATOM     32  H   LIG    1        3.266  -0.283  -0.031  0.00  0.00    +0.420 HD
ENDBRANCH  19  21
ENDBRANCH  18  19
ENDBRANCH  12  18
TORSDOF 7
