REMARK  Name = ZINCrH000004tZU8.0
REMARK                            x       y       z     vdW  Elec       q    Type
REMARK                         _______ _______ _______ _____ _____    ______ ____
ROOT
ATOM      1  C   LIG    1        1.524   0.344  -1.888  0.00  0.00    +0.500 C 
ATOM      2  N   LIG    1        1.006  -0.483  -0.959  0.00  0.00    -0.610 N 
ATOM      3  C   LIG    1        1.415  -1.894  -0.892  0.00  0.00    +0.300 C 
ATOM      4  C   LIG    1        2.143  -2.129   0.434  0.00  0.00    +0.120 C 
ATOM      5  C   LIG    1        1.357  -1.479   1.552  0.00  0.00    -0.170 A 
ATOM      6  C   LIG    1        0.415  -0.530   1.387  0.00  0.00    -0.120 A 
ATOM      7  C   LIG    1       -0.153  -0.089   2.578  0.00  0.00    +0.020 A 
ATOM      8  C   LIG    1        0.309  -0.664   3.683  0.00  0.00    -0.040 A 
ATOM      9  S   LIG    1        1.542  -1.844   3.263  0.00  0.00    +0.110 S 
ATOM     10  C   LIG    1        0.017   0.001   0.015  0.00  0.00    +0.390 C 
ATOM     11  O   LIG    1        1.232   1.522  -1.882  0.00  0.00    -0.490 OA
ENDROOT
BRANCH  10  12
ATOM     12  C   LIG    1        0.013   1.508   0.033  0.00  0.00    -0.150 A 
ATOM     13  C   LIG    1       -1.022   2.278  -0.304  0.00  0.00    +0.000 A 
ATOM     14  C   LIG    1       -0.792   3.640  -0.207  0.00  0.00    +0.000 A 
ATOM     15  C   LIG    1        0.433   3.975   0.200  0.00  0.00    -0.060 A 
ATOM     16  S   LIG    1        1.376   2.520   0.492  0.00  0.00    +0.140 S 
ENDBRANCH  10  12
BRANCH   1  17
ATOM     17  C   LIG    1        2.467  -0.193  -2.933  0.00  0.00    +0.330 C 
BRANCH  17  27
ATOM     18  O   LIG    1        4.636   1.371  -2.518  0.00  0.00    -0.520 OA
ATOM     19  C   LIG    1        3.986   1.617  -3.519  0.00  0.00    +0.570 A 
ATOM     20  C   LIG    1        4.375   2.674  -4.400  0.00  0.00    -0.230 A 
ATOM     21  C   LIG    1        3.589   2.902  -5.526  0.00  0.00    +0.070 A 
ATOM     22  S   LIG    1        4.258   4.241  -6.450  0.00  0.00    +0.200 S 
ATOM     23  C   LIG    1        5.570   4.461  -5.308  0.00  0.00    -0.050 A 
ATOM     24  N   LIG    1        2.503   2.132  -5.748  0.00  0.00    -0.500 NA
ATOM     25  C   LIG    1        2.170   1.171  -4.938  0.00  0.00    +0.600 A 
ATOM     26  C   LIG    1        5.495   3.590  -4.319  0.00  0.00    +0.080 A 
ATOM     27  N   LIG    1        2.887   0.896  -3.818  0.00  0.00    -0.520 N 
ENDBRANCH  17  27
ENDBRANCH   1  17
TORSDOF 3
