REMARK  Name = ZINCpe000000ZERZ.0
REMARK                            x       y       z     vdW  Elec       q    Type
REMARK                         _______ _______ _______ _____ _____    ______ ____
ROOT
ATOM      1  N   LIG    1        2.057   1.273   1.281  0.00  0.00    -1.000 NA
ATOM      2  C   LIG    1        1.338   1.613   2.519  0.00  0.00    +0.270 C 
ATOM      3  C   LIG    1       -0.095   1.081   2.407  0.00  0.00    +0.220 C 
ATOM      4  O   LIG    1       -0.676   1.548   1.187  0.00  0.00    -0.370 OA
ATOM      5  C   LIG    1       -0.013   1.086   0.008  0.00  0.00    +0.210 C 
ATOM      6  C   LIG    1        1.425   1.617  -0.003  0.00  0.00    +0.280 C 
ENDROOT
BRANCH   5   7
ATOM      7  C   LIG    1       -0.744   1.586  -1.211  0.00  0.00    -0.070 A 
ATOM      8  C   LIG    1       -1.259   2.869  -1.230  0.00  0.00    +0.030 A 
ATOM      9  C   LIG    1       -1.926   3.332  -2.349  0.00  0.00    +0.020 A 
ATOM     10  C   LIG    1       -2.088   2.511  -3.447  0.00  0.00    -0.010 A 
ATOM     11  C   LIG    1       -1.577   1.221  -3.429  0.00  0.00    +0.110 A 
ATOM     12  C   LIG    1       -0.903   0.760  -2.307  0.00  0.00    +0.000 A 
BRANCH  11  13
ATOM     13  O   LIG    1       -1.735   0.411  -4.508  0.00  0.00    -0.500 OA
ATOM     14  H   LIG    1       -2.543  -0.121  -4.486  0.00  0.00    +0.390 HD
ENDBRANCH  11  13
ENDBRANCH   5   7
BRANCH   1  16
ATOM     15  O   LIG    1        3.531  -0.175   2.566  0.00  0.00    -0.950 OA
ATOM     16  S   LIG    1        3.534   0.525   1.330  0.00  0.00    +2.610 S 
ATOM     17  O   LIG    1        3.616  -0.170   0.094  0.00  0.00    -0.950 OA
BRANCH  16  18
ATOM     18  C   LIG    1        4.730   1.889   1.374  0.00  0.00    -0.360 C 
BRANCH  18  19
ATOM     19  C   LIG    1        6.150   1.320   1.422  0.00  0.00    +0.060 C 
BRANCH  19  20
ATOM     20  C   LIG    1        7.158   2.470   1.460  0.00  0.00    +0.180 C 
BRANCH  20  21
ATOM     21  N   LIG    1        8.521   1.924   1.506  0.00  0.00    -0.540 NA
ATOM     22  C   LIG    1        8.762   1.215   2.770  0.00  0.00    +0.150 C 
ATOM     23  C   LIG    1       10.170   0.613   2.751  0.00  0.00    +0.220 C 
ATOM     24  O   LIG    1       11.125   1.653   2.523  0.00  0.00    -0.380 OA
ATOM     25  C   LIG    1       10.920   2.364   1.299  0.00  0.00    +0.220 C 
ATOM     26  C   LIG    1        9.520   2.984   1.304  0.00  0.00    +0.150 C 
ENDBRANCH  20  21
ENDBRANCH  19  20
ENDBRANCH  18  19
ENDBRANCH  16  18
ENDBRANCH   1  16
TORSDOF 7
