REMARK  Name = ZINCrD00000hQ6VN.0
REMARK                            x       y       z     vdW  Elec       q    Type
REMARK                         _______ _______ _______ _____ _____    ______ ____
ROOT
ATOM      1  C   LIG    1       -0.351   2.656   6.239  0.00  0.00    +0.290 C 
ENDROOT
BRANCH   1   2
ATOM      2  C   LIG    1       -1.248   2.318   7.401  0.00  0.00    -0.100 A 
ATOM      3  C   LIG    1       -1.003   1.197   8.133  0.00  0.00    +0.050 A 
ATOM      4  C   LIG    1       -1.837   0.879   9.218  0.00  0.00    -0.050 A 
ATOM      5  C   LIG    1       -1.616  -0.269   9.997  0.00  0.00    +0.030 A 
ATOM      6  C   LIG    1       -2.445  -0.545  11.041  0.00  0.00    +0.000 A 
ATOM      7  C   LIG    1       -3.513   0.294  11.350  0.00  0.00    +0.010 A 
ATOM      8  C   LIG    1       -3.758   1.415  10.618  0.00  0.00    +0.020 A 
ATOM      9  C   LIG    1       -2.924   1.733   9.533  0.00  0.00    -0.050 A 
ATOM     10  C   LIG    1       -3.145   2.882   8.754  0.00  0.00    +0.030 A 
ATOM     11  C   LIG    1       -2.313   3.161   7.714  0.00  0.00    +0.020 A 
ENDBRANCH   1   2
BRANCH   1  12
ATOM     12  N   LIG    1       -1.160   3.164   5.129  0.00  0.00    -0.730 N 
ATOM     13  H   LIG    1       -1.297   4.119   5.026  0.00  0.00    +0.400 HD
ATOM     14  C   LIG    1       -1.715   2.305   4.251  0.00  0.00    +0.520 C 
ATOM     15  O   LIG    1       -1.471   1.120   4.325  0.00  0.00    -0.520 OA
BRANCH  14  16
ATOM     16  C   LIG    1       -2.639   2.818   3.176  0.00  0.00    +0.070 C 
BRANCH  16  17
ATOM     17  C   LIG    1       -3.127   1.647   2.321  0.00  0.00    +0.180 C 
ATOM     18  C   LIG    1       -3.964   2.179   1.155  0.00  0.00    -0.010 C 
ATOM     19  C   LIG    1       -4.498   0.998   0.339  0.00  0.00    +0.010 C 
ATOM     20  C   LIG    1       -5.304   0.077   1.261  0.00  0.00    -0.020 C 
ATOM     21  C   LIG    1       -4.415  -0.374   2.423  0.00  0.00    +0.200 C 
ATOM     22  O   LIG    1       -3.926   0.773   3.121  0.00  0.00    -0.370 OA
ENDBRANCH  16  17
ENDBRANCH  14  16
ENDBRANCH   1  12
BRANCH   1  23
ATOM     23  C   LIG    1        0.657   3.725   6.666  0.00  0.00    +0.290 C 
BRANCH  23  26
ATOM     24  O   LIG    1        2.486   5.705   6.684  0.00  0.00    -0.510 OA
ATOM     25  C   LIG    1        2.359   5.126   5.627  0.00  0.00    +0.500 C 
ATOM     26  N   LIG    1        1.470   4.119   5.512  0.00  0.00    -0.730 N 
ATOM     27  H   LIG    1        1.368   3.655   4.667  0.00  0.00    +0.400 HD
BRANCH  25  28
ATOM     28  C   LIG    1        3.195   5.531   4.440  0.00  0.00    +0.170 C 
ATOM     29 CL   LIG    1        4.278   6.895   4.906  0.00  0.00    -0.130 Cl
ENDBRANCH  25  28
ENDBRANCH  23  26
ENDBRANCH   1  23
TORSDOF 7
