REMARK  Name = ZINCtV00001bB3aD.0
REMARK                            x       y       z     vdW  Elec       q    Type
REMARK                         _______ _______ _______ _____ _____    ______ ____
ROOT
ATOM      1  C   LIG    1        6.112   4.048   2.212  0.00  0.00    +0.160 A 
ATOM      2  N   LIG    1        7.251   4.513   1.748  0.00  0.00    -0.270 NA
ATOM      3  N   LIG    1        7.339   4.231   0.382  0.00  0.00    -0.300 N 
ATOM      4  C   LIG    1        6.234   3.572  -0.017  0.00  0.00    +0.280 A 
ATOM      5  C   LIG    1        5.410   3.425   1.084  0.00  0.00    -0.230 A 
ENDROOT
BRANCH   1  10
ATOM      6  C   LIG    1        4.232   4.397   7.643  0.00  0.00    +0.090 C 
ATOM      7  C   LIG    1        4.724   4.306   6.222  0.00  0.00    -0.070 A 
ATOM      8  C   LIG    1        6.074   4.138   5.969  0.00  0.00    +0.010 A 
ATOM      9  C   LIG    1        6.530   4.054   4.670  0.00  0.00    +0.050 A 
ATOM     10  C   LIG    1        5.628   4.138   3.610  0.00  0.00    -0.030 A 
ATOM     11  C   LIG    1        4.269   4.312   3.871  0.00  0.00    +0.040 A 
ATOM     12  C   LIG    1        3.824   4.390   5.175  0.00  0.00    +0.010 A 
ENDBRANCH   1  10
BRANCH   3  13
ATOM     13  C   LIG    1        8.415   4.577  -0.445  0.00  0.00    +0.150 A 
ATOM     14  C   LIG    1        8.394   4.238  -1.792  0.00  0.00    -0.010 A 
ATOM     15  C   LIG    1        9.454   4.586  -2.606  0.00  0.00    +0.050 A 
ATOM     16  C   LIG    1       10.540   5.260  -2.079  0.00  0.00    +0.010 A 
ATOM     17  C   LIG    1       10.567   5.593  -0.738  0.00  0.00    +0.040 A 
ATOM     18  C   LIG    1        9.507   5.254   0.081  0.00  0.00    +0.030 A 
ENDBRANCH   3  13
BRANCH   5  19
ATOM     19  C   LIG    1        4.098   2.771   1.118  0.00  0.00    +0.220 C 
ATOM     20  C   LIG    1        3.421   2.540  -0.042  0.00  0.00    -0.060 C 
BRANCH  20  21
ATOM     21  C   LIG    1        2.171   1.746  -0.024  0.00  0.00    -0.080 A 
ATOM     22  C   LIG    1        0.991   2.309   0.459  0.00  0.00    +0.070 A 
ATOM     23  C   LIG    1       -0.171   1.565   0.473  0.00  0.00    +0.010 A 
ATOM     24  C   LIG    1       -0.168   0.262   0.009  0.00  0.00    +0.060 A 
ATOM     25  C   LIG    1        0.999  -0.305  -0.472  0.00  0.00    -0.010 A 
ATOM     26  C   LIG    1        2.169   0.430  -0.492  0.00  0.00    +0.120 A 
ATOM     27  F   LIG    1        3.308  -0.124  -0.962  0.00  0.00    -0.130 F 
ENDBRANCH  20  21
BRANCH  20  28
ATOM     28  C   LIG    1        3.919   3.065  -1.278  0.00  0.00    +0.260 C 
ATOM     29  N   LIG    1        4.314   3.482  -2.258  0.00  0.00    -0.420 NA
ENDBRANCH  20  28
ENDBRANCH   5  19
TORSDOF 5
