REMARK  Name = ZINCrD000000BsCi.0
REMARK                            x       y       z     vdW  Elec       q    Type
REMARK                         _______ _______ _______ _____ _____    ______ ____
ROOT
ATOM      1  O   LIG    1       -4.789  -0.291  -0.669  0.00  0.00    -0.590 OA
ATOM      2  C   LIG    1       -4.201   0.260  -1.579  0.00  0.00    +0.710 C 
ATOM      3  N   LIG    1       -4.705   0.223  -2.828  0.00  0.00    -0.740 N 
ATOM      4  H   LIG    1       -4.236   0.663  -3.554  0.00  0.00    +0.390 HD
ATOM      5  N   LIG    1       -3.044   0.908  -1.339  0.00  0.00    -0.730 N 
ATOM      6  H   LIG    1       -2.575   1.348  -2.065  0.00  0.00    +0.390 HD
ENDROOT
BRANCH   3   7
ATOM      7  C   LIG    1       -5.963  -0.482  -3.090  0.00  0.00    +0.260 C 
ATOM      8  C   LIG    1       -7.143   0.454  -2.811  0.00  0.00    -0.010 C 
ATOM      9  C   LIG    1       -7.080   1.643  -3.774  0.00  0.00    +0.210 C 
ATOM     10  O   LIG    1       -7.096   1.164  -5.120  0.00  0.00    -0.370 OA
ATOM     11  C   LIG    1       -5.991   0.321  -5.453  0.00  0.00    +0.200 C 
ATOM     12  C   LIG    1       -6.009  -0.920  -4.557  0.00  0.00    +0.020 C 
BRANCH  11  13
ATOM     13  C   LIG    1       -6.096  -0.099  -6.896  0.00  0.00    -0.140 A 
ATOM     14  C   LIG    1       -4.954  -0.256  -7.667  0.00  0.00    +0.060 A 
ATOM     15  C   LIG    1       -5.099  -0.649  -8.989  0.00  0.00    -0.030 A 
ATOM     16  C   LIG    1       -6.368  -0.860  -9.493  0.00  0.00    +0.260 A 
ATOM     17  N   LIG    1       -7.432  -0.697  -8.732  0.00  0.00    -0.480 NA
ATOM     18  C   LIG    1       -7.332  -0.328  -7.470  0.00  0.00    +0.290 A 
ENDBRANCH  11  13
ENDBRANCH   3   7
BRANCH   5  19
ATOM     19  C   LIG    1       -2.495   0.949   0.019  0.00  0.00    +0.340 C 
BRANCH  19  20
ATOM     20  C   LIG    1       -1.206   1.729   0.017  0.00  0.00    -0.090 A 
ATOM     21  C   LIG    1       -0.013   1.076   0.008  0.00  0.00    +0.050 A 
ATOM     22  C   LIG    1        1.191   1.778   0.000  0.00  0.00    +0.010 A 
ATOM     23  C   LIG    1        1.206   3.139   0.007  0.00  0.00    +0.040 A 
ATOM     24  C   LIG    1       -0.007   3.846   0.023  0.00  0.00    -0.110 A 
ATOM     25  C   LIG    1       -0.035   5.253   0.031  0.00  0.00    +0.080 A 
ATOM     26  C   LIG    1       -1.252   5.874   0.047  0.00  0.00    -0.040 A 
ATOM     27  C   LIG    1       -2.419   5.114   0.053  0.00  0.00    +0.300 A 
ATOM     28  N   LIG    1       -2.389   3.803   0.046  0.00  0.00    -0.470 NA
ATOM     29  C   LIG    1       -1.232   3.135   0.031  0.00  0.00    +0.140 A 
ENDBRANCH  19  20
ENDBRANCH   5  19
TORSDOF 4
