REMARK  Name = ZINCqH0000037dh1.0
REMARK                            x       y       z     vdW  Elec       q    Type
REMARK                         _______ _______ _______ _____ _____    ______ ____
ROOT
ATOM      1  N   LIG    1        5.722  -1.123  -1.359  0.00  0.00    -0.740 N 
ATOM      2  H   LIG    1        6.068  -1.536  -0.552  0.00  0.00    +0.400 HD
ATOM      3  C   LIG    1        6.478  -1.082  -2.473  0.00  0.00    +0.700 C 
ATOM      4  N   LIG    1        7.716  -1.616  -2.468  0.00  0.00    -0.690 N 
ATOM      5  H   LIG    1        8.092  -1.960  -1.643  0.00  0.00    +0.410 HD
ATOM      6  O   LIG    1        6.044  -0.563  -3.484  0.00  0.00    -0.570 OA
ENDROOT
BRANCH   4   7
ATOM      7  C   LIG    1        8.459  -1.674  -3.655  0.00  0.00    +0.150 A 
ATOM      8  C   LIG    1        7.817  -1.861  -4.871  0.00  0.00    +0.030 A 
ATOM      9  C   LIG    1        8.553  -1.914  -6.035  0.00  0.00    +0.030 A 
ATOM     10  C   LIG    1        9.943  -1.793  -6.001  0.00  0.00    +0.090 A 
ATOM     11  C   LIG    1       10.581  -1.608  -4.787  0.00  0.00    -0.100 A 
ATOM     12  C   LIG    1       12.079  -1.459  -4.686  0.00  0.00    +0.080 C 
ATOM     13  C   LIG    1       12.732  -1.927  -5.988  0.00  0.00    -0.010 C 
ATOM     14  C   LIG    1       11.971  -1.287  -7.155  0.00  0.00    +0.210 C 
ATOM     15  N   LIG    1       10.629  -1.870  -7.215  0.00  0.00    -0.500 N 
ATOM     16  C   LIG    1       10.678  -3.254  -7.705  0.00  0.00    +0.200 C 
ATOM     17  C   LIG    1        9.840  -1.550  -3.618  0.00  0.00    -0.010 A 
ENDBRANCH   4   7
BRANCH   1  19
ATOM     18  C   LIG    1        3.380  -1.571  -1.902  0.00  0.00    +0.030 C 
ATOM     19  C   LIG    1        4.377  -0.542  -1.365  0.00  0.00    +0.270 C 
BRANCH  19  20
ATOM     20  C   LIG    1        3.985  -0.149   0.061  0.00  0.00    +0.020 C 
ATOM     21  C   LIG    1        4.856   1.024   0.571  0.00  0.00    +0.240 C 
ATOM     22  O   LIG    1        4.070   2.178   0.228  0.00  0.00    -0.300 OA
ATOM     23  C   LIG    1        2.753   1.833   0.206  0.00  0.00    +0.110 A 
ATOM     24  C   LIG    1        1.619   2.637   0.271  0.00  0.00    -0.010 A 
ATOM     25  C   LIG    1        0.362   2.071   0.218  0.00  0.00    +0.050 A 
ATOM     26  C   LIG    1        0.217   0.701   0.101  0.00  0.00    -0.020 A 
ATOM     27  C   LIG    1        1.340  -0.106   0.039  0.00  0.00    +0.070 A 
ATOM     28  C   LIG    1        2.595   0.457   0.093  0.00  0.00    -0.170 A 
ENDBRANCH  19  20
ENDBRANCH   1  19
TORSDOF 3
