REMARK  Name = ZINCrg000000t3eg.0
REMARK                            x       y       z     vdW  Elec       q    Type
REMARK                         _______ _______ _______ _____ _____    ______ ____
ROOT
ATOM      1  S   LIG    1        2.239   5.984   2.839  0.00  0.00    +2.690 S 
ATOM      2  O   LIG    1        0.931   5.788   3.358  0.00  0.00    -0.950 OA
ATOM      3  O   LIG    1        2.767   7.266   2.527  0.00  0.00    -0.950 OA
ENDROOT
BRANCH   1   7
ATOM      4  C   LIG    1        5.089   4.120   5.821  0.00  0.00    -0.630 A 
ATOM      5  C   LIG    1        5.534   5.113   4.968  0.00  0.00    +0.110 A 
ATOM      6  C   LIG    1        4.663   5.682   4.057  0.00  0.00    +0.110 A 
ATOM      7  C   LIG    1        3.349   5.259   4.000  0.00  0.00    -0.630 A 
ATOM      8  C   LIG    1        2.903   4.270   4.857  0.00  0.00    +0.110 A 
ATOM      9  C   LIG    1        3.775   3.697   5.764  0.00  0.00    +0.110 A 
BRANCH   4  10
ATOM     10  S   LIG    1        6.199   3.395   6.982  0.00  0.00    +2.700 S 
ATOM     11  O   LIG    1        7.507   3.591   6.463  0.00  0.00    -0.950 OA
ATOM     12  O   LIG    1        5.671   2.113   7.294  0.00  0.00    -0.950 OA
BRANCH  10  13
ATOM     13  N   LIG    1        6.108   4.289   8.373  0.00  0.00    -1.250 NA
ATOM     14  H   LIG    1        5.897   5.235   8.328  0.00  0.00    +0.420 HD
ATOM     15  H   LIG    1        6.264   3.867   9.232  0.00  0.00    +0.420 HD
ENDBRANCH  10  13
ENDBRANCH   4  10
ENDBRANCH   1   7
BRANCH   1  16
ATOM     16  N   LIG    1        2.330   5.090   1.449  0.00  0.00    -1.110 NA
ATOM     17  H   LIG    1        2.676   5.491   0.636  0.00  0.00    +0.420 HD
BRANCH  16  18
ATOM     18  C   LIG    1        1.889   3.693   1.446  0.00  0.00    +0.270 C 
BRANCH  18  19
ATOM     19  C   LIG    1        1.721   3.214   0.002  0.00  0.00    +0.120 C 
BRANCH  19  20
ATOM     20  C   LIG    1        1.267   1.777  -0.001  0.00  0.00    -0.230 A 
ATOM     21  C   LIG    1       -0.016   1.348   0.009  0.00  0.00    +0.240 A 
ATOM     22  N   LIG    1        0.002  -0.004   0.002  0.00  0.00    -0.320 N 
ATOM     23  N   LIG    1        1.341  -0.416  -0.013  0.00  0.00    -0.290 NA
ATOM     24  C   LIG    1        2.098   0.651  -0.015  0.00  0.00    +0.260 A 
BRANCH  22  25
ATOM     25  C   LIG    1       -1.120  -0.844   0.008  0.00  0.00    +0.160 A 
ATOM     26  C   LIG    1       -2.397  -0.300   0.029  0.00  0.00    -0.010 A 
ATOM     27  C   LIG    1       -3.500  -1.130   0.029  0.00  0.00    +0.040 A 
ATOM     28  C   LIG    1       -3.334  -2.503   0.020  0.00  0.00    +0.000 A 
ATOM     29  C   LIG    1       -2.064  -3.049   0.005  0.00  0.00    +0.040 A 
ATOM     30  C   LIG    1       -0.956  -2.223  -0.001  0.00  0.00    +0.020 A 
ENDBRANCH  22  25
ENDBRANCH  19  20
ENDBRANCH  18  19
ENDBRANCH  16  18
ENDBRANCH   1  16
TORSDOF 8
