REMARK  Name = ZINCrg000000scG3.0
REMARK                            x       y       z     vdW  Elec       q    Type
REMARK                         _______ _______ _______ _____ _____    ______ ____
ROOT
ATOM      1  C   LIG    1        5.461   2.747   2.828  0.00  0.00    +0.110 C 
ATOM      2  C   LIG    1        4.243   3.575   2.512  0.00  0.00    +0.030 A 
ATOM      3  C   LIG    1        4.010   4.750   3.196  0.00  0.00    +0.000 A 
ATOM      4  C   LIG    1        2.891   5.512   2.908  0.00  0.00    +0.160 A 
ATOM      5  C   LIG    1        1.999   5.101   1.933  0.00  0.00    -0.690 A 
ATOM      6  C   LIG    1        2.223   3.930   1.239  0.00  0.00    +0.160 A 
ATOM      7  C   LIG    1        3.347   3.155   1.528  0.00  0.00    -0.160 A 
ENDROOT
BRANCH   7   8
ATOM      8  C   LIG    1        3.590   1.896   0.791  0.00  0.00    +0.570 C 
ATOM      9  N   LIG    1        2.580   1.026   0.591  0.00  0.00    -0.620 N 
ATOM     10  C   LIG    1        2.760  -0.180  -0.235  0.00  0.00    +0.300 C 
ATOM     11  C   LIG    1        2.519  -1.404   0.649  0.00  0.00    +0.270 C 
ATOM     12  N   LIG    1        1.306  -1.240   1.439  0.00  0.00    -0.720 N 
ATOM     13  H   LIG    1        0.876  -2.041   1.778  0.00  0.00    +0.400 HD
ATOM     14  C   LIG    1        0.744  -0.065   1.728  0.00  0.00    +0.510 C 
ATOM     15  O   LIG    1       -0.225  -0.052   2.457  0.00  0.00    -0.540 OA
ATOM     16  C   LIG    1        1.254   1.243   1.188  0.00  0.00    +0.330 C 
ATOM     17  O   LIG    1        4.701   1.646   0.365  0.00  0.00    -0.510 OA
ENDBRANCH   7   8
BRANCH   5  18
ATOM     18  S   LIG    1        0.578   6.079   1.573  0.00  0.00    +2.690 S 
ATOM     19  O   LIG    1        0.320   6.855   2.735  0.00  0.00    -0.950 OA
ATOM     20  O   LIG    1       -0.378   5.200   0.997  0.00  0.00    -0.950 OA
BRANCH  18  21
ATOM     21  N   LIG    1        1.007   7.148   0.383  0.00  0.00    -1.110 NA
ATOM     22  H   LIG    1        1.018   8.100   0.567  0.00  0.00    +0.420 HD
BRANCH  21  23
ATOM     23  C   LIG    1        1.371   6.655  -0.948  0.00  0.00    +0.320 C 
BRANCH  23  24
ATOM     24  C   LIG    1        1.358   7.799  -1.928  0.00  0.00    -0.100 A 
ATOM     25  C   LIG    1        0.200   8.105  -2.618  0.00  0.00    +0.030 A 
ATOM     26  C   LIG    1        0.186   9.158  -3.514  0.00  0.00    +0.010 A 
ATOM     27  C   LIG    1        1.334   9.899  -3.727  0.00  0.00    +0.010 A 
ATOM     28  C   LIG    1        2.494   9.589  -3.042  0.00  0.00    +0.000 A 
ATOM     29  C   LIG    1        2.506   8.540  -2.142  0.00  0.00    +0.020 A 
ENDBRANCH  23  24
ENDBRANCH  21  23
ENDBRANCH  18  21
ENDBRANCH   5  18
TORSDOF 5
