REMARK  Name = ZINCpe000000TtxS.0
REMARK                            x       y       z     vdW  Elec       q    Type
REMARK                         _______ _______ _______ _____ _____    ______ ____
ROOT
ATOM      1  C   LIG    1       -3.852   2.278  -4.700  0.00  0.00    +0.380 C 
ENDROOT
BRANCH   1   5
ATOM      2  C   LIG    1       -1.645   2.336  -1.364  0.00  0.00    -0.790 A 
ATOM      3  C   LIG    1       -1.528   3.482  -2.036  0.00  0.00    +0.170 A 
ATOM      4  C   LIG    1       -2.257   3.546  -3.211  0.00  0.00    +0.010 A 
ATOM      5  C   LIG    1       -2.973   2.456  -3.488  0.00  0.00    -0.170 A 
ATOM      6  S   LIG    1       -2.736   1.257  -2.223  0.00  0.00    +0.240 S 
BRANCH   2   7
ATOM      7  S   LIG    1       -0.836   1.963   0.157  0.00  0.00    +2.710 S 
ATOM      8  O   LIG    1        0.313   2.796   0.215  0.00  0.00    -0.950 OA
ATOM      9  O   LIG    1       -0.774   0.546   0.241  0.00  0.00    -0.940 OA
BRANCH   7  10
ATOM     10  N   LIG    1       -1.837   2.461   1.379  0.00  0.00    -0.990 NA
BRANCH  10  12
ATOM     11  C   LIG    1       -2.256   0.855   3.175  0.00  0.00    +0.010 C 
ATOM     12  C   LIG    1       -2.831   1.539   1.933  0.00  0.00    +0.280 C 
ENDBRANCH  10  12
BRANCH  10  13
ATOM     13  C   LIG    1       -1.727   3.823   1.906  0.00  0.00    +0.290 C 
ATOM     14  C   LIG    1       -2.741   4.726   1.201  0.00  0.00    +0.010 C 
ENDBRANCH  10  13
ENDBRANCH   7  10
ENDBRANCH   2   7
ENDBRANCH   1   5
BRANCH   1  15
ATOM     15  N   LIG    1       -3.066   1.695  -5.791  0.00  0.00    -0.730 N 
ATOM     16  H   LIG    1       -2.128   1.489  -5.656  0.00  0.00    +0.400 HD
ATOM     17  C   LIG    1       -3.648   1.445  -6.981  0.00  0.00    +0.530 C 
ATOM     18  O   LIG    1       -4.821   1.703  -7.148  0.00  0.00    -0.510 OA
BRANCH  17  19
ATOM     19  C   LIG    1       -2.840   0.845  -8.103  0.00  0.00    +0.250 C 
BRANCH  19  20
ATOM     20  C   LIG    1       -2.027   1.925  -8.769  0.00  0.00    +0.040 A 
ATOM     21  C   LIG    1       -2.455   2.759  -9.745  0.00  0.00    -0.100 A 
ATOM     22  C   LIG    1       -1.396   3.607 -10.082  0.00  0.00    +0.240 A 
ATOM     23  N   LIG    1       -0.366   3.289  -9.341  0.00  0.00    -0.280 NA
ATOM     24  N   LIG    1       -0.739   2.230  -8.504  0.00  0.00    -0.370 N 
ATOM     25  C   LIG    1        0.117   1.569  -7.515  0.00  0.00    +0.350 C 
ENDBRANCH  19  20
BRANCH  19  26
ATOM     26  N   LIG    1       -3.745   0.236  -9.086  0.00  0.00    -0.810 NA
ATOM     27  H   LIG    1       -3.227  -0.266  -9.792  0.00  0.00    +0.360 HD
ATOM     28  H   LIG    1       -4.345   0.931  -9.505  0.00  0.00    +0.360 HD
ENDBRANCH  19  26
ENDBRANCH  17  19
ENDBRANCH   1  15
TORSDOF 9
