REMARK  Name = ZINCpe00000MJKtT.0
REMARK                            x       y       z     vdW  Elec       q    Type
REMARK                         _______ _______ _______ _____ _____    ______ ____
ROOT
ATOM      1  C   LIG    1       -6.349  -0.041   4.550  0.00  0.00    +0.160 C 
ATOM      2  C   LIG    1       -6.321   0.559   3.121  0.00  0.00    +0.070 C 
ATOM      3  C   LIG    1       -4.873   1.120   3.066  0.00  0.00    -0.030 C 
ATOM      4  C   LIG    1       -4.092   0.093   3.913  0.00  0.00    +0.220 C 
ATOM      5  O   LIG    1       -5.034  -0.579   4.757  0.00  0.00    -0.370 OA
ENDROOT
BRANCH   3   6
ATOM      6  C   LIG    1       -4.363   1.146   1.648  0.00  0.00    +0.530 C 
ATOM      7  N   LIG    1       -3.084   1.491   1.399  0.00  0.00    -0.730 N 
ATOM      8  H   LIG    1       -2.492   1.723   2.132  0.00  0.00    +0.400 HD
ATOM      9  O   LIG    1       -5.102   0.856   0.732  0.00  0.00    -0.520 OA
BRANCH   7  10
ATOM     10  C   LIG    1       -2.587   1.516   0.021  0.00  0.00    +0.390 C 
BRANCH  10  11
ATOM     11  C   LIG    1       -1.138   1.931   0.017  0.00  0.00    -0.010 A 
ATOM     12  N   LIG    1       -0.675   3.148   0.024  0.00  0.00    -0.350 NA
ATOM     13  O   LIG    1        0.534   3.164   0.013  0.00  0.00    +0.110 OA
ATOM     14  C   LIG    1        1.043   1.924   0.002  0.00  0.00    +0.170 A 
ATOM     15  C   LIG    1       -0.013   1.076   0.008  0.00  0.00    -0.040 A 
ENDBRANCH  10  11
ENDBRANCH   7  10
ENDBRANCH   3   6
BRANCH   1  16
ATOM     16  C   LIG    1       -7.398  -1.151   4.639  0.00  0.00    +0.290 C 
BRANCH  16  18
ATOM     17  C   LIG    1       -8.303  -2.660   6.325  0.00  0.00    +0.500 C 
ATOM     18  N   LIG    1       -7.446  -1.669   6.008  0.00  0.00    -0.720 N 
ATOM     19  H   LIG    1       -6.860  -1.299   6.688  0.00  0.00    +0.400 HD
ATOM     20  O   LIG    1       -9.034  -3.123   5.475  0.00  0.00    -0.510 OA
BRANCH  17  22
ATOM     21  C   LIG    1       -8.724  -2.062   8.694  0.00  0.00    +0.070 C 
ATOM     22  C   LIG    1       -8.352  -3.193   7.733  0.00  0.00    +0.240 C 
BRANCH  22  23
ATOM     23  N   LIG    1       -9.356  -4.256   7.819  0.00  0.00    -0.440 N 
ATOM     24  C   LIG    1      -10.686  -4.116   7.555  0.00  0.00    +0.160 A 
ATOM     25  C   LIG    1      -11.281  -5.312   7.739  0.00  0.00    -0.080 A 
ATOM     26  C   LIG    1      -10.283  -6.222   8.140  0.00  0.00    -0.050 A 
ATOM     27  C   LIG    1       -9.115  -5.549   8.180  0.00  0.00    +0.140 A 
ENDBRANCH  22  23
ENDBRANCH  17  22
ENDBRANCH  16  18
ENDBRANCH   1  16
TORSDOF 7
