REMARK  Name = ZINCpk00000ebI9Q.0
REMARK                            x       y       z     vdW  Elec       q    Type
REMARK                         _______ _______ _______ _____ _____    ______ ____
ROOT
ATOM      1  O   LIG    1        1.390   3.182   4.607  0.00  0.00    -0.490 OA
ATOM      2  C   LIG    1        0.875   3.493   5.659  0.00  0.00    +0.500 C 
ATOM      3  N   LIG    1        0.036   4.547   5.714  0.00  0.00    -0.610 N 
ATOM      4  C   LIG    1       -0.538   4.992   6.993  0.00  0.00    +0.250 C 
ATOM      5  C   LIG    1       -0.307   6.502   7.128  0.00  0.00    +0.210 C 
ATOM      6  O   LIG    1       -0.788   7.159   5.953  0.00  0.00    -0.370 OA
ATOM      7  C   LIG    1       -0.110   6.782   4.752  0.00  0.00    +0.240 C 
ATOM      8  C   LIG    1       -0.331   5.286   4.496  0.00  0.00    +0.320 C 
ENDROOT
BRANCH   8   9
ATOM      9  C   LIG    1        0.534   4.835   3.348  0.00  0.00    +0.240 A 
ATOM     10  N   LIG    1        1.822   5.033   3.243  0.00  0.00    -0.290 NA
ATOM     11  N   LIG    1        2.223   4.456   2.027  0.00  0.00    -0.360 N 
ATOM     12  C   LIG    1        1.117   3.929   1.474  0.00  0.00    +0.470 A 
ATOM     13  N   LIG    1        0.111   4.163   2.277  0.00  0.00    -0.540 NA
BRANCH  11  14
ATOM     14  C   LIG    1        3.580   4.429   1.474  0.00  0.00    +0.370 C 
BRANCH  14  15
ATOM     15  C   LIG    1        3.756   5.580   0.517  0.00  0.00    -0.120 A 
ATOM     16  C   LIG    1        4.217   6.798   0.979  0.00  0.00    +0.030 A 
ATOM     17  C   LIG    1        4.379   7.854   0.102  0.00  0.00    +0.000 A 
ATOM     18  C   LIG    1        4.079   7.691  -1.238  0.00  0.00    +0.010 A 
ATOM     19  C   LIG    1        3.618   6.473  -1.700  0.00  0.00    +0.010 A 
ATOM     20  C   LIG    1        3.457   5.417  -0.823  0.00  0.00    +0.020 A 
ENDBRANCH  14  15
ENDBRANCH  11  14
ENDBRANCH   8   9
BRANCH   2  21
ATOM     21  C   LIG    1        1.171   2.701   6.907  0.00  0.00    +0.180 C 
ATOM     22  C   LIG    1        1.928   3.585   7.921  0.00  0.00    +0.030 C 
ATOM     23  C   LIG    1        2.962   2.591   8.517  0.00  0.00    +0.020 C 
ATOM     24  C   LIG    1        3.267   1.707   7.281  0.00  0.00    +0.200 C 
ATOM     25  O   LIG    1        2.015   1.589   6.587  0.00  0.00    -0.350 OA
ENDBRANCH   2  21
TORSDOF 4
