REMARK  Name = ZINCrH00000No4H5.0
REMARK                            x       y       z     vdW  Elec       q    Type
REMARK                         _______ _______ _______ _____ _____    ______ ____
ROOT
ATOM      1  C   LIG    1       -0.925  -1.799   1.759  0.00  0.00    +0.550 C 
ATOM      2  N   LIG    1       -0.725  -0.475   1.606  0.00  0.00    -0.720 N 
ATOM      3  H   LIG    1       -1.249   0.157   2.123  0.00  0.00    +0.410 HD
ATOM      4  O   LIG    1       -0.268  -2.592   1.110  0.00  0.00    -0.550 OA
ENDROOT
BRANCH   1   6
ATOM      5  C   LIG    1       -2.131  -3.609   2.856  0.00  0.00    +0.150 C 
ATOM      6  C   LIG    1       -1.931  -2.283   2.703  0.00  0.00    -0.100 C 
BRANCH   5  12
ATOM      7  C   LIG    1       -3.355  -5.474   3.967  0.00  0.00    +0.160 A 
ATOM      8  C   LIG    1       -4.311  -5.920   4.865  0.00  0.00    -0.080 A 
ATOM      9  C   LIG    1       -5.052  -5.012   5.596  0.00  0.00    +0.070 A 
ATOM     10  C   LIG    1       -4.847  -3.651   5.440  0.00  0.00    -0.030 A 
ATOM     11  C   LIG    1       -3.896  -3.188   4.556  0.00  0.00    +0.080 A 
ATOM     12  C   LIG    1       -3.143  -4.095   3.805  0.00  0.00    -0.120 A 
BRANCH   7  13
ATOM     13  O   LIG    1       -2.626  -6.365   3.248  0.00  0.00    -0.310 OA
BRANCH  13  15
ATOM     14  C   LIG    1       -1.985  -8.595   2.575  0.00  0.00    +0.070 C 
ATOM     15  C   LIG    1       -2.897  -7.751   3.466  0.00  0.00    +0.170 C 
ENDBRANCH  13  15
ENDBRANCH   7  13
ENDBRANCH   5  12
ENDBRANCH   1   6
BRANCH   2  16
ATOM     16  C   LIG    1        0.283   0.010   0.660  0.00  0.00    +0.300 C 
BRANCH  16  17
ATOM     17  C   LIG    1        0.308   1.516   0.680  0.00  0.00    +0.510 C 
ATOM     18  N   LIG    1        1.164   2.187  -0.116  0.00  0.00    -0.670 N 
ATOM     19  H   LIG    1        1.801   1.700  -0.662  0.00  0.00    +0.410 HD
ATOM     20  O   LIG    1       -0.447   2.126   1.409  0.00  0.00    -0.510 OA
BRANCH  18  21
ATOM     21  C   LIG    1        1.134   3.586  -0.154  0.00  0.00    +0.130 A 
ATOM     22  C   LIG    1       -0.061   4.250  -0.398  0.00  0.00    -0.060 A 
ATOM     23  C   LIG    1       -0.088   5.630  -0.430  0.00  0.00    +0.010 A 
ATOM     24  C   LIG    1        1.075   6.351  -0.230  0.00  0.00    -0.080 A 
ATOM     25  C   LIG    1        2.268   5.692   0.007  0.00  0.00    +0.010 A 
ATOM     26  C   LIG    1        1.043   7.857  -0.271  0.00  0.00    +0.090 C 
ATOM     27  C   LIG    1       -1.328   3.465  -0.621  0.00  0.00    +0.090 C 
ATOM     28  C   LIG    1        2.300   4.312   0.046  0.00  0.00    -0.090 A 
ATOM     29  C   LIG    1        3.600   3.595   0.305  0.00  0.00    +0.080 C 
ENDBRANCH  18  21
ENDBRANCH  16  17
ENDBRANCH   2  16
TORSDOF 7
