REMARK  Name = ZINCbw0000000Hmn.0
REMARK                            x       y       z     vdW  Elec       q    Type
REMARK                         _______ _______ _______ _____ _____    ______ ____
ROOT
ATOM      1 CL   LIG    1        0.002  -0.004   0.002  0.00  0.00    -0.080 Cl
ATOM      2  C   LIG    1       -0.021   1.732   0.012  0.00  0.00    -0.090 A 
ATOM      3  C   LIG    1        1.168   2.438   0.004  0.00  0.00    +0.060 A 
ATOM      4  C   LIG    1        1.148   3.819   0.013  0.00  0.00    -0.050 A 
ATOM      5  C   LIG    1       -0.065   4.498   0.029  0.00  0.00    +0.220 A 
ATOM      6  N   LIG    1       -0.062   5.898   0.042  0.00  0.00    -0.750 N 
ATOM      7  H   LIG    1        0.754   6.387   0.233  0.00  0.00    +0.400 HD
ATOM      8  C   LIG    1       -1.314   6.613  -0.236  0.00  0.00    +0.260 C 
ATOM      9  C   LIG    1       -2.434   5.925   0.555  0.00  0.00    +0.010 C 
ATOM     10  C   LIG    1       -2.589   4.492   0.046  0.00  0.00    +0.090 C 
ATOM     11  C   LIG    1       -1.256   3.790   0.034  0.00  0.00    -0.140 A 
ATOM     12  C   LIG    1       -1.229   2.405   0.021  0.00  0.00    +0.060 A 
ENDROOT
TORSDOF 0
