REMARK  Name = ZINCrD000000fQbt.0
REMARK                            x       y       z     vdW  Elec       q    Type
REMARK                         _______ _______ _______ _____ _____    ______ ____
ROOT
ATOM      1  C   LIG    1       -0.008   1.491   0.161  0.00  0.00    +0.190 C 
ATOM      2  C   LIG    1       -0.884   1.994   1.309  0.00  0.00    +0.030 C 
ENDROOT
BRANCH   1   3
ATOM      3  N   LIG    1        1.364   1.985   0.339  0.00  0.00    -0.520 NA
ATOM      4  C   LIG    1        1.923   1.535   1.622  0.00  0.00    +0.190 C 
ATOM      5  C   LIG    1        3.376   2.002   1.734  0.00  0.00    +0.200 C 
ATOM      6  N   LIG    1        3.427   3.466   1.625  0.00  0.00    -0.490 N 
ATOM      7  C   LIG    1        2.869   3.916   0.343  0.00  0.00    +0.200 C 
ATOM      8  C   LIG    1        1.415   3.449   0.231  0.00  0.00    +0.190 C 
BRANCH   6   9
ATOM      9  C   LIG    1        4.732   3.936   1.795  0.00  0.00    +0.120 A 
ATOM     10  C   LIG    1        5.323   4.719   0.812  0.00  0.00    -0.050 A 
ATOM     11  C   LIG    1        6.613   5.182   0.984  0.00  0.00    +0.030 A 
ATOM     12  C   LIG    1        7.316   4.866   2.132  0.00  0.00    -0.030 A 
ATOM     13  C   LIG    1        6.730   4.087   3.112  0.00  0.00    -0.060 A 
ATOM     14  C   LIG    1        7.500   3.746   4.362  0.00  0.00    +0.090 C 
ATOM     15  C   LIG    1        5.439   3.625   2.950  0.00  0.00    -0.020 A 
ENDBRANCH   6   9
ENDBRANCH   1   3
BRANCH   1  18
ATOM     16  N   LIG    1       -1.158  -0.693   0.004  0.00  0.00    -0.670 N 
ATOM     17  H   LIG    1       -2.001  -0.214  -0.027  0.00  0.00    +0.410 HD
ATOM     18  C   LIG    1       -0.003  -0.016   0.156  0.00  0.00    +0.520 C 
ATOM     19  O   LIG    1        1.041  -0.619   0.288  0.00  0.00    -0.490 OA
BRANCH  16  23
ATOM     20  C   LIG    1       -1.109  -4.840  -0.327  0.00  0.00    -0.190 A 
ATOM     21  C   LIG    1       -0.054  -4.081  -0.849  0.00  0.00    +0.100 A 
ATOM     22  C   LIG    1       -0.074  -2.715  -0.737  0.00  0.00    +0.000 A 
ATOM     23  C   LIG    1       -1.142  -2.082  -0.107  0.00  0.00    +0.180 A 
ATOM     24  C   LIG    1       -2.191  -2.833   0.417  0.00  0.00    -0.030 A 
ATOM     25  C   LIG    1       -2.182  -4.199   0.305  0.00  0.00    +0.090 A 
BRANCH  20  27
ATOM     26  C   LIG    1       -2.283  -7.110   0.005  0.00  0.00    +0.070 C 
ATOM     27  C   LIG    1       -1.092  -6.304  -0.444  0.00  0.00    +0.400 C 
ATOM     28  O   LIG    1       -0.118  -6.864  -0.901  0.00  0.00    -0.460 OA
ENDBRANCH  20  27
ENDBRANCH  16  23
ENDBRANCH   1  18
TORSDOF 5
