REMARK  Name = ZINCrD000000fUhA.0
REMARK                            x       y       z     vdW  Elec       q    Type
REMARK                         _______ _______ _______ _____ _____    ______ ____
ROOT
ATOM      1  C   LIG    1       -1.230   3.136   0.025  0.00  0.00    +0.190 A 
ATOM      2  C   LIG    1       -1.207   1.758  -0.171  0.00  0.00    +0.000 A 
ATOM      3  C   LIG    1       -0.013   1.085  -0.186  0.00  0.00    +0.110 A 
ATOM      4  C   LIG    1        1.186   1.787  -0.015  0.00  0.00    -0.190 A 
ATOM      5  C   LIG    1        1.159   3.175   0.176  0.00  0.00    +0.090 A 
ATOM      6  C   LIG    1       -0.040   3.838   0.196  0.00  0.00    -0.020 A 
ENDROOT
BRANCH   1   8
ATOM      7  C   LIG    1       -3.544   3.215   0.546  0.00  0.00    +0.520 C 
ATOM      8  N   LIG    1       -2.446   3.815   0.046  0.00  0.00    -0.670 N 
ATOM      9  H   LIG    1       -2.502   4.719  -0.301  0.00  0.00    +0.410 HD
ATOM     10  O   LIG    1       -3.455   2.123   1.066  0.00  0.00    -0.510 OA
BRANCH   7  12
ATOM     11  C   LIG    1       -5.954   3.014   1.097  0.00  0.00    +0.060 C 
ATOM     12  C   LIG    1       -4.883   3.902   0.460  0.00  0.00    -0.080 C 
ATOM     13  C   LIG    1       -5.235   4.152  -1.008  0.00  0.00    +0.060 C 
ATOM     14  C   LIG    1       -4.820   5.238   1.204  0.00  0.00    +0.060 C 
ENDBRANCH   7  12
ENDBRANCH   1   8
BRANCH   4  15
ATOM     15  C   LIG    1        2.469   1.072  -0.036  0.00  0.00    +0.390 C 
ATOM     16  O   LIG    1        2.490  -0.130  -0.202  0.00  0.00    -0.440 OA
BRANCH  15  17
ATOM     17  C   LIG    1        3.758   1.830   0.148  0.00  0.00    +0.330 C 
BRANCH  17  18
ATOM     18  N   LIG    1        4.886   0.897   0.087  0.00  0.00    -0.480 N 
ATOM     19  C   LIG    1        5.474   0.632  -1.108  0.00  0.00    +0.430 A 
ATOM     20  C   LIG    1        6.518  -0.227  -1.189  0.00  0.00    -0.230 A 
ATOM     21  C   LIG    1        7.001  -0.852  -0.030  0.00  0.00    +0.290 A 
ATOM     22  C   LIG    1        6.409  -0.584   1.168  0.00  0.00    -0.170 A 
ATOM     23 BR   LIG    1        7.323  -0.583  -2.863  0.00  0.00    +0.020 Br
ATOM     24  C   LIG    1        5.331   0.317   1.217  0.00  0.00    +0.540 A 
ATOM     25  O   LIG    1        4.795   0.569   2.285  0.00  0.00    -0.470 OA
BRANCH  22  26
ATOM     26  N   LIG    1        6.900  -1.230   2.406  0.00  0.00    +0.050 N 
ATOM     27  O   LIG    1        6.366  -0.986   3.473  0.00  0.00    -0.120 OA
ATOM     28  O   LIG    1        7.838  -2.006   2.357  0.00  0.00    -0.170 OA
ENDBRANCH  22  26
ENDBRANCH  17  18
ENDBRANCH  15  17
ENDBRANCH   4  15
TORSDOF 6
