REMARK  Name = ZINCvU000000087Y.0
REMARK                            x       y       z     vdW  Elec       q    Type
REMARK                         _______ _______ _______ _____ _____    ______ ____
ROOT
ATOM      1  C   LIG    1       -1.091   0.697   2.171  0.00  0.00    +0.550 C 
ATOM      2  N   LIG    1       -0.706   1.562   1.212  0.00  0.00    -0.610 N 
ATOM      3  C   LIG    1       -0.008   1.087   0.010  0.00  0.00    +0.280 C 
ATOM      4  C   LIG    1       -0.753   1.593  -1.229  0.00  0.00    +0.040 C 
ATOM      5  C   LIG    1       -0.897   3.114  -1.147  0.00  0.00    -0.030 C 
ATOM      6  C   LIG    1       -1.714   3.485   0.093  0.00  0.00    +0.050 C 
ATOM      7  C   LIG    1       -0.980   3.000   1.347  0.00  0.00    +0.280 C 
ATOM      8  O   LIG    1       -0.947  -0.500   2.004  0.00  0.00    -0.540 OA
ENDROOT
BRANCH   1  10
ATOM      9  C   LIG    1       -1.973   0.338   4.413  0.00  0.00    +0.120 C 
ATOM     10  C   LIG    1       -1.681   1.196   3.413  0.00  0.00    -0.080 C 
BRANCH   9  13
ATOM     11  C   LIG    1       -3.427   0.428   7.871  0.00  0.00    +0.120 A 
ATOM     12  C   LIG    1       -2.871  -0.049   6.700  0.00  0.00    -0.020 A 
ATOM     13  C   LIG    1       -2.567   0.839   5.662  0.00  0.00    -0.030 A 
ATOM     14  C   LIG    1       -2.824   2.206   5.817  0.00  0.00    +0.020 A 
ATOM     15  C   LIG    1       -3.385   2.673   6.987  0.00  0.00    -0.020 A 
ATOM     16 CL   LIG    1       -3.709   4.367   7.175  0.00  0.00    -0.040 Cl
ATOM     17  C   LIG    1       -3.686   1.790   8.017  0.00  0.00    +0.090 A 
BRANCH  11  19
ATOM     18  C   LIG    1       -3.432  -1.814   8.664  0.00  0.00    +0.250 C 
ATOM     19  O   LIG    1       -3.723  -0.432   8.882  0.00  0.00    -0.300 OA
ENDBRANCH  11  19
BRANCH  17  20
ATOM     20  O   LIG    1       -4.234   2.256   9.169  0.00  0.00    -0.310 OA
BRANCH  20  21
ATOM     21  C   LIG    1       -3.331   2.647  10.205  0.00  0.00    +0.150 C 
ATOM     22  C   LIG    1       -3.035   1.446  11.104  0.00  0.00    +0.030 C 
ATOM     23  C   LIG    1       -3.963   3.764  11.038  0.00  0.00    +0.050 C 
ENDBRANCH  20  21
ENDBRANCH  17  20
ENDBRANCH   9  13
ENDBRANCH   1  10
BRANCH   5  24
ATOM     24  C   LIG    1       -1.600   3.619  -2.381  0.00  0.00    +0.400 C 
ATOM     25  O   LIG    1       -2.405   2.915  -2.951  0.00  0.00    -0.440 OA
BRANCH  24  26
ATOM     26  C   LIG    1       -1.309   4.968  -2.893  0.00  0.00    -0.170 A 
ATOM     27  C   LIG    1       -0.385   5.786  -2.234  0.00  0.00    +0.060 A 
ATOM     28  C   LIG    1       -0.115   7.046  -2.723  0.00  0.00    +0.000 A 
ATOM     29  C   LIG    1       -0.762   7.507  -3.856  0.00  0.00    +0.040 A 
ATOM     30  C   LIG    1       -1.681   6.705  -4.511  0.00  0.00    +0.000 A 
ATOM     31  C   LIG    1       -1.959   5.440  -4.037  0.00  0.00    +0.070 A 
ENDBRANCH  24  26
ENDBRANCH   5  24
TORSDOF 7
