REMARK  Name = ZINCrH000004p1PT.0
REMARK                            x       y       z     vdW  Elec       q    Type
REMARK                         _______ _______ _______ _____ _____    ______ ____
ROOT
ATOM      1  C   LIG    1       -1.213   3.555   0.154  0.00  0.00    +0.130 A 
ATOM      2  C   LIG    1       -0.159   4.221   0.766  0.00  0.00    +0.030 A 
ATOM      3  C   LIG    1       -0.177   5.598   0.866  0.00  0.00    +0.040 A 
ATOM      4  C   LIG    1       -1.255   6.316   0.365  0.00  0.00    +0.130 A 
ATOM      5  C   LIG    1       -2.312   5.649  -0.242  0.00  0.00    +0.010 A 
ATOM      6  C   LIG    1       -2.291   4.273  -0.347  0.00  0.00    +0.000 A 
ENDROOT
BRANCH   1   8
ATOM      7  C   LIG    1       -0.015   1.502   0.029  0.00  0.00    +0.500 C 
ATOM      8  N   LIG    1       -1.192   2.159   0.048  0.00  0.00    -0.660 N 
ATOM      9  H   LIG    1       -2.024   1.664  -0.012  0.00  0.00    +0.410 HD
ATOM     10  O   LIG    1        1.026   2.124  -0.005  0.00  0.00    -0.490 OA
BRANCH   7  12
ATOM     11  C   LIG    1       -0.739  -0.538  -1.181  0.00  0.00    +0.090 C 
ATOM     12  C   LIG    1        0.008  -0.005   0.043  0.00  0.00    +0.280 C 
BRANCH  12  13
ATOM     13  N   LIG    1        1.396  -0.473   0.011  0.00  0.00    -0.370 N 
ATOM     14  C   LIG    1        2.160  -0.652  -1.080  0.00  0.00    +0.490 A 
ATOM     15  N   LIG    1        3.334  -1.077  -0.688  0.00  0.00    -0.540 NA
ATOM     16  C   LIG    1        3.356  -1.182   0.640  0.00  0.00    +0.430 A 
ATOM     17  N   LIG    1        2.194  -0.817   1.114  0.00  0.00    -0.310 NA
ENDBRANCH  12  13
ENDBRANCH   7  12
ENDBRANCH   1   8
BRANCH   4  18
ATOM     18  N   LIG    1       -1.277   7.712   0.472  0.00  0.00    -0.680 N 
ATOM     19  H   LIG    1       -2.117   8.174   0.620  0.00  0.00    +0.410 HD
ATOM     20  C   LIG    1       -0.131   8.414   0.370  0.00  0.00    +0.510 C 
ATOM     21  O   LIG    1        0.929   7.833   0.270  0.00  0.00    -0.520 OA
BRANCH  20  22
ATOM     22  C   LIG    1       -0.166   9.920   0.380  0.00  0.00    +0.060 C 
BRANCH  22  23
ATOM     23  C   LIG    1        1.258  10.465   0.252  0.00  0.00    +0.040 C 
BRANCH  23  24
ATOM     24  C   LIG    1        1.222  11.994   0.262  0.00  0.00    -0.020 C 
ATOM     25  C   LIG    1        0.484  12.495  -0.981  0.00  0.00    +0.000 C 
ATOM     26  C   LIG    1        0.448  14.025  -0.971  0.00  0.00    +0.000 C 
ATOM     27  C   LIG    1        1.878  14.569  -0.974  0.00  0.00    +0.000 C 
ATOM     28  C   LIG    1        2.617  14.068   0.269  0.00  0.00    +0.000 C 
ATOM     29  C   LIG    1        2.652  12.538   0.259  0.00  0.00    +0.010 C 
ENDBRANCH  23  24
ENDBRANCH  22  23
ENDBRANCH  20  22
ENDBRANCH   4  18
TORSDOF 7
