REMARK  Name = ZINCrg000000stS5.0
REMARK                            x       y       z     vdW  Elec       q    Type
REMARK                         _______ _______ _______ _____ _____    ______ ____
ROOT
ATOM      1  C   LIG    1        3.098  -2.432   6.413  0.00  0.00    +0.600 C 
ATOM      2  N   LIG    1        2.388  -2.122   5.310  0.00  0.00    -0.620 N 
ATOM      3  C   LIG    1        0.941  -2.372   5.256  0.00  0.00    +0.290 C 
ATOM      4  C   LIG    1        0.640  -3.241   4.029  0.00  0.00    +0.300 C 
ATOM      5  N   LIG    1        1.300  -2.647   2.858  0.00  0.00    -0.620 N 
ATOM      6  C   LIG    1        2.748  -2.401   2.910  0.00  0.00    +0.270 C 
ATOM      7  C   LIG    1        0.591  -2.337   1.755  0.00  0.00    +0.720 C 
ATOM      8  N   LIG    1        1.159  -1.613   0.770  0.00  0.00    -0.650 N 
ATOM      9  C   LIG    1        0.754  -1.797  -0.632  0.00  0.00    +0.300 C 
ATOM     10  C   LIG    1        0.422  -0.424  -1.227  0.00  0.00    +0.170 C 
ATOM     11  N   LIG    1        1.560   0.482  -1.023  0.00  0.00    -0.540 NA
ATOM     12  C   LIG    1        1.813   0.707   0.407  0.00  0.00    +0.170 C 
ATOM     13  C   LIG    1        1.353   1.754  -1.727  0.00  0.00    +0.190 C 
ATOM     14  C   LIG    1        2.201  -0.619   1.069  0.00  0.00    +0.280 C 
ATOM     15  O   LIG    1       -0.561  -2.711   1.648  0.00  0.00    -0.570 OA
ATOM     16  C   LIG    1        3.049  -1.527   4.139  0.00  0.00    +0.260 C 
ATOM     17  O   LIG    1        2.652  -3.228   7.219  0.00  0.00    -0.520 OA
ENDROOT
BRANCH   1  24
ATOM     18  C   LIG    1        8.019  -2.178   9.613  0.00  0.00    +0.170 C 
ATOM     19  C   LIG    1        7.662  -1.335   8.415  0.00  0.00    +0.140 A 
ATOM     20  N   LIG    1        8.402  -0.403   7.896  0.00  0.00    -0.260 NA
ATOM     21  N   LIG    1        7.742   0.159   6.800  0.00  0.00    -0.350 N 
ATOM     22  C   LIG    1        6.539  -0.476   6.658  0.00  0.00    +0.020 A 
ATOM     23  S   LIG    1        5.083  -0.515   5.672  0.00  0.00    +0.200 S 
ATOM     24  C   LIG    1        4.405  -1.811   6.643  0.00  0.00    -0.280 A 
ATOM     25  C   LIG    1        5.250  -2.149   7.628  0.00  0.00    +0.200 A 
ATOM     26  C   LIG    1        8.250   1.239   5.951  0.00  0.00    +0.370 C 
ATOM     27  C   LIG    1        6.451  -1.427   7.661  0.00  0.00    -0.230 A 
ENDBRANCH   1  24
TORSDOF 1
