REMARK  Name = ZINCrH000004t78a.1
REMARK                            x       y       z     vdW  Elec       q    Type
REMARK                         _______ _______ _______ _____ _____    ______ ____
ROOT
ATOM      1  N   LIG    1       -1.446  -3.087   2.944  0.00  0.00    -1.050 N 
ATOM      2  H   LIG    1       -1.750  -2.669   3.764  0.00  0.00    +0.430 HD
ENDROOT
BRANCH   1   8
ATOM      3  C   LIG    1       -3.676  -3.578   2.137  0.00  0.00    -0.160 A 
ATOM      4  C   LIG    1       -4.534  -4.378   1.397  0.00  0.00    +0.110 A 
ATOM      5  C   LIG    1       -4.045  -5.492   0.739  0.00  0.00    +0.000 A 
ATOM      6  C   LIG    1       -2.701  -5.808   0.810  0.00  0.00    +0.090 A 
ATOM      7  C   LIG    1       -1.837  -5.012   1.541  0.00  0.00    -0.010 A 
ATOM      8  C   LIG    1       -2.318  -3.893   2.204  0.00  0.00    +0.220 A 
BRANCH   3   9
ATOM      9  S   LIG    1       -4.297  -2.162   2.983  0.00  0.00    +0.110 S 
BRANCH   9  15
ATOM     10  C   LIG    1       -5.000  -0.656   5.842  0.00  0.00    +0.350 C 
ATOM     11  N   LIG    1       -4.624  -2.070   5.761  0.00  0.00    -0.470 N 
ATOM     12  C   LIG    1       -4.508  -2.954   6.797  0.00  0.00    +0.390 A 
ATOM     13  N   LIG    1       -4.155  -4.101   6.290  0.00  0.00    -0.290 NA
ATOM     14  N   LIG    1       -4.046  -4.005   5.013  0.00  0.00    -0.270 NA
ATOM     15  C   LIG    1       -4.317  -2.778   4.634  0.00  0.00    +0.120 A 
ENDBRANCH   9  15
ENDBRANCH   3   9
ENDBRANCH   1   8
BRANCH   1  16
ATOM     16  S   LIG    1        0.106  -2.846   2.418  0.00  0.00    +2.690 S 
ATOM     17  O   LIG    1        0.681  -1.885   3.292  0.00  0.00    -0.940 OA
ATOM     18  O   LIG    1        0.663  -4.137   2.207  0.00  0.00    -0.930 OA
BRANCH  16  19
ATOM     19  C   LIG    1        0.008  -2.082   0.834  0.00  0.00    -0.680 A 
ATOM     20  C   LIG    1       -0.040  -2.860  -0.307  0.00  0.00    +0.170 A 
ATOM     21  C   LIG    1       -0.118  -2.260  -1.551  0.00  0.00    +0.020 A 
ATOM     22  C   LIG    1       -0.152  -0.882  -1.652  0.00  0.00    +0.140 A 
ATOM     23  C   LIG    1       -0.099  -0.104  -0.511  0.00  0.00    -0.200 A 
ATOM     24  C   LIG    1       -0.022  -0.704   0.732  0.00  0.00    +0.180 A 
BRANCH  23  25
ATOM     25  C   LIG    1       -0.131   1.399  -0.622  0.00  0.00    +0.510 C 
ATOM     26  F   LIG    1       -0.740   1.937   0.517  0.00  0.00    -0.170 F 
ATOM     27  F   LIG    1       -0.859   1.767  -1.758  0.00  0.00    -0.170 F 
ATOM     28  F   LIG    1        1.176   1.887  -0.726  0.00  0.00    -0.170 F 
ENDBRANCH  23  25
ENDBRANCH  16  19
ENDBRANCH   1  16
TORSDOF 6
