REMARK  Name = ZINCvU0000000IT4.0
REMARK                            x       y       z     vdW  Elec       q    Type
REMARK                         _______ _______ _______ _____ _____    ______ ____
ROOT
ATOM      1  C   LIG    1        0.066  -4.142  -0.132  0.00  0.00    +0.160 A 
ATOM      2  N   LIG    1        0.099  -2.821  -0.083  0.00  0.00    -0.480 NA
ATOM      3  C   LIG    1        1.243  -2.144  -0.085  0.00  0.00    +0.230 A 
ATOM      4  C   LIG    1        2.467  -2.800  -0.146  0.00  0.00    +0.010 A 
ATOM      5  C   LIG    1        2.492  -4.197  -0.195  0.00  0.00    +0.100 A 
ATOM      6  C   LIG    1        1.257  -4.887  -0.190  0.00  0.00    -0.050 A 
ENDROOT
BRANCH   3   7
ATOM      7  C   LIG    1        1.213  -0.663  -0.029  0.00  0.00    -0.060 A 
ATOM      8  C   LIG    1       -0.007   0.010   0.027  0.00  0.00    +0.060 A 
ATOM      9  C   LIG    1       -0.029   1.389   0.079  0.00  0.00    +0.000 A 
ATOM     10  C   LIG    1        1.156   2.103   0.077  0.00  0.00    +0.030 A 
ATOM     11  C   LIG    1        2.369   1.440   0.022  0.00  0.00    +0.010 A 
ATOM     12  C   LIG    1        2.404   0.062  -0.031  0.00  0.00    +0.040 A 
ENDBRANCH   3   7
BRANCH   5  13
ATOM     13  C   LIG    1        3.769  -4.929  -0.255  0.00  0.00    -0.010 A 
ATOM     14  C   LIG    1        4.794  -4.681  -1.117  0.00  0.00    +0.000 A 
ATOM     15  C   LIG    1        5.806  -5.613  -0.822  0.00  0.00    -0.060 A 
ATOM     16  C   LIG    1        5.356  -6.378   0.194  0.00  0.00    +0.200 A 
ATOM     17  O   LIG    1        4.128  -5.959   0.537  0.00  0.00    -0.160 OA
ENDBRANCH   5  13
BRANCH   6  18
ATOM     18  C   LIG    1        1.221  -6.317  -0.244  0.00  0.00    +0.250 C 
ATOM     19  N   LIG    1        1.193  -7.452  -0.286  0.00  0.00    -0.370 NA
ENDBRANCH   6  18
BRANCH   1  20
ATOM     20  S   LIG    1       -1.486  -4.977  -0.126  0.00  0.00    +0.050 S 
BRANCH  20  21
ATOM     21  C   LIG    1       -2.606  -3.557  -0.045  0.00  0.00    +0.110 C 
BRANCH  21  24
ATOM     22  C   LIG    1       -4.762  -1.729   0.195  0.00  0.00    +0.300 C 
ATOM     23  N   LIG    1       -5.046  -3.156   0.030  0.00  0.00    -0.570 N 
ATOM     24  C   LIG    1       -4.033  -4.043  -0.029  0.00  0.00    +0.530 C 
ATOM     25  O   LIG    1       -4.269  -5.232  -0.068  0.00  0.00    -0.500 OA
BRANCH  23  26
ATOM     26  C   LIG    1       -6.370  -3.600  -0.066  0.00  0.00    +0.130 A 
ATOM     27  C   LIG    1       -7.140  -3.257  -1.170  0.00  0.00    +0.000 A 
ATOM     28  C   LIG    1       -8.444  -3.700  -1.264  0.00  0.00    +0.020 A 
ATOM     29  C   LIG    1       -8.988  -4.476  -0.256  0.00  0.00    +0.010 A 
ATOM     30  C   LIG    1       -8.225  -4.814   0.847  0.00  0.00    +0.020 A 
ATOM     31  C   LIG    1       -6.918  -4.378   0.945  0.00  0.00    +0.020 A 
ENDBRANCH  23  26
ENDBRANCH  21  24
ENDBRANCH  20  21
ENDBRANCH   1  20
TORSDOF 7
