REMARK  Name = ZINCvU00000003JW.0
REMARK                            x       y       z     vdW  Elec       q    Type
REMARK                         _______ _______ _______ _____ _____    ______ ____
ROOT
ATOM      1  N   LIG    1        2.491  -2.752  -0.037  0.00  0.00    -0.460 N 
ATOM      2  C   LIG    1        1.284  -2.149  -0.022  0.00  0.00    +0.570 A 
ATOM      3  C   LIG    1        1.222  -0.676  -0.013  0.00  0.00    -0.160 A 
ATOM      4  C   LIG    1        0.002  -0.004   0.002  0.00  0.00    +0.130 A 
ATOM      5  C   LIG    1       -0.017   1.375   0.010  0.00  0.00    +0.020 A 
ATOM      6  C   LIG    1        1.169   2.091   0.002  0.00  0.00    +0.100 A 
ATOM      7  C   LIG    1        2.386   1.437  -0.013  0.00  0.00    +0.020 A 
ATOM      8  C   LIG    1        2.424   0.051  -0.021  0.00  0.00    +0.170 A 
ATOM      9  N   LIG    1        3.631  -0.637  -0.036  0.00  0.00    -0.420 N 
ATOM     10  C   LIG    1        4.939  -0.232  -0.047  0.00  0.00    +0.160 A 
ATOM     11  N   LIG    1        5.674  -1.318  -0.060  0.00  0.00    -0.250 NA
ATOM     12  N   LIG    1        4.923  -2.361  -0.059  0.00  0.00    -0.270 NA
ATOM     13  O   LIG    1        0.264  -2.810  -0.017  0.00  0.00    -0.480 OA
ATOM     14  C   LIG    1        3.660  -2.007  -0.044  0.00  0.00    +0.420 A 
ENDROOT
BRANCH   1  19
ATOM     15  C   LIG    1        2.785  -8.418  -0.073  0.00  0.00    +0.100 C 
ATOM     16  C   LIG    1        2.707  -6.913  -0.064  0.00  0.00    -0.060 A 
ATOM     17  C   LIG    1        2.683  -6.231   1.139  0.00  0.00    +0.010 A 
ATOM     18  C   LIG    1        2.612  -4.852   1.151  0.00  0.00    +0.050 A 
ATOM     19  C   LIG    1        2.564  -4.150  -0.046  0.00  0.00    +0.110 A 
ATOM     20  C   LIG    1        2.583  -4.838  -1.253  0.00  0.00    -0.050 A 
ATOM     21  C   LIG    1        2.525  -4.081  -2.554  0.00  0.00    +0.100 C 
ATOM     22  C   LIG    1        2.659  -6.217  -1.258  0.00  0.00    +0.020 A 
ENDBRANCH   1  19
BRANCH  10  23
ATOM     23  S   LIG    1        5.522   1.430  -0.044  0.00  0.00    +0.020 S 
BRANCH  23  24
ATOM     24  C   LIG    1        7.325   1.230  -0.062  0.00  0.00    +0.150 C 
BRANCH  24  25
ATOM     25  C   LIG    1        7.981   2.587  -0.061  0.00  0.00    -0.100 A 
ATOM     26  C   LIG    1        8.276   3.212  -1.258  0.00  0.00    +0.070 A 
ATOM     27  C   LIG    1        8.872   4.459  -1.258  0.00  0.00    -0.010 A 
ATOM     28  C   LIG    1        9.186   5.076  -0.059  0.00  0.00    +0.110 A 
ATOM     29  C   LIG    1        8.896   4.446   1.139  0.00  0.00    -0.010 A 
ATOM     30  F   LIG    1        9.775   6.292  -0.059  0.00  0.00    -0.140 F 
ATOM     31  C   LIG    1        8.293   3.202   1.137  0.00  0.00    +0.070 A 
ENDBRANCH  24  25
ENDBRANCH  23  24
ENDBRANCH  10  23
TORSDOF 4
