REMARK  Name = ZINCrg000000rFWL.0
REMARK                            x       y       z     vdW  Elec       q    Type
REMARK                         _______ _______ _______ _____ _____    ______ ____
ROOT
ATOM      1  C   LIG    1       -0.053   4.269   0.030  0.00  0.00    +0.160 A 
ATOM      2  C   LIG    1        1.147   3.591   0.194  0.00  0.00    +0.020 A 
ATOM      3  C   LIG    1        1.165   2.211   0.191  0.00  0.00    +0.070 A 
ATOM      4  C   LIG    1       -0.011   1.503   0.026  0.00  0.00    -0.120 A 
ATOM      5  C   LIG    1       -1.208   2.175  -0.143  0.00  0.00    +0.050 A 
ATOM      6  C   LIG    1       -1.233   3.556  -0.136  0.00  0.00    -0.010 A 
ENDROOT
BRANCH   4   7
ATOM      7  C   LIG    1        0.012  -0.004   0.023  0.00  0.00    +0.170 C 
ATOM      8  N   LIG    1       -1.352  -0.543  -0.116  0.00  0.00    -0.720 N 
ATOM      9  H   LIG    1       -1.956  -0.407  -0.864  0.00  0.00    +0.440 HD
ATOM     10  C   LIG    1       -1.598  -1.260   0.995  0.00  0.00    +0.710 C 
ATOM     11  N   LIG    1       -0.564  -1.258   1.844  0.00  0.00    -0.680 N 
ATOM     12  H   LIG    1       -0.557  -1.721   2.696  0.00  0.00    +0.430 HD
ATOM     13  O   LIG    1       -2.642  -1.846   1.204  0.00  0.00    -0.540 OA
ATOM     14  C   LIG    1        0.913  -0.525  -1.098  0.00  0.00    +0.090 C 
ATOM     15  C   LIG    1        0.472  -0.533   1.367  0.00  0.00    +0.540 C 
ATOM     16  O   LIG    1        1.544  -0.343   1.900  0.00  0.00    -0.450 OA
ENDBRANCH   4   7
BRANCH   1  18
ATOM     17  C   LIG    1        0.969   6.359  -0.466  0.00  0.00    +0.510 C 
ATOM     18  N   LIG    1       -0.075   5.668   0.033  0.00  0.00    -0.670 N 
ATOM     19  H   LIG    1       -0.841   6.141   0.394  0.00  0.00    +0.420 HD
ATOM     20  O   LIG    1        1.884   5.772  -1.003  0.00  0.00    -0.510 OA
BRANCH  17  22
ATOM     21  C   LIG    1       -0.212   8.452  -1.078  0.00  0.00    +0.060 C 
ATOM     22  C   LIG    1        1.000   7.862  -0.355  0.00  0.00    +0.250 C 
BRANCH  22  23
ATOM     23  N   LIG    1        2.229   8.372  -0.968  0.00  0.00    -0.710 N 
ATOM     24  H   LIG    1        2.679   7.855  -1.655  0.00  0.00    +0.410 HD
ATOM     25  C   LIG    1        2.736   9.558  -0.577  0.00  0.00    +0.600 C 
ATOM     26  O   LIG    1        2.172  10.206   0.284  0.00  0.00    -0.530 OA
BRANCH  25  27
ATOM     27  C   LIG    1        3.972  10.071  -1.194  0.00  0.00    -0.240 A 
ATOM     28  C   LIG    1        4.723   9.468  -2.161  0.00  0.00    +0.240 A 
ATOM     29  O   LIG    1        5.759  10.262  -2.446  0.00  0.00    -0.170 OA
ATOM     30  C   LIG    1        5.732  11.373  -1.694  0.00  0.00    +0.170 A 
ATOM     31  C   LIG    1        4.658  11.335  -0.891  0.00  0.00    +0.000 A 
ENDBRANCH  25  27
ENDBRANCH  22  23
ENDBRANCH  17  22
ENDBRANCH   1  18
TORSDOF 5
