REMARK  Name = ZINCkj000005iM8v.0
REMARK                            x       y       z     vdW  Elec       q    Type
REMARK                         _______ _______ _______ _____ _____    ______ ____
ROOT
ATOM      1  C   LIG    1       -2.482   0.853   0.018  0.00  0.00    +0.240 C 
ENDROOT
BRANCH   1   6
ATOM      2  C   LIG    1       -2.802  -1.332  -3.048  0.00  0.00    +0.150 A 
ATOM      3  C   LIG    1       -3.368  -0.449  -3.956  0.00  0.00    -0.040 A 
ATOM      4  C   LIG    1       -3.645   0.849  -3.575  0.00  0.00    +0.080 A 
ATOM      5  C   LIG    1       -3.358   1.269  -2.289  0.00  0.00    -0.020 A 
ATOM      6  C   LIG    1       -2.794   0.391  -1.382  0.00  0.00    -0.110 A 
ATOM      7  C   LIG    1       -2.511  -0.907  -1.760  0.00  0.00    +0.030 A 
BRANCH   2   9
ATOM      8  C   LIG    1       -2.849  -2.977  -4.764  0.00  0.00    +0.250 C 
ATOM      9  O   LIG    1       -2.529  -2.610  -3.421  0.00  0.00    -0.310 OA
ENDBRANCH   2   9
ENDBRANCH   1   6
BRANCH   1  10
ATOM     10  C   LIG    1       -1.187   1.624   0.017  0.00  0.00    +0.500 C 
ATOM     11  N   LIG    1       -0.011   0.966   0.007  0.00  0.00    -0.600 N 
ATOM     12  H   LIG    1        0.002  -0.004   0.002  0.00  0.00    +0.420 HD
ATOM     13  O   LIG    1       -1.204   2.837   0.023  0.00  0.00    -0.510 OA
BRANCH  11  14
ATOM     14  C   LIG    1        1.198   1.686  -0.000  0.00  0.00    -0.030 A 
ATOM     15  C   LIG    1        2.446   1.153  -0.015  0.00  0.00    +0.080 A 
ATOM     16  N   LIG    1        3.332   2.182  -0.018  0.00  0.00    -0.360 N 
ATOM     17  N   LIG    1        2.602   3.378  -0.005  0.00  0.00    -0.270 NA
ATOM     18  C   LIG    1        4.792   2.063  -0.032  0.00  0.00    +0.370 C 
ATOM     19  C   LIG    1        2.787  -0.315  -0.027  0.00  0.00    +0.150 C 
ATOM     20  C   LIG    1        1.328   3.083  -0.000  0.00  0.00    +0.270 A 
ENDBRANCH  11  14
ENDBRANCH   1  10
BRANCH   1  21
ATOM     21  N   LIG    1       -3.566   1.718   0.502  0.00  0.00    -0.620 N 
ATOM     22  H   LIG    1       -3.358   2.026   1.440  0.00  0.00    +0.440 HD
ATOM     23  H   LIG    1       -4.433   1.201   0.503  0.00  0.00    +0.450 HD
ATOM     24  H   LIG    1       -3.653   2.519  -0.105  0.00  0.00    +0.440 HD
ENDBRANCH   1  21
TORSDOF 5
