REMARK  Name = ZINCvU000000060j.0
REMARK                            x       y       z     vdW  Elec       q    Type
REMARK                         _______ _______ _______ _____ _____    ______ ____
ROOT
ATOM      1  C   LIG    1       -0.748   6.672  -3.982  0.00  0.00    +0.110 A 
ATOM      2  C   LIG    1       -1.398   7.295  -2.932  0.00  0.00    -0.040 A 
ATOM      3  C   LIG    1       -1.194   6.866  -1.628  0.00  0.00    -0.060 A 
ATOM      4  C   LIG    1       -0.341   5.815  -1.374  0.00  0.00    -0.070 A 
ATOM      5  C   LIG    1       -0.085   5.317   0.025  0.00  0.00    +0.230 C 
ATOM      6  N   LIG    1       -1.131   5.792   0.937  0.00  0.00    -0.500 NA
ATOM      7  C   LIG    1       -1.277   7.252   0.827  0.00  0.00    +0.190 C 
ATOM      8  C   LIG    1        0.313   5.186  -2.425  0.00  0.00    -0.020 A 
ATOM      9  C   LIG    1       -1.928   7.575  -0.518  0.00  0.00    +0.100 C 
ATOM     10  C   LIG    1        0.113   5.609  -3.727  0.00  0.00    +0.100 A 
ENDROOT
BRANCH   5  11
ATOM     11  C   LIG    1       -0.073   3.811   0.023  0.00  0.00    -0.080 A 
ATOM     12  C   LIG    1        1.129   3.129   0.007  0.00  0.00    +0.000 A 
ATOM     13  C   LIG    1        1.140   1.747   0.005  0.00  0.00    +0.000 A 
ATOM     14  C   LIG    1       -0.051   1.046   0.020  0.00  0.00    +0.000 A 
ATOM     15  C   LIG    1       -1.254   1.728   0.030  0.00  0.00    +0.000 A 
ATOM     16  C   LIG    1       -1.265   3.110   0.036  0.00  0.00    +0.050 A 
ENDBRANCH   5  11
BRANCH   1  18
ATOM     17  C   LIG    1       -1.849   8.192  -5.443  0.00  0.00    +0.240 C 
ATOM     18  O   LIG    1       -0.951   7.096  -5.258  0.00  0.00    -0.310 OA
ENDBRANCH   1  18
BRANCH  10  19
ATOM     19  O   LIG    1        0.755   4.989  -4.753  0.00  0.00    -0.310 OA
ATOM     20  C   LIG    1        1.623   3.905  -4.414  0.00  0.00    +0.230 C 
ENDBRANCH  10  19
BRANCH   6  21
ATOM     21  C   LIG    1       -0.842   5.394   2.321  0.00  0.00    +0.210 C 
BRANCH  21  22
ATOM     22  C   LIG    1       -2.043   5.678   3.186  0.00  0.00    +0.520 C 
ATOM     23  N   LIG    1       -2.008   5.392   4.503  0.00  0.00    -0.680 N 
ATOM     24  H   LIG    1       -1.236   4.944   4.881  0.00  0.00    +0.410 HD
ATOM     25  O   LIG    1       -3.041   6.165   2.697  0.00  0.00    -0.490 OA
BRANCH  23  26
ATOM     26  C   LIG    1       -3.086   5.742   5.324  0.00  0.00    +0.180 A 
ATOM     27  C   LIG    1       -4.382   5.694   4.828  0.00  0.00    +0.030 A 
ATOM     28  C   LIG    1       -5.445   6.036   5.643  0.00  0.00    +0.050 A 
ATOM     29  C   LIG    1       -5.218   6.435   6.947  0.00  0.00    +0.000 A 
ATOM     30  C   LIG    1       -3.928   6.489   7.442  0.00  0.00    +0.070 A 
ATOM     31  C   LIG    1       -2.861   6.143   6.635  0.00  0.00    -0.120 A 
ATOM     32 BR   LIG    1       -1.098   6.217   7.314  0.00  0.00    -0.050 Br
ENDBRANCH  23  26
ENDBRANCH  21  22
ENDBRANCH   6  21
TORSDOF 6
