REMARK  Name = ZINCvU0000000Iq6.0
REMARK                            x       y       z     vdW  Elec       q    Type
REMARK                         _______ _______ _______ _____ _____    ______ ____
ROOT
ATOM      1  C   LIG    1       -4.842   2.472   6.913  0.00  0.00    +0.520 C 
ATOM      2  O   LIG    1       -4.367   3.572   7.111  0.00  0.00    -0.480 OA
ENDROOT
BRANCH   1   3
ATOM      3  C   LIG    1       -5.931   1.972   7.778  0.00  0.00    -0.050 A 
ATOM      4  C   LIG    1       -7.264   2.208   7.463  0.00  0.00    -0.080 A 
ATOM      5  C   LIG    1       -8.265   1.721   8.301  0.00  0.00    +0.170 A 
ATOM      6  N   LIG    1       -7.989   1.042   9.386  0.00  0.00    -0.450 NA
ATOM      7  C   LIG    1       -6.732   0.777   9.751  0.00  0.00    +0.130 A 
ATOM      8  C   LIG    1       -6.457   0.045  10.921  0.00  0.00    +0.060 A 
ATOM      9  C   LIG    1       -5.167  -0.227  11.259  0.00  0.00    +0.040 A 
ATOM     10  C   LIG    1       -4.108   0.225  10.475  0.00  0.00    +0.030 A 
ATOM     11  C   LIG    1       -4.336   0.942   9.339  0.00  0.00    +0.020 A 
ATOM     12  C   LIG    1       -5.652   1.229   8.954  0.00  0.00    -0.070 A 
BRANCH   4  13
ATOM     13  C   LIG    1       -7.624   2.985   6.223  0.00  0.00    +0.070 C 
ATOM     14  C   LIG    1       -7.728   4.472   6.566  0.00  0.00    +0.040 C 
ENDBRANCH   4  13
BRANCH   5  15
ATOM     15  C   LIG    1       -9.706   1.984   7.949  0.00  0.00    +0.100 C 
BRANCH  15  16
ATOM     16  C   LIG    1      -10.243   0.829   7.101  0.00  0.00    +0.010 C 
ATOM     17  C   LIG    1      -11.731   1.047   6.824  0.00  0.00    +0.030 C 
ENDBRANCH  15  16
ENDBRANCH   5  15
ENDBRANCH   1   3
BRANCH   1  18
ATOM     18  O   LIG    1       -4.377   1.709   5.906  0.00  0.00    -0.330 OA
BRANCH  18  19
ATOM     19  C   LIG    1       -3.306   2.264   5.098  0.00  0.00    +0.240 C 
BRANCH  19  20
ATOM     20  C   LIG    1       -2.919   1.276   4.028  0.00  0.00    +0.430 C 
ATOM     21  O   LIG    1       -3.489   0.207   3.955  0.00  0.00    -0.450 OA
BRANCH  20  25
ATOM     22  N   LIG    1       -0.405   1.485   1.416  0.00  0.00    -0.430 N 
ATOM     23  C   LIG    1       -0.206   2.701   2.002  0.00  0.00    +0.020 A 
ATOM     24  C   LIG    1       -1.066   2.843   3.025  0.00  0.00    -0.010 A 
ATOM     25  C   LIG    1       -1.854   1.605   3.078  0.00  0.00    -0.270 A 
ATOM     26  C   LIG    1        0.813   3.724   1.570  0.00  0.00    +0.120 C 
ATOM     27  C   LIG    1       -1.384   0.813   2.047  0.00  0.00    +0.120 A 
ATOM     28  C   LIG    1       -1.881  -0.565   1.692  0.00  0.00    +0.150 C 
BRANCH  22  29
ATOM     29  C   LIG    1        0.347   0.980   0.264  0.00  0.00    +0.320 C 
BRANCH  29  31
ATOM     30  C   LIG    1        0.294   2.042  -1.933  0.00  0.00    +0.050 C 
ATOM     31  C   LIG    1       -0.354   1.380  -1.008  0.00  0.00    -0.070 C 
ENDBRANCH  29  31
ENDBRANCH  22  29
ENDBRANCH  20  25
ENDBRANCH  19  20
ENDBRANCH  18  19
ENDBRANCH   1  18
TORSDOF 10
