REMARK  Name = ZINCtj0000003vRb.0
REMARK                            x       y       z     vdW  Elec       q    Type
REMARK                         _______ _______ _______ _____ _____    ______ ____
ROOT
ATOM      1  C   LIG    1        1.388   1.405  -2.497  0.00  0.00    +0.250 C 
ATOM      2  C   LIG    1        2.108   0.958  -1.221  0.00  0.00    +0.060 C 
ATOM      3  C   LIG    1        1.366   1.511  -0.003  0.00  0.00    +0.270 C 
ATOM      4  N   LIG    1       -0.012   1.005   0.008  0.00  0.00    -0.380 N 
ATOM      5  C   LIG    1       -0.730   1.490  -1.177  0.00  0.00    +0.260 C 
ATOM      6  H   LIG    1        0.002  -0.004   0.002  0.00  0.00    +0.420 HD
ATOM      7  C   LIG    1       -0.068   0.935  -2.441  0.00  0.00    +0.040 C 
ENDROOT
BRANCH   1   8
ATOM      8  N   LIG    1        2.049   0.816  -3.664  0.00  0.00    -0.750 N 
ATOM      9  H   LIG    1        2.555  -0.006  -3.572  0.00  0.00    +0.400 HD
BRANCH   8  15
ATOM     10  C   LIG    1        3.153   0.896  -8.453  0.00  0.00    +0.100 C 
ATOM     11  C   LIG    1        2.474   1.499  -7.250  0.00  0.00    -0.030 A 
ATOM     12  C   LIG    1        1.752   2.671  -7.381  0.00  0.00    -0.050 A 
ATOM     13  C   LIG    1        1.127   3.228  -6.279  0.00  0.00    +0.050 A 
ATOM     14  C   LIG    1        1.220   2.613  -5.047  0.00  0.00    -0.080 A 
ATOM     15  C   LIG    1        1.949   1.439  -4.911  0.00  0.00    +0.200 A 
ATOM     16  C   LIG    1        2.575   0.881  -6.019  0.00  0.00    -0.070 A 
ENDBRANCH   8  15
ENDBRANCH   1   8
BRANCH   4  17
ATOM     17  C   LIG    1       -0.696   1.477   1.218  0.00  0.00    +0.250 C 
BRANCH  17  18
ATOM     18  C   LIG    1       -2.088   0.847   1.296  0.00  0.00    +0.340 C 
BRANCH  18  19
ATOM     19  N   LIG    1       -2.771   1.318   2.503  0.00  0.00    -0.430 N 
ATOM     20  C   LIG    1       -2.818   0.690   3.694  0.00  0.00    +0.530 A 
ATOM     21  N   LIG    1       -3.513   1.404   4.543  0.00  0.00    -0.480 NA
ATOM     22  C   LIG    1       -3.954   2.514   3.946  0.00  0.00    +0.340 A 
ATOM     23  N   LIG    1       -4.720   3.590   4.364  0.00  0.00    -0.510 N 
ATOM     24  C   LIG    1       -5.218   3.643   5.740  0.00  0.00    +0.350 C 
ATOM     25  C   LIG    1       -5.007   4.587   3.506  0.00  0.00    +0.700 A 
ATOM     26  O   LIG    1       -5.681   5.524   3.891  0.00  0.00    -0.520 OA
ATOM     27  N   LIG    1       -4.569   4.574   2.236  0.00  0.00    -0.550 N 
ATOM     28  C   LIG    1       -4.909   5.685   1.343  0.00  0.00    +0.360 C 
ATOM     29  C   LIG    1       -3.819   3.554   1.770  0.00  0.00    +0.600 A 
ATOM     30  O   LIG    1       -3.428   3.553   0.617  0.00  0.00    -0.530 OA
ATOM     31  C   LIG    1       -3.494   2.487   2.635  0.00  0.00    -0.170 A 
ENDBRANCH  18  19
ENDBRANCH  17  18
ENDBRANCH   4  17
TORSDOF 5
