REMARK  Name = ZINCkj000005kmWs.2
REMARK                            x       y       z     vdW  Elec       q    Type
REMARK                         _______ _______ _______ _____ _____    ______ ____
ROOT
ATOM      1  N   LIG    1       -0.807   1.928   1.408  0.00  0.00    -0.380 N 
ATOM      2  H   LIG    1       -0.467   1.501   2.256  0.00  0.00    +0.430 HD
ENDROOT
BRANCH   1   3
ATOM      3  C   LIG    1       -2.159   1.432   1.118  0.00  0.00    +0.160 C 
ATOM      4  C   LIG    1       -2.130  -0.093   1.006  0.00  0.00    +0.090 C 
ATOM      5  C   LIG    1       -2.650   2.031  -0.202  0.00  0.00    +0.090 C 
ENDBRANCH   1   3
BRANCH   1   6
ATOM      6  C   LIG    1       -0.845   3.387   1.575  0.00  0.00    +0.400 C 
BRANCH   6  11
ATOM      7  C   LIG    1       -4.781   4.451   4.545  0.00  0.00    +0.190 C 
ATOM      8  C   LIG    1       -3.368   4.193   4.089  0.00  0.00    +0.050 A 
ATOM      9  C   LIG    1       -2.272   4.225   4.869  0.00  0.00    -0.060 A 
ATOM     10  C   LIG    1       -1.169   3.921   4.037  0.00  0.00    +0.030 A 
ATOM     11  C   LIG    1       -1.657   3.731   2.798  0.00  0.00    -0.110 A 
ATOM     12  O   LIG    1       -2.989   3.894   2.836  0.00  0.00    -0.170 OA
ENDBRANCH   6  11
ENDBRANCH   1   6
BRANCH   1  13
ATOM     13  C   LIG    1        0.089   1.587   0.295  0.00  0.00    +0.320 C 
BRANCH  13  14
ATOM     14  C   LIG    1        0.585   0.174   0.465  0.00  0.00    +0.540 C 
ATOM     15  N   LIG    1        1.297  -0.413  -0.518  0.00  0.00    -0.570 N 
ATOM     16  C   LIG    1        1.842  -1.778  -0.476  0.00  0.00    +0.300 C 
ATOM     17  C   LIG    1        2.551  -1.934  -1.835  0.00  0.00    +0.280 C 
ATOM     18  N   LIG    1        2.338  -0.637  -2.495  0.00  0.00    -0.710 N 
ATOM     19  H   LIG    1        2.663  -0.395  -3.376  0.00  0.00    +0.450 HD
ATOM     20  C   LIG    1        1.625   0.156  -1.685  0.00  0.00    +0.700 C 
ATOM     21  O   LIG    1        1.305   1.290  -1.982  0.00  0.00    -0.560 OA
ATOM     22  O   LIG    1        0.344  -0.435   1.485  0.00  0.00    -0.480 OA
ENDBRANCH  13  14
ENDBRANCH   1  13
TORSDOF 5
