REMARK  Name = ZINCkj000005kmWs.1
REMARK                            x       y       z     vdW  Elec       q    Type
REMARK                         _______ _______ _______ _____ _____    ______ ____
ROOT
ATOM      1  N   LIG    1        1.445  -0.506  -0.177  0.00  0.00    -0.380 N 
ATOM      2  H   LIG    1        2.022  -0.091  -0.893  0.00  0.00    +0.430 HD
ENDROOT
BRANCH   1   3
ATOM      3  C   LIG    1        2.026  -0.224   1.143  0.00  0.00    +0.160 C 
ATOM      4  C   LIG    1        1.155  -0.859   2.229  0.00  0.00    +0.090 C 
ATOM      5  C   LIG    1        2.088   1.290   1.360  0.00  0.00    +0.080 C 
ENDBRANCH   1   3
BRANCH   1   6
ATOM      6  C   LIG    1        1.379  -1.959  -0.382  0.00  0.00    +0.400 C 
BRANCH   6  11
ATOM      7  C   LIG    1        5.861  -3.350  -2.231  0.00  0.00    +0.190 C 
ATOM      8  C   LIG    1        4.724  -3.124  -1.267  0.00  0.00    +0.050 A 
ATOM      9  C   LIG    1        4.721  -3.456   0.036  0.00  0.00    -0.060 A 
ATOM     10  C   LIG    1        3.466  -3.061   0.556  0.00  0.00    +0.030 A 
ATOM     11  C   LIG    1        2.775  -2.519  -0.463  0.00  0.00    -0.110 A 
ATOM     12  O   LIG    1        3.544  -2.557  -1.564  0.00  0.00    -0.170 OA
ENDBRANCH   6  11
ENDBRANCH   1   6
BRANCH   1  13
ATOM     13  C   LIG    1        0.092   0.061  -0.248  0.00  0.00    +0.320 C 
BRANCH  13  14
ATOM     14  C   LIG    1        0.178   1.524  -0.599  0.00  0.00    +0.540 C 
ATOM     15  N   LIG    1       -0.930   2.290  -0.572  0.00  0.00    -0.570 N 
ATOM     16  C   LIG    1       -0.982   3.726  -0.885  0.00  0.00    +0.300 C 
ATOM     17  C   LIG    1       -2.468   4.091  -0.704  0.00  0.00    +0.280 C 
ATOM     18  N   LIG    1       -3.095   2.823  -0.299  0.00  0.00    -0.710 N 
ATOM     19  H   LIG    1       -4.036   2.701  -0.099  0.00  0.00    +0.450 HD
ATOM     20  C   LIG    1       -2.159   1.866  -0.250  0.00  0.00    +0.700 C 
ATOM     21  O   LIG    1       -2.404   0.716   0.058  0.00  0.00    -0.560 OA
ATOM     22  O   LIG    1        1.244   2.011  -0.910  0.00  0.00    -0.480 OA
ENDBRANCH  13  14
ENDBRANCH   1  13
TORSDOF 5
