REMARK  Name = ZINCpk00000y6wRk.0
REMARK                            x       y       z     vdW  Elec       q    Type
REMARK                         _______ _______ _______ _____ _____    ______ ____
ROOT
ATOM      1  C   LIG    1       -0.457   3.843  -2.151  0.00  0.00    +0.560 C 
ATOM      2  N   LIG    1       -0.565   3.101  -1.032  0.00  0.00    -0.600 N 
ATOM      3  C   LIG    1       -0.465   1.636  -1.092  0.00  0.00    +0.280 C 
ATOM      4  C   LIG    1        0.607   1.175  -0.099  0.00  0.00    +0.030 C 
ATOM      5  C   LIG    1        0.282   1.726   1.291  0.00  0.00    +0.010 C 
ATOM      6  C   LIG    1        0.288   3.256   1.249  0.00  0.00    +0.030 C 
ATOM      7  C   LIG    1       -0.787   3.741   0.272  0.00  0.00    +0.250 C 
ATOM      8  O   LIG    1       -0.168   3.313  -3.207  0.00  0.00    -0.520 OA
ENDROOT
BRANCH   1  11
ATOM      9  C   LIG    1       -1.952   7.189  -1.291  0.00  0.00    -0.060 A 
ATOM     10  C   LIG    1       -1.740   5.813  -1.339  0.00  0.00    +0.130 A 
ATOM     11  C   LIG    1       -0.688   5.301  -2.097  0.00  0.00    -0.140 A 
ATOM     12  C   LIG    1        0.151   6.170  -2.800  0.00  0.00    +0.140 A 
ATOM     13  C   LIG    1       -0.065   7.531  -2.755  0.00  0.00    +0.010 A 
ATOM     14  C   LIG    1       -1.107   8.048  -2.005  0.00  0.00    +0.170 A 
ATOM     15  F   LIG    1       -1.310   9.383  -1.961  0.00  0.00    -0.120 F 
BRANCH   9  17
ATOM     16  N   LIG    1       -3.886   8.146   0.100  0.00  0.00    -0.390 NA
ATOM     17  C   LIG    1       -3.030   7.723  -0.515  0.00  0.00    +0.250 C 
ENDBRANCH   9  17
ENDBRANCH   1  11
BRANCH   5  18
ATOM     18  C   LIG    1        1.332   1.238   2.291  0.00  0.00    +0.180 C 
ATOM     19  O   LIG    1        2.614   1.842   2.009  0.00  0.00    -0.360 OA
ATOM     20  C   LIG    1        3.364   1.731   3.238  0.00  0.00    +0.200 C 
ATOM     21  C   LIG    1        2.344   2.043   4.356  0.00  0.00    +0.020 C 
ATOM     22  C   LIG    1        0.976   1.712   3.718  0.00  0.00    -0.040 C 
BRANCH  22  23
ATOM     23  C   LIG    1        0.287   0.611   4.482  0.00  0.00    +0.530 C 
ATOM     24  O   LIG    1        0.088  -0.462   3.954  0.00  0.00    -0.540 OA
ATOM     25  N   LIG    1       -0.109   0.820   5.754  0.00  0.00    -0.850 N 
ATOM     26  H   LIG    1       -0.553   0.111   6.246  0.00  0.00    +0.400 HD
ATOM     27  H   LIG    1        0.050   1.678   6.177  0.00  0.00    +0.400 HD
ENDBRANCH  22  23
ENDBRANCH   5  18
TORSDOF 4
