REMARK  Name = ZINCpe00000FUa7l.0
REMARK                            x       y       z     vdW  Elec       q    Type
REMARK                         _______ _______ _______ _____ _____    ______ ____
ROOT
ATOM      1  N   LIG    1       -0.429   1.418   3.626  0.00  0.00    -0.390 N 
ATOM      2  C   LIG    1       -0.139   1.027   2.357  0.00  0.00    +0.460 A 
ATOM      3  N   LIG    1        0.879   0.191   2.378  0.00  0.00    -0.510 NA
ATOM      4  C   LIG    1        1.284  -0.001   3.635  0.00  0.00    +0.330 A 
ATOM      5  N   LIG    1        2.288  -0.764   4.210  0.00  0.00    -0.510 N 
ATOM      6  C   LIG    1        3.163  -1.581   3.364  0.00  0.00    +0.340 C 
ATOM      7  C   LIG    1        2.461  -0.755   5.545  0.00  0.00    +0.710 A 
ATOM      8  O   LIG    1        3.347  -1.430   6.033  0.00  0.00    -0.530 OA
ATOM      9  N   LIG    1        1.678  -0.018   6.352  0.00  0.00    -0.550 N 
ATOM     10  C   LIG    1        1.908  -0.042   7.799  0.00  0.00    +0.360 C 
ATOM     11  C   LIG    1        0.685   0.744   5.850  0.00  0.00    +0.590 A 
ATOM     12  O   LIG    1       -0.018   1.407   6.592  0.00  0.00    -0.510 OA
ATOM     13  C   LIG    1        0.469   0.765   4.460  0.00  0.00    -0.150 A 
ENDROOT
BRANCH   2  14
ATOM     14  N   LIG    1       -0.801   1.445   1.225  0.00  0.00    -0.460 N 
ATOM     15  C   LIG    1       -0.897   0.358   0.240  0.00  0.00    +0.190 C 
ATOM     16  C   LIG    1       -1.690   0.846  -0.976  0.00  0.00    +0.230 C 
ATOM     17  O   LIG    1       -1.059   2.011  -1.514  0.00  0.00    -0.380 OA
ATOM     18  C   LIG    1       -0.950   3.090  -0.581  0.00  0.00    +0.250 C 
ATOM     19  C   LIG    1       -0.149   2.625   0.638  0.00  0.00    +0.180 C 
ENDBRANCH   2  14
BRANCH   1  20
ATOM     20  C   LIG    1       -1.486   2.346   4.035  0.00  0.00    +0.310 C 
BRANCH  20  21
ATOM     21  C   LIG    1       -2.763   1.561   4.340  0.00  0.00    +0.010 C 
BRANCH  21  22
ATOM     22  C   LIG    1       -3.868   2.530   4.767  0.00  0.00    +0.030 C 
BRANCH  22  23
ATOM     23  C   LIG    1       -5.145   1.745   5.072  0.00  0.00    +0.000 C 
BRANCH  23  25
ATOM     24  C   LIG    1       -7.527   1.929   5.804  0.00  0.00    +0.000 C 
ATOM     25  C   LIG    1       -6.249   2.714   5.499  0.00  0.00    -0.010 C 
ENDBRANCH  23  25
ENDBRANCH  22  23
ENDBRANCH  21  22
ENDBRANCH  20  21
ENDBRANCH   1  20
TORSDOF 6
