REMARK  Name = ZINCvU0000000E7s.0
REMARK                            x       y       z     vdW  Elec       q    Type
REMARK                         _______ _______ _______ _____ _____    ______ ____
ROOT
ATOM      1  O   LIG    1        0.018   7.667   1.161  0.00  0.00    -0.500 OA
ATOM      2  C   LIG    1       -0.195   6.601   0.624  0.00  0.00    +0.540 C 
ATOM      3  N   LIG    1       -1.389   6.367   0.043  0.00  0.00    -0.660 N 
ATOM      4  H   LIG    1       -1.537   5.541  -0.444  0.00  0.00    +0.420 HD
ENDROOT
BRANCH   3   5
ATOM      5  C   LIG    1       -2.415   7.315   0.144  0.00  0.00    +0.150 A 
ATOM      6  C   LIG    1       -3.736   6.900   0.238  0.00  0.00    +0.010 A 
ATOM      7  C   LIG    1       -4.750   7.834   0.343  0.00  0.00    +0.060 A 
ATOM      8  C   LIG    1       -4.451   9.186   0.343  0.00  0.00    +0.020 A 
ATOM      9  O   LIG    1       -5.254  10.290   0.428  0.00  0.00    -0.290 OA
ATOM     10  C   LIG    1       -4.441  11.387  -0.014  0.00  0.00    +0.270 C 
ATOM     11  O   LIG    1       -3.097  10.972   0.268  0.00  0.00    -0.290 OA
ATOM     12  C   LIG    1       -4.782  12.649   0.771  0.00  0.00    +0.060 C 
ATOM     13  C   LIG    1       -6.227  13.060   0.479  0.00  0.00    +0.030 C 
ATOM     14  C   LIG    1       -6.390  13.313  -1.021  0.00  0.00    +0.010 C 
ATOM     15  C   LIG    1       -6.069  12.032  -1.793  0.00  0.00    +0.030 C 
ATOM     16  C   LIG    1       -4.623  11.616  -1.510  0.00  0.00    +0.010 C 
ATOM     17  C   LIG    1       -3.126   9.606   0.244  0.00  0.00    +0.050 A 
ATOM     18  C   LIG    1       -2.111   8.669   0.144  0.00  0.00    +0.050 A 
ENDBRANCH   3   5
BRANCH   2  19
ATOM     19  C   LIG    1        0.874   5.539   0.605  0.00  0.00    +0.110 C 
BRANCH  19  20
ATOM     20  S   LIG    1        2.348   6.152   1.459  0.00  0.00    +0.160 S 
BRANCH  20  21
ATOM     21  C   LIG    1        3.403   4.750   1.291  0.00  0.00    +0.120 A 
ATOM     22  N   LIG    1        3.102   3.618   0.698  0.00  0.00    -0.290 NA
ATOM     23  N   LIG    1        4.107   2.818   0.768  0.00  0.00    -0.260 NA
ATOM     24  C   LIG    1        5.088   3.406   1.409  0.00  0.00    +0.210 A 
ATOM     25  O   LIG    1        4.663   4.642   1.753  0.00  0.00    -0.200 OA
BRANCH  24  26
ATOM     26  C   LIG    1        6.415   2.825   1.701  0.00  0.00    -0.020 A 
ATOM     27  C   LIG    1        7.371   3.572   2.392  0.00  0.00    +0.070 A 
ATOM     28  C   LIG    1        8.605   3.021   2.667  0.00  0.00    +0.040 A 
ATOM     29  C   LIG    1        8.902   1.735   2.248  0.00  0.00    -0.010 A 
ATOM     30  C   LIG    1        7.959   0.991   1.558  0.00  0.00    +0.040 A 
ATOM     31 CL   LIG    1       10.460   1.052   2.591  0.00  0.00    -0.050 Cl
ATOM     32  C   LIG    1        6.719   1.528   1.282  0.00  0.00    +0.100 A 
ENDBRANCH  24  26
ENDBRANCH  20  21
ENDBRANCH  19  20
ENDBRANCH   2  19
TORSDOF 5
