REMARK  Name = ZINCpk00000KfKP0.0
REMARK                            x       y       z     vdW  Elec       q    Type
REMARK                         _______ _______ _______ _____ _____    ______ ____
ROOT
ATOM      1  C   LIG    1       -0.035   0.815   0.129  0.00  0.00    +0.160 C 
ATOM      2  C   LIG    1       -0.726   1.455   1.305  0.00  0.00    +0.090 A 
ATOM      3  N   LIG    1       -0.139   1.934   2.372  0.00  0.00    -0.260 NA
ATOM      4  N   LIG    1       -1.125   2.441   3.227  0.00  0.00    -0.370 N 
ATOM      5  C   LIG    1       -2.326   2.251   2.637  0.00  0.00    +0.260 A 
ATOM      6  C   LIG    1       -0.895   3.068   4.531  0.00  0.00    +0.360 C 
ATOM      7  C   LIG    1       -2.105   1.645   1.440  0.00  0.00    -0.210 A 
ENDROOT
BRANCH   5   8
ATOM      8  O   LIG    1       -3.534   2.605   3.145  0.00  0.00    -0.220 OA
BRANCH   8   9
ATOM      9  C   LIG    1       -3.961   3.880   2.946  0.00  0.00    +0.060 A 
ATOM     10  C   LIG    1       -5.139   4.330   3.534  0.00  0.00    +0.060 A 
ATOM     11  C   LIG    1       -5.533   5.638   3.302  0.00  0.00    +0.020 A 
ATOM     12  C   LIG    1       -4.750   6.447   2.500  0.00  0.00    +0.230 A 
ATOM     13  N   LIG    1       -3.638   5.989   1.957  0.00  0.00    -0.450 NA
ATOM     14  C   LIG    1       -3.225   4.753   2.157  0.00  0.00    +0.190 A 
ENDBRANCH   8   9
ENDBRANCH   5   8
BRANCH   7  15
ATOM     15  C   LIG    1       -3.158   1.247   0.439  0.00  0.00    +0.260 C 
BRANCH  15  16
ATOM     16  N   LIG    1       -3.612  -0.121   0.724  0.00  0.00    -0.510 NA
ATOM     17  C   LIG    1       -4.805  -0.461  -0.080  0.00  0.00    +0.160 C 
ATOM     18  C   LIG    1       -4.455  -1.729  -0.879  0.00  0.00    +0.140 C 
ATOM     19  C   LIG    1       -3.319  -2.370  -0.058  0.00  0.00    +0.170 C 
ATOM     20  O   LIG    1       -3.858  -3.005   1.103  0.00  0.00    -0.360 OA
ATOM     21  C   LIG    1       -4.845  -3.993   0.833  0.00  0.00    +0.210 C 
ATOM     22  C   LIG    1       -6.018  -3.378   0.086  0.00  0.00    +0.160 C 
ATOM     23  N   LIG    1       -5.599  -2.589  -1.055  0.00  0.00    -0.560 NA
ATOM     24  C   LIG    1       -6.731  -1.847  -1.627  0.00  0.00    +0.200 C 
ATOM     25  C   LIG    1       -2.550  -1.106   0.420  0.00  0.00    +0.210 C 
ENDBRANCH  15  16
ENDBRANCH   7  15
TORSDOF 4
