REMARK  Name = ZINCah0000002B6N.1
REMARK                            x       y       z     vdW  Elec       q    Type
REMARK                         _______ _______ _______ _____ _____    ______ ____
ROOT
ATOM      1  C   LIG    1        0.002  -0.004   0.002  0.00  0.00    +0.250 A 
ATOM      2  C   LIG    1       -0.016   1.359   0.009  0.00  0.00    -0.100 A 
ATOM      3  C   LIG    1        1.201   2.071   0.002  0.00  0.00    +0.150 A 
ATOM      4  N   LIG    1        1.527   3.351   0.005  0.00  0.00    -0.330 NA
ATOM      5  N   LIG    1        2.922   3.465  -0.009  0.00  0.00    -0.430 N 
ATOM      6  H   LIG    1        3.412   4.302  -0.009  0.00  0.00    +0.440 HD
ATOM      7  C   LIG    1        3.480   2.247  -0.020  0.00  0.00    +0.290 A 
ATOM      8  C   LIG    1        2.462   1.312  -0.015  0.00  0.00    -0.240 A 
ATOM      9  C   LIG    1        2.408  -0.099  -0.022  0.00  0.00    +0.130 A 
ATOM     10  C   LIG    1        1.206  -0.724  -0.013  0.00  0.00    -0.070 A 
ENDROOT
BRANCH   1  11
ATOM     11  N   LIG    1       -1.208  -0.702   0.009  0.00  0.00    -0.870 N 
ATOM     12  H   LIG    1       -1.209  -1.671   0.004  0.00  0.00    +0.400 HD
ATOM     13  H   LIG    1       -2.048  -0.216   0.020  0.00  0.00    +0.400 HD
ENDBRANCH   1  11
TORSDOF 1
