REMARK  Name = ZINCah0000002B6N.0
REMARK                            x       y       z     vdW  Elec       q    Type
REMARK                         _______ _______ _______ _____ _____    ______ ____
ROOT
ATOM      1  C   LIG    1        1.213  -0.672  -0.013  0.00  0.00    +0.270 A 
ATOM      2  C   LIG    1        2.414   0.038  -0.021  0.00  0.00    -0.090 A 
ATOM      3  C   LIG    1        2.413   1.401  -0.013  0.00  0.00    +0.140 A 
ATOM      4  C   LIG    1        1.200   2.098   0.002  0.00  0.00    -0.230 A 
ATOM      5  C   LIG    1        0.846   3.514   0.012  0.00  0.00    +0.290 A 
ATOM      6  N   LIG    1       -0.453   3.600   0.025  0.00  0.00    -0.260 NA
ATOM      7  N   LIG    1       -1.020   2.321   0.019  0.00  0.00    -0.520 N 
ATOM      8  H   LIG    1       -1.970   2.127   0.021  0.00  0.00    +0.440 HD
ATOM      9  C   LIG    1       -0.017   1.387   0.010  0.00  0.00    +0.180 A 
ATOM     10  C   LIG    1        0.002  -0.004   0.002  0.00  0.00    -0.120 A 
ENDROOT
BRANCH   1  11
ATOM     11  N   LIG    1        1.234  -2.069  -0.021  0.00  0.00    -0.870 N 
ATOM     12  H   LIG    1        2.081  -2.541  -0.032  0.00  0.00    +0.400 HD
ATOM     13  H   LIG    1        0.401  -2.566  -0.016  0.00  0.00    +0.400 HD
ENDBRANCH   1  11
TORSDOF 1
