REMARK  Name = ZINCrH00000No4Mw.0
REMARK                            x       y       z     vdW  Elec       q    Type
REMARK                         _______ _______ _______ _____ _____    ______ ____
ROOT
ATOM      1  N   LIG    1        0.046  -0.617  -0.124  0.00  0.00    -0.310 NA
ATOM      2  C   LIG    1       -1.045  -1.320   0.084  0.00  0.00    +0.170 C 
ENDROOT
BRANCH   1   9
ATOM      3  C   LIG    1        4.166   3.465  -1.743  0.00  0.00    +0.520 C 
ATOM      4  N   LIG    1        3.030   2.740  -1.700  0.00  0.00    -0.620 N 
ATOM      5  C   LIG    1        1.728   3.408  -1.577  0.00  0.00    +0.310 C 
ATOM      6  C   LIG    1        1.019   2.881  -0.323  0.00  0.00    +0.110 C 
ATOM      7  C   LIG    1        1.065   1.369  -0.347  0.00  0.00    +0.220 C 
ATOM      8  C   LIG    1        2.407   0.693  -0.520  0.00  0.00    +0.050 C 
ATOM      9  N   LIG    1       -0.022   0.668  -0.218  0.00  0.00    -0.380 NA
ATOM     10  C   LIG    1        3.080   1.275  -1.775  0.00  0.00    +0.300 C 
ATOM     11  O   LIG    1        4.117   4.675  -1.680  0.00  0.00    -0.530 OA
BRANCH   3  13
ATOM     12  C   LIG    1        6.616   3.814  -1.895  0.00  0.00    +0.040 C 
ATOM     13  C   LIG    1        5.498   2.770  -1.869  0.00  0.00    +0.030 C 
ENDBRANCH   3  13
ENDBRANCH   1   9
BRANCH   2  14
ATOM     14  C   LIG    1       -2.362  -0.649   0.111  0.00  0.00    -0.110 A 
ATOM     15  C   LIG    1       -2.487   0.629   0.660  0.00  0.00    +0.070 A 
ATOM     16  C   LIG    1       -3.718   1.251   0.678  0.00  0.00    -0.010 A 
ATOM     17  C   LIG    1       -4.830   0.607   0.164  0.00  0.00    +0.020 A 
ATOM     18  C   LIG    1       -4.714  -0.662  -0.377  0.00  0.00    +0.000 A 
ATOM     19  C   LIG    1       -3.488  -1.293  -0.406  0.00  0.00    +0.060 A 
ENDBRANCH   2  14
BRANCH   2  20
ATOM     20  C   LIG    1       -0.955  -2.779   0.290  0.00  0.00    +0.450 C 
ATOM     21  O   LIG    1       -1.969  -3.446   0.366  0.00  0.00    -0.420 OA
BRANCH  20  22
ATOM     22  C   LIG    1        0.366  -3.429   0.402  0.00  0.00    -0.170 A 
ATOM     23  C   LIG    1        1.526  -2.653   0.477  0.00  0.00    +0.090 A 
ATOM     24  C   LIG    1        2.756  -3.267   0.587  0.00  0.00    -0.010 A 
ATOM     25  C   LIG    1        2.845  -4.648   0.613  0.00  0.00    +0.050 A 
ATOM     26  C   LIG    1        1.700  -5.423   0.534  0.00  0.00    -0.010 A 
ATOM     27  C   LIG    1        0.463  -4.822   0.429  0.00  0.00    +0.070 A 
ENDBRANCH  20  22
ENDBRANCH   2  20
TORSDOF 5
