REMARK  Name = ZINCrH000004mpks.0
REMARK                            x       y       z     vdW  Elec       q    Type
REMARK                         _______ _______ _______ _____ _____    ______ ____
ROOT
ATOM      1  N   LIG    1       -1.241  -0.740  -0.186  0.00  0.00    -0.610 N 
ATOM      2  H   LIG    1       -1.064  -1.693  -0.177  0.00  0.00    +0.430 HD
ATOM      3  C   LIG    1       -2.509  -0.288  -0.123  0.00  0.00    +0.570 C 
ATOM      4  O   LIG    1       -2.730   0.907  -0.135  0.00  0.00    -0.480 OA
ENDROOT
BRANCH   3   5
ATOM      5  C   LIG    1       -3.631  -1.246  -0.040  0.00  0.00    -0.120 A 
ATOM      6  C   LIG    1       -3.392  -2.615  -0.154  0.00  0.00    +0.020 A 
ATOM      7  C   LIG    1       -4.450  -3.508  -0.070  0.00  0.00    +0.140 A 
ATOM      8  C   LIG    1       -5.744  -3.037   0.116  0.00  0.00    +0.060 A 
ATOM      9  C   LIG    1       -5.981  -1.679   0.224  0.00  0.00    +0.030 A 
ATOM     10  C   LIG    1       -4.935  -0.783   0.147  0.00  0.00    -0.020 A 
ATOM     11  C   LIG    1       -5.200   0.696   0.265  0.00  0.00    +0.110 C 
BRANCH   7  12
ATOM     12  N   LIG    1       -4.215  -4.883  -0.179  0.00  0.00    -0.680 N 
ATOM     13  H   LIG    1       -3.500  -5.210  -0.749  0.00  0.00    +0.410 HD
ATOM     14  C   LIG    1       -4.980  -5.755   0.507  0.00  0.00    +0.510 C 
ATOM     15  O   LIG    1       -5.815  -5.345   1.286  0.00  0.00    -0.520 OA
ATOM     16  C   LIG    1       -4.800  -7.237   0.307  0.00  0.00    +0.110 C 
ENDBRANCH   7  12
ENDBRANCH   3   5
BRANCH   1  20
ATOM     17  C   LIG    1        1.923   0.907  -0.399  0.00  0.00    +0.340 A 
ATOM     18  N   LIG    1        1.400   2.108  -0.393  0.00  0.00    -0.510 NA
ATOM     19  S   LIG    1       -0.281   1.879  -0.293  0.00  0.00    +0.340 S 
ATOM     20  C   LIG    1       -0.188   0.159  -0.264  0.00  0.00    +0.280 A 
ATOM     21  N   LIG    1        1.095  -0.118  -0.331  0.00  0.00    -0.540 NA
BRANCH  17  25
ATOM     22  C   LIG    1        6.131   0.333  -0.626  0.00  0.00    +0.150 A 
ATOM     23  C   LIG    1        5.607   1.619  -0.622  0.00  0.00    -0.020 A 
ATOM     24  C   LIG    1        4.243   1.808  -0.549  0.00  0.00    +0.110 A 
ATOM     25  C   LIG    1        3.391   0.707  -0.479  0.00  0.00    -0.070 A 
ATOM     26  C   LIG    1        3.921  -0.582  -0.477  0.00  0.00    +0.110 A 
ATOM     27  C   LIG    1        5.285  -0.765  -0.556  0.00  0.00    -0.090 A 
BRANCH  22  29
ATOM     28  C   LIG    1        7.947  -1.199  -0.699  0.00  0.00    +0.240 C 
ATOM     29  O   LIG    1        7.476   0.150  -0.699  0.00  0.00    -0.310 OA
ENDBRANCH  22  29
ENDBRANCH  17  25
ENDBRANCH   1  20
TORSDOF 5
