REMARK  Name = ZINCrH000004sAby.0
REMARK                            x       y       z     vdW  Elec       q    Type
REMARK                         _______ _______ _______ _____ _____    ______ ____
ROOT
ATOM      1  C   LIG    1        7.485   3.019  -1.984  0.00  0.00    +0.260 C 
ATOM      2  C   LIG    1        6.684   4.024  -2.814  0.00  0.00    +0.010 C 
ATOM      3  C   LIG    1        6.234   5.180  -1.914  0.00  0.00    +0.300 C 
ATOM      4  N   LIG    1        7.415   5.750  -1.251  0.00  0.00    -0.610 N 
ATOM      5  C   LIG    1        8.305   4.854  -0.500  0.00  0.00    +0.280 C 
ATOM      6  C   LIG    1        7.676   7.070  -1.330  0.00  0.00    +0.560 C 
ATOM      7  O   LIG    1        6.984   7.786  -2.027  0.00  0.00    -0.520 OA
ATOM      8  C   LIG    1        8.731   3.702  -1.416  0.00  0.00    +0.010 C 
ENDROOT
BRANCH   6   9
ATOM      9  C   LIG    1        8.803   7.646  -0.569  0.00  0.00    -0.170 A 
ATOM     10  C   LIG    1        9.091   7.183   0.717  0.00  0.00    +0.070 A 
ATOM     11  C   LIG    1       10.145   7.725   1.422  0.00  0.00    +0.000 A 
ATOM     12  C   LIG    1       10.918   8.727   0.860  0.00  0.00    +0.080 A 
ATOM     13  C   LIG    1       10.640   9.192  -0.412  0.00  0.00    -0.020 A 
ATOM     14  C   LIG    1        9.591   8.654  -1.134  0.00  0.00    +0.150 A 
ATOM     15  F   LIG    1        9.323   9.105  -2.379  0.00  0.00    -0.120 F 
ENDBRANCH   6   9
BRANCH   1  16
ATOM     16  N   LIG    1        7.888   1.895  -2.833  0.00  0.00    -0.710 N 
ATOM     17  H   LIG    1        8.763   1.894  -3.252  0.00  0.00    +0.410 HD
BRANCH  16  28
ATOM     18  C   LIG    1        8.774  -0.230  -4.501  0.00  0.00    +0.140 C 
ATOM     19  C   LIG    1        7.412  -0.241  -3.855  0.00  0.00    +0.080 A 
ATOM     20  N   LIG    1        6.604  -1.253  -4.061  0.00  0.00    -0.400 NA
ATOM     21  C   LIG    1        5.393  -1.266  -3.489  0.00  0.00    +0.030 A 
ATOM     22  C   LIG    1        4.509  -2.339  -3.693  0.00  0.00    +0.080 A 
ATOM     23  C   LIG    1        3.284  -2.326  -3.099  0.00  0.00    +0.010 A 
ATOM     24  C   LIG    1        2.891  -1.263  -2.290  0.00  0.00    +0.050 A 
ATOM     25  C   LIG    1        3.721  -0.207  -2.070  0.00  0.00    +0.030 A 
ATOM     26  C   LIG    1        4.994  -0.185  -2.665  0.00  0.00    +0.130 A 
ATOM     27  N   LIG    1        5.831   0.841  -2.466  0.00  0.00    -0.500 NA
ATOM     28  C   LIG    1        7.019   0.834  -3.039  0.00  0.00    +0.380 A 
ENDBRANCH  16  28
ENDBRANCH   1  16
TORSDOF 3
