REMARK  Name = ZINCrD00000hQ6cB.1
REMARK                            x       y       z     vdW  Elec       q    Type
REMARK                         _______ _______ _______ _____ _____    ______ ____
ROOT
ATOM      1  C   LIG    1       -1.330   2.128  -0.568  0.00  0.00    +0.190 C 
ATOM      2  C   LIG    1       -0.912   0.658  -0.505  0.00  0.00    +0.030 C 
ATOM      3  C   LIG    1        0.019   0.447   0.694  0.00  0.00    +0.310 C 
ATOM      4  N   LIG    1       -0.649   0.937   1.907  0.00  0.00    -0.620 N 
ATOM      5  C   LIG    1       -1.175   2.309   1.919  0.00  0.00    +0.300 C 
ATOM      6  C   LIG    1       -0.780   0.141   2.987  0.00  0.00    +0.530 C 
ATOM      7  O   LIG    1       -0.257  -0.953   3.002  0.00  0.00    -0.520 OA
ATOM      8  C   LIG    1       -2.092   2.499   0.707  0.00  0.00    +0.030 C 
ENDROOT
BRANCH   6   9
ATOM      9  C   LIG    1       -1.577   0.611   4.177  0.00  0.00    -0.020 C 
ATOM     10  C   LIG    1       -0.860   1.791   4.836  0.00  0.00    +0.040 C 
ATOM     11  C   LIG    1        0.531   1.351   5.296  0.00  0.00    +0.020 C 
ATOM     12  C   LIG    1        0.397   0.208   6.304  0.00  0.00    +0.020 C 
ATOM     13  C   LIG    1       -0.319  -0.973   5.644  0.00  0.00    +0.030 C 
ATOM     14  C   LIG    1       -1.711  -0.532   5.185  0.00  0.00    +0.040 C 
BRANCH  12  15
ATOM     15  C   LIG    1        1.767  -0.226   6.757  0.00  0.00    -0.080 A 
ATOM     16  C   LIG    1        2.680  -0.705   5.836  0.00  0.00    +0.010 A 
ATOM     17  C   LIG    1        3.939  -1.098   6.250  0.00  0.00    +0.000 A 
ATOM     18  C   LIG    1        4.281  -1.023   7.587  0.00  0.00    -0.010 A 
ATOM     19  C   LIG    1        3.366  -0.549   8.509  0.00  0.00    +0.000 A 
ATOM     20  C   LIG    1        2.110  -0.151   8.094  0.00  0.00    +0.000 A 
ENDBRANCH  12  15
ENDBRANCH   6   9
BRANCH   1  21
ATOM     21  N   LIG    1       -2.197   2.341  -1.735  0.00  0.00    -0.350 N 
ATOM     22  H   LIG    1       -3.061   1.835  -1.609  0.00  0.00    +0.400 HD
BRANCH  21  24
ATOM     23  C   LIG    1       -3.521   3.980  -2.983  0.00  0.00    +0.070 C 
ATOM     24  C   LIG    1       -2.485   3.775  -1.876  0.00  0.00    +0.250 C 
ENDBRANCH  21  24
BRANCH  21  25
ATOM     25  C   LIG    1       -1.517   1.857  -2.944  0.00  0.00    +0.160 C 
BRANCH  25  26
ATOM     26  C   LIG    1       -0.196   2.565  -3.096  0.00  0.00    +0.490 C 
ATOM     27  O   LIG    1        0.577   2.232  -3.978  0.00  0.00    -0.630 OA
ATOM     28  O   LIG    1        0.100   3.472  -2.336  0.00  0.00    -0.670 OA
ENDBRANCH  25  26
ENDBRANCH  21  25
ENDBRANCH   1  21
TORSDOF 6
