REMARK  Name = ZINCrD00000hQ6cB.0
REMARK                            x       y       z     vdW  Elec       q    Type
REMARK                         _______ _______ _______ _____ _____    ______ ____
ROOT
ATOM      1  C   LIG    1        1.190   7.416  -2.679  0.00  0.00    +0.150 C 
ATOM      2  C   LIG    1        2.214   6.290  -2.834  0.00  0.00    +0.030 C 
ATOM      3  C   LIG    1        2.058   5.300  -1.675  0.00  0.00    +0.310 C 
ATOM      4  N   LIG    1        0.662   4.844  -1.627  0.00  0.00    -0.620 N 
ATOM      5  C   LIG    1       -0.408   5.849  -1.575  0.00  0.00    +0.300 C 
ATOM      6  C   LIG    1        0.369   3.528  -1.637  0.00  0.00    +0.530 C 
ATOM      7  O   LIG    1        1.262   2.708  -1.605  0.00  0.00    -0.520 OA
ATOM      8  C   LIG    1       -0.224   6.832  -2.729  0.00  0.00    +0.030 C 
ENDROOT
BRANCH   6   9
ATOM      9  C   LIG    1       -1.068   3.077  -1.687  0.00  0.00    -0.010 C 
ATOM     10  C   LIG    1       -1.120   1.569  -1.943  0.00  0.00    +0.040 C 
ATOM     11  C   LIG    1       -0.394   0.835  -0.814  0.00  0.00    +0.030 C 
ATOM     12  C   LIG    1       -1.074   1.150   0.520  0.00  0.00    +0.030 C 
ATOM     13  C   LIG    1       -1.022   2.657   0.776  0.00  0.00    +0.020 C 
ATOM     14  C   LIG    1       -1.748   3.392  -0.353  0.00  0.00    +0.030 C 
BRANCH  12  15
ATOM     15  C   LIG    1       -0.359   0.426   1.631  0.00  0.00    -0.080 A 
ATOM     16  C   LIG    1        0.981   0.674   1.868  0.00  0.00    +0.010 A 
ATOM     17  C   LIG    1        1.635   0.014   2.891  0.00  0.00    +0.000 A 
ATOM     18  C   LIG    1        0.954  -0.901   3.671  0.00  0.00    -0.010 A 
ATOM     19  C   LIG    1       -0.384  -1.153   3.431  0.00  0.00    +0.000 A 
ATOM     20  C   LIG    1       -1.040  -0.489   2.412  0.00  0.00    +0.000 A 
ENDBRANCH  12  15
ENDBRANCH   6   9
BRANCH   1  21
ATOM     21  N   LIG    1        1.358   8.384  -3.771  0.00  0.00    -0.360 N 
ATOM     22  H   LIG    1        2.318   8.695  -3.799  0.00  0.00    +0.420 HD
BRANCH  21  24
ATOM     23  C   LIG    1        0.931  10.288  -2.291  0.00  0.00    +0.070 C 
ATOM     24  C   LIG    1        0.476   9.537  -3.544  0.00  0.00    +0.250 C 
ENDBRANCH  21  24
BRANCH  21  25
ATOM     25  C   LIG    1        1.012   7.747  -5.048  0.00  0.00    +0.150 C 
BRANCH  25  26
ATOM     26  C   LIG    1        1.302   8.699  -6.180  0.00  0.00    +0.490 C 
ATOM     27  O   LIG    1        1.083   8.363  -7.331  0.00  0.00    -0.640 OA
ATOM     28  O   LIG    1        1.754   9.806  -5.944  0.00  0.00    -0.670 OA
ENDBRANCH  25  26
ENDBRANCH  21  25
ENDBRANCH   1  21
TORSDOF 6
