REMARK  Name = ZINCrD00000F5Lpu.1
REMARK                            x       y       z     vdW  Elec       q    Type
REMARK                         _______ _______ _______ _____ _____    ______ ____
ROOT
ATOM      1  C   LIG    1        6.555   9.277  -2.436  0.00  0.00    -0.060 A 
ATOM      2  C   LIG    1        7.527   8.930  -1.516  0.00  0.00    +0.010 A 
ATOM      3  C   LIG    1        7.340   7.839  -0.686  0.00  0.00    +0.030 A 
ATOM      4  C   LIG    1        6.178   7.097  -0.770  0.00  0.00    +0.010 A 
ATOM      5  C   LIG    1        5.202   7.441  -1.698  0.00  0.00    +0.150 A 
ATOM      6  C   LIG    1        5.393   8.536  -2.529  0.00  0.00    -0.020 A 
ENDROOT
BRANCH   5   7
ATOM      7  N   LIG    1        4.027   6.688  -1.789  0.00  0.00    -0.670 N 
ATOM      8  H   LIG    1        3.191   7.121  -2.021  0.00  0.00    +0.410 HD
ATOM      9  C   LIG    1        4.057   5.361  -1.556  0.00  0.00    +0.550 C 
ATOM     10  O   LIG    1        5.120   4.801  -1.360  0.00  0.00    -0.520 OA
BRANCH   9  11
ATOM     11  C   LIG    1        2.812   4.594  -1.538  0.00  0.00    -0.060 C 
ATOM     12  C   LIG    1        2.842   3.265  -1.304  0.00  0.00    +0.130 C 
BRANCH  12  13
ATOM     13  C   LIG    1        1.591   2.494  -1.286  0.00  0.00    -0.150 A 
ATOM     14  C   LIG    1        1.478   1.316  -2.037  0.00  0.00    +0.150 A 
ATOM     15  C   LIG    1        0.298   0.598  -2.014  0.00  0.00    -0.010 A 
ATOM     16  C   LIG    1       -0.772   1.041  -1.256  0.00  0.00    +0.100 A 
ATOM     17  C   LIG    1       -0.668   2.199  -0.506  0.00  0.00    -0.010 A 
ATOM     18  F   LIG    1        2.519   0.885  -2.782  0.00  0.00    -0.120 F 
ATOM     19  C   LIG    1        0.504   2.931  -0.517  0.00  0.00    +0.140 A 
ATOM     20  F   LIG    1        0.602   4.064   0.212  0.00  0.00    -0.120 F 
ENDBRANCH  12  13
ENDBRANCH   9  11
ENDBRANCH   5   7
BRANCH   1  21
ATOM     21  C   LIG    1        6.764  10.466  -3.338  0.00  0.00    +0.240 C 
BRANCH  21  26
ATOM     22  C   LIG    1        4.131  15.248  -1.885  0.00  0.00    +0.190 C 
ATOM     23  N   LIG    1        4.662  14.042  -2.534  0.00  0.00    -0.550 NA
ATOM     24  C   LIG    1        6.123  14.118  -2.674  0.00  0.00    +0.180 C 
ATOM     25  C   LIG    1        6.626  12.883  -3.424  0.00  0.00    +0.180 C 
ATOM     26  N   LIG    1        6.233  11.673  -2.689  0.00  0.00    -0.530 NA
ATOM     27  C   LIG    1        4.772  11.596  -2.549  0.00  0.00    +0.170 C 
ATOM     28  C   LIG    1        4.269  12.832  -1.799  0.00  0.00    +0.180 C 
ENDBRANCH  21  26
ENDBRANCH   1  21
TORSDOF 5
