REMARK  Name = ZINCrD00000F5LpU.0
REMARK                            x       y       z     vdW  Elec       q    Type
REMARK                         _______ _______ _______ _____ _____    ______ ____
ROOT
ATOM      1  C   LIG    1       -2.190  -0.007   3.808  0.00  0.00    -0.670 A 
ATOM      2  C   LIG    1       -3.220   0.480   4.591  0.00  0.00    +0.170 A 
ATOM      3  C   LIG    1       -3.019   0.732   5.938  0.00  0.00    +0.070 A 
ATOM      4  C   LIG    1       -1.773   0.495   6.507  0.00  0.00    -0.060 A 
ATOM      5  C   LIG    1       -1.538   0.760   7.943  0.00  0.00    +0.430 C 
ATOM      6  C   LIG    1       -0.150   0.796   8.454  0.00  0.00    -0.120 A 
ATOM      7  C   LIG    1        0.127   1.316   9.713  0.00  0.00    +0.070 A 
ATOM      8  C   LIG    1        1.433   1.343  10.174  0.00  0.00    +0.040 A 
ATOM      9  C   LIG    1        2.463   0.857   9.390  0.00  0.00    +0.040 A 
ATOM     10  C   LIG    1        2.204   0.336   8.134  0.00  0.00    +0.080 A 
ATOM     11  C   LIG    1        0.898   0.301   7.656  0.00  0.00    -0.120 A 
ATOM     12  C   LIG    1        0.601  -0.252   6.316  0.00  0.00    +0.440 C 
ATOM     13  O   LIG    1        1.436  -0.905   5.722  0.00  0.00    -0.420 OA
ATOM     14  O   LIG    1       -2.475   0.947   8.695  0.00  0.00    -0.410 OA
ATOM     15  C   LIG    1       -0.724  -0.001   5.710  0.00  0.00    -0.140 A 
ATOM     16  C   LIG    1       -0.945  -0.255   4.360  0.00  0.00    +0.190 A 
ENDROOT
BRANCH   1  17
ATOM     17  S   LIG    1       -2.466  -0.321   2.096  0.00  0.00    +2.690 S 
ATOM     18  O   LIG    1       -1.495  -1.282   1.703  0.00  0.00    -0.940 OA
ATOM     19  O   LIG    1       -3.864  -0.523   1.945  0.00  0.00    -0.950 OA
BRANCH  17  20
ATOM     20  N   LIG    1       -2.103   1.072   1.277  0.00  0.00    -1.100 NA
ATOM     21  H   LIG    1       -2.801   1.552   0.805  0.00  0.00    +0.420 HD
BRANCH  20  28
ATOM     22  C   LIG    1       -1.466   3.603   2.534  0.00  0.00    +0.020 C 
ATOM     23  C   LIG    1       -0.750   3.109   1.275  0.00  0.00    -0.010 C 
ATOM     24  C   LIG    1       -1.490   3.616   0.036  0.00  0.00    +0.010 C 
ATOM     25  C   LIG    1       -0.773   3.123  -1.223  0.00  0.00    +0.000 C 
ATOM     26  C   LIG    1       -0.753   1.593  -1.232  0.00  0.00    +0.000 C 
ATOM     27  C   LIG    1       -0.013   1.086   0.008  0.00  0.00    +0.020 C 
ATOM     28  C   LIG    1       -0.729   1.579   1.267  0.00  0.00    +0.240 C 
ENDBRANCH  20  28
ENDBRANCH  17  20
ENDBRANCH   1  17
TORSDOF 3
