REMARK  Name = ZINCnE000001L21i.2
REMARK                            x       y       z     vdW  Elec       q    Type
REMARK                         _______ _______ _______ _____ _____    ______ ____
ROOT
ATOM      1  N   LIG    1       -2.238   3.854   3.154  0.00  0.00    -0.490 NA
ATOM      2  C   LIG    1       -1.372   4.256   2.015  0.00  0.00    +0.160 C 
ATOM      3  C   LIG    1       -1.282   5.793   2.118  0.00  0.00    +0.020 C 
ATOM      4  C   LIG    1       -1.572   6.114   3.599  0.00  0.00    +0.030 C 
ATOM      5  C   LIG    1       -1.812   4.742   4.266  0.00  0.00    +0.210 C 
ENDROOT
BRANCH   5   6
ATOM      6  C   LIG    1       -2.901   4.844   5.303  0.00  0.00    -0.250 A 
ATOM      7  C   LIG    1       -2.691   4.849   6.626  0.00  0.00    -0.020 A 
ATOM      8  C   LIG    1       -3.823   4.953   7.396  0.00  0.00    +0.010 A 
ATOM      9  C   LIG    1       -4.974   5.023   6.658  0.00  0.00    -0.230 A 
ATOM     10  S   LIG    1       -4.566   4.960   4.949  0.00  0.00    +0.250 S 
BRANCH   9  11
ATOM     11  C   LIG    1       -6.285   5.130   7.187  0.00  0.00    +0.540 C 
ATOM     12  O   LIG    1       -7.248   5.186   6.432  0.00  0.00    -0.690 OA
ATOM     13  O   LIG    1       -6.455   5.165   8.400  0.00  0.00    -0.680 OA
ENDBRANCH   9  11
ENDBRANCH   5   6
BRANCH   1  14
ATOM     14  C   LIG    1       -2.031   2.442   3.499  0.00  0.00    +0.260 C 
BRANCH  14  21
ATOM     15  C   LIG    1       -1.975   1.163   1.348  0.00  0.00    +0.070 A 
ATOM     16  C   LIG    1       -2.600   0.362   0.398  0.00  0.00    -0.020 A 
ATOM     17  C   LIG    1       -3.918  -0.008   0.612  0.00  0.00    -0.010 A 
ATOM     18  C   LIG    1       -4.567   0.436   1.748  0.00  0.00    +0.100 A 
ATOM     19  N   LIG    1       -3.948   1.200   2.628  0.00  0.00    -0.420 NA
ATOM     20  C   LIG    1       -6.003   0.044   1.986  0.00  0.00    +0.130 C 
ATOM     21  C   LIG    1       -2.693   1.569   2.464  0.00  0.00    +0.130 A 
BRANCH  15  23
ATOM     22  C   LIG    1       -0.013   1.086   0.008  0.00  0.00    +0.230 C 
ATOM     23  O   LIG    1       -0.682   1.547   1.184  0.00  0.00    -0.310 OA
ENDBRANCH  15  23
ENDBRANCH  14  21
ENDBRANCH   1  14
TORSDOF 5
