REMARK  Name = ZINCvU00000006Fp.0
REMARK                            x       y       z     vdW  Elec       q    Type
REMARK                         _______ _______ _______ _____ _____    ______ ____
ROOT
ATOM      1  N   LIG    1        7.326   4.794   1.213  0.00  0.00    -0.720 N 
ATOM      2  H   LIG    1        6.638   4.680   1.887  0.00  0.00    +0.400 HD
ATOM      3  C   LIG    1        8.350   5.644   1.432  0.00  0.00    +0.550 C 
ATOM      4  O   LIG    1        9.213   5.786   0.587  0.00  0.00    -0.510 OA
ENDROOT
BRANCH   3   5
ATOM      5  C   LIG    1        8.422   6.400   2.695  0.00  0.00    -0.130 A 
ATOM      6  C   LIG    1        7.433   6.239   3.668  0.00  0.00    +0.070 A 
ATOM      7  C   LIG    1        7.507   6.949   4.847  0.00  0.00    -0.010 A 
ATOM      8  C   LIG    1        8.559   7.822   5.074  0.00  0.00    +0.060 A 
ATOM      9  C   LIG    1        9.544   7.992   4.124  0.00  0.00    -0.020 A 
ATOM     10  C   LIG    1        9.490   7.282   2.930  0.00  0.00    -0.050 A 
BRANCH  10  11
ATOM     11  S   LIG    1       10.750   7.492   1.716  0.00  0.00    +0.020 S 
BRANCH  11  12
ATOM     12  C   LIG    1       11.860   8.702   2.486  0.00  0.00    +0.070 C 
BRANCH  12  13
ATOM     13  C   LIG    1       13.009   8.992   1.555  0.00  0.00    -0.040 A 
ATOM     14  C   LIG    1       14.165   8.235   1.631  0.00  0.00    +0.040 A 
ATOM     15  C   LIG    1       15.219   8.492   0.779  0.00  0.00    +0.070 A 
ATOM     16  C   LIG    1       15.122   9.526  -0.154  0.00  0.00    -0.020 A 
ATOM     17  C   LIG    1       13.955  10.289  -0.222  0.00  0.00    +0.070 A 
ATOM     18  C   LIG    1       12.906  10.018   0.632  0.00  0.00    +0.040 A 
BRANCH  16  19
ATOM     19  C   LIG    1       16.215   9.802  -1.038  0.00  0.00    +0.250 C 
ATOM     20  N   LIG    1       17.082  10.021  -1.738  0.00  0.00    -0.410 NA
ENDBRANCH  16  19
ENDBRANCH  12  13
ENDBRANCH  11  12
ENDBRANCH  10  11
ENDBRANCH   3   5
BRANCH   1  21
ATOM     21  C   LIG    1        7.254   4.043  -0.043  0.00  0.00    +0.290 C 
BRANCH  21  22
ATOM     22  C   LIG    1        6.005   3.158  -0.036  0.00  0.00    +0.200 C 
BRANCH  22  23
ATOM     23  O   LIG    1        4.838   3.982  -0.021  0.00  0.00    -0.310 OA
BRANCH  23  27
ATOM     24  C   LIG    1        1.186   2.059   0.002  0.00  0.00    +0.100 A 
ATOM     25  C   LIG    1        2.359   1.319  -0.008  0.00  0.00    -0.040 A 
ATOM     26  C   LIG    1        3.581   1.963  -0.021  0.00  0.00    -0.040 A 
ATOM     27  C   LIG    1        3.635   3.349  -0.014  0.00  0.00    +0.090 A 
ATOM     28  C   LIG    1        2.462   4.088   0.001  0.00  0.00    +0.030 A 
ATOM     29  C   LIG    1        1.240   3.445   0.009  0.00  0.00    +0.030 A 
BRANCH  24  30
ATOM     30  O   LIG    1       -0.017   1.425   0.010  0.00  0.00    -0.320 OA
BRANCH  30  32
ATOM     31  C   LIG    1       -1.433  -0.534   0.013  0.00  0.00    +0.070 C 
ATOM     32  C   LIG    1        0.002  -0.004   0.002  0.00  0.00    +0.170 C 
ENDBRANCH  30  32
ENDBRANCH  24  30
ENDBRANCH  23  27
ENDBRANCH  22  23
ENDBRANCH  21  22
ENDBRANCH   1  21
TORSDOF 11
