REMARK  Name = ZINCrD000006Vmsf.0
REMARK                            x       y       z     vdW  Elec       q    Type
REMARK                         _______ _______ _______ _____ _____    ______ ____
ROOT
ATOM      1  N   LIG    1        0.101  -6.887   1.168  0.00  0.00    -0.680 N 
ATOM      2  H   LIG    1        0.015  -6.987   0.207  0.00  0.00    +0.410 HD
ATOM      3  C   LIG    1        0.223  -7.977   1.950  0.00  0.00    +0.510 C 
ATOM      4  O   LIG    1        0.234  -7.859   3.158  0.00  0.00    -0.510 OA
ENDROOT
BRANCH   1   9
ATOM      5  C   LIG    1        0.845  -4.086   3.443  0.00  0.00    +0.000 A 
ATOM      6  C   LIG    1        0.078  -3.075   2.867  0.00  0.00    +0.030 A 
ATOM      7  C   LIG    1       -0.673  -3.335   1.738  0.00  0.00    +0.040 A 
ATOM      8  C   LIG    1       -0.666  -4.596   1.175  0.00  0.00    +0.000 A 
ATOM      9  C   LIG    1        0.096  -5.611   1.741  0.00  0.00    +0.150 A 
ATOM     10  C   LIG    1        0.856  -5.356   2.873  0.00  0.00    +0.070 A 
BRANCH   5  15
ATOM     11  C   LIG    1        2.913  -1.791   7.263  0.00  0.00    +0.410 C 
ATOM     12  N   LIG    1        2.541  -2.825   6.295  0.00  0.00    -0.140 N 
ATOM     13  N   LIG    1        2.963  -4.041   6.305  0.00  0.00    -0.060 NA
ATOM     14  N   LIG    1        2.434  -4.676   5.315  0.00  0.00    -0.270 NA
ATOM     15  C   LIG    1        1.653  -3.808   4.657  0.00  0.00    +0.210 A 
ATOM     16  N   LIG    1        1.743  -2.659   5.297  0.00  0.00    -0.300 NA
ENDBRANCH   5  15
ENDBRANCH   1   9
BRANCH   3  17
ATOM     17  C   LIG    1        0.347  -9.343   1.326  0.00  0.00    +0.060 C 
BRANCH  17  18
ATOM     18  C   LIG    1        0.473 -10.398   2.427  0.00  0.00    +0.040 C 
BRANCH  18  19
ATOM     19  C   LIG    1        0.599 -11.785   1.793  0.00  0.00    +0.100 C 
BRANCH  19  20
ATOM     20  C   LIG    1        0.722 -12.823   2.878  0.00  0.00    -0.170 A 
ATOM     21  C   LIG    1        1.862 -13.339   3.364  0.00  0.00    +0.220 A 
ATOM     22  N   LIG    1        1.581 -14.253   4.342  0.00  0.00    -0.600 N 
ATOM     23  H   LIG    1        2.243 -14.756   4.842  0.00  0.00    +0.420 HD
ATOM     24  C   LIG    1        0.218 -14.358   4.508  0.00  0.00    +0.090 A 
ATOM     25  C   LIG    1       -0.590 -15.122   5.343  0.00  0.00    -0.010 A 
ATOM     26  C   LIG    1       -1.960 -14.999   5.270  0.00  0.00    +0.020 A 
ATOM     27  C   LIG    1       -2.545 -14.119   4.370  0.00  0.00    -0.030 A 
ATOM     28  C   LIG    1       -1.770 -13.358   3.541  0.00  0.00    +0.050 A 
ATOM     29  C   LIG    1       -0.380 -13.467   3.598  0.00  0.00    -0.100 A 
ENDBRANCH  19  20
ENDBRANCH  18  19
ENDBRANCH  17  18
ENDBRANCH   3  17
TORSDOF 6
