REMARK  Name = ZINCkj00000GeQkh.1
REMARK                            x       y       z     vdW  Elec       q    Type
REMARK                         _______ _______ _______ _____ _____    ______ ____
ROOT
ATOM      1  C   LIG    1       -0.795   3.307   1.143  0.00  0.00    +0.260 C 
ATOM      2  C   LIG    1       -0.528   1.804   1.257  0.00  0.00    +0.070 C 
ATOM      3  C   LIG    1        0.160   1.315  -0.019  0.00  0.00    +0.260 C 
ATOM      4  N   LIG    1       -0.707   1.573  -1.175  0.00  0.00    -0.380 N 
ATOM      5  C   LIG    1       -0.910   3.018  -1.333  0.00  0.00    +0.280 C 
ATOM      6  H   LIG    1       -1.599   1.122  -1.032  0.00  0.00    +0.430 HD
ATOM      7  C   LIG    1       -1.639   3.572  -0.107  0.00  0.00    +0.060 C 
ENDROOT
BRANCH   1   8
ATOM      8  N   LIG    1       -1.520   3.769   2.330  0.00  0.00    -1.000 NA
ATOM      9  C   LIG    1       -2.828   3.196   2.658  0.00  0.00    +0.300 C 
BRANCH   8  10
ATOM     10  S   LIG    1       -0.861   4.938   3.300  0.00  0.00    +2.600 S 
ATOM     11  O   LIG    1        0.540   4.812   3.098  0.00  0.00    -0.950 OA
ATOM     12  O   LIG    1       -1.442   4.704   4.575  0.00  0.00    -0.940 OA
BRANCH  10  14
ATOM     13  C   LIG    1       -0.921   7.670   3.421  0.00  0.00    +0.090 C 
ATOM     14  C   LIG    1       -1.467   6.499   2.602  0.00  0.00    -0.360 C 
ENDBRANCH  10  14
ENDBRANCH   8  10
ENDBRANCH   1   8
BRANCH   4  15
ATOM     15  C   LIG    1       -0.078   1.032  -2.388  0.00  0.00    +0.270 C 
BRANCH  15  16
ATOM     16  C   LIG    1       -0.018  -0.471  -2.295  0.00  0.00    +0.360 C 
ATOM     17  O   LIG    1       -0.544  -1.040  -1.369  0.00  0.00    -0.420 OA
BRANCH  16  18
ATOM     18  C   LIG    1        0.700  -1.263  -3.357  0.00  0.00    -0.100 C 
ATOM     19  C   LIG    1        2.168  -0.836  -3.408  0.00  0.00    +0.070 C 
ATOM     20  C   LIG    1        0.046  -1.003  -4.716  0.00  0.00    +0.060 C 
ATOM     21  C   LIG    1        0.613  -2.755  -3.027  0.00  0.00    +0.080 C 
ENDBRANCH  16  18
ENDBRANCH  15  16
ENDBRANCH   4  15
TORSDOF 6
