REMARK  Name = ZINCrH000004qBYd.2
REMARK                            x       y       z     vdW  Elec       q    Type
REMARK                         _______ _______ _______ _____ _____    ______ ____
ROOT
ATOM      1  N   LIG    1       -2.860   4.826  -1.283  0.00  0.00    -0.510 NA
ATOM      2  C   LIG    1       -1.813   5.684  -1.852  0.00  0.00    +0.200 C 
ENDROOT
BRANCH   1   3
ATOM      3  C   LIG    1       -4.166   5.499  -1.313  0.00  0.00    +0.130 C 
ATOM      4  C   LIG    1       -5.301   4.492  -1.014  0.00  0.00    +0.060 C 
ATOM      5  C   LIG    1       -5.722   4.061  -2.436  0.00  0.00    +0.270 C 
ATOM      6  N   LIG    1       -5.349   5.179  -3.311  0.00  0.00    -0.610 N 
ATOM      7  C   LIG    1       -4.472   5.999  -2.708  0.00  0.00    +0.530 C 
ATOM      8  O   LIG    1       -3.994   6.995  -3.209  0.00  0.00    -0.520 OA
BRANCH   6   9
ATOM      9  C   LIG    1       -5.866   5.375  -4.668  0.00  0.00    +0.350 C 
BRANCH   9  10
ATOM     10  C   LIG    1       -4.966   4.675  -5.654  0.00  0.00    -0.110 A 
ATOM     11  C   LIG    1       -3.900   5.350  -6.217  0.00  0.00    +0.020 A 
ATOM     12  C   LIG    1       -3.072   4.707  -7.118  0.00  0.00    +0.000 A 
ATOM     13  C   LIG    1       -3.317   3.391  -7.464  0.00  0.00    +0.010 A 
ATOM     14  C   LIG    1       -4.386   2.717  -6.904  0.00  0.00    +0.000 A 
ATOM     15  C   LIG    1       -5.211   3.359  -6.000  0.00  0.00    +0.020 A 
ENDBRANCH   9  10
ENDBRANCH   6   9
ENDBRANCH   1   3
BRANCH   1  16
ATOM     16  C   LIG    1       -2.515   4.409   0.083  0.00  0.00    +0.240 C 
BRANCH  16  26
ATOM     17  C   LIG    1        2.370   3.640   0.823  0.00  0.00    +0.130 C 
ATOM     18  C   LIG    1        1.025   3.118   0.388  0.00  0.00    +0.160 A 
ATOM     19  N   LIG    1        0.925   1.877  -0.023  0.00  0.00    -0.480 NA
ATOM     20  C   LIG    1       -0.246   1.368  -0.419  0.00  0.00    +0.130 A 
ATOM     21  C   LIG    1       -0.347   0.037  -0.859  0.00  0.00    +0.030 A 
ATOM     22  C   LIG    1       -1.553  -0.453  -1.255  0.00  0.00    +0.030 A 
ATOM     23  C   LIG    1       -2.695   0.344  -1.234  0.00  0.00    +0.010 A 
ATOM     24  C   LIG    1       -2.637   1.638  -0.814  0.00  0.00    +0.050 A 
ATOM     25  C   LIG    1       -1.409   2.177  -0.398  0.00  0.00    -0.090 A 
ATOM     26  C   LIG    1       -1.306   3.510   0.042  0.00  0.00    -0.010 A 
ATOM     27  C   LIG    1       -0.080   3.965   0.439  0.00  0.00    -0.040 A 
ENDBRANCH  16  26
ENDBRANCH   1  16
TORSDOF 5
