REMARK  Name = ZINCrg00000SjSCC.0
REMARK                            x       y       z     vdW  Elec       q    Type
REMARK                         _______ _______ _______ _____ _____    ______ ____
ROOT
ATOM      1  C   LIG    1        5.301   8.221   4.788  0.00  0.00    -0.660 A 
ATOM      2  C   LIG    1        5.760   9.046   3.778  0.00  0.00    +0.100 A 
ATOM      3  C   LIG    1        5.343   8.847   2.475  0.00  0.00    +0.020 A 
ATOM      4  C   LIG    1        4.466   7.822   2.178  0.00  0.00    +0.090 A 
ATOM      5  C   LIG    1        4.003   6.991   3.190  0.00  0.00    +0.150 A 
ATOM      6  C   LIG    1        4.420   7.197   4.498  0.00  0.00    +0.090 A 
ENDROOT
BRANCH   5   7
ATOM      7  N   LIG    1        3.115   5.951   2.893  0.00  0.00    -0.690 N 
ATOM      8  H   LIG    1        2.422   5.709   3.527  0.00  0.00    +0.410 HD
ATOM      9  C   LIG    1        3.221   5.287   1.725  0.00  0.00    +0.710 C 
ATOM     10  N   LIG    1        2.427   4.226   1.478  0.00  0.00    -0.730 N 
ATOM     11  H   LIG    1        1.778   3.942   2.141  0.00  0.00    +0.400 HD
ATOM     12  O   LIG    1        4.034   5.644   0.894  0.00  0.00    -0.570 OA
BRANCH  10  13
ATOM     13  C   LIG    1        2.543   3.504   0.209  0.00  0.00    +0.400 C 
BRANCH  13  14
ATOM     14  C   LIG    1        1.550   2.370   0.184  0.00  0.00    +0.050 A 
ATOM     15  N   LIG    1        1.737   1.176   0.686  0.00  0.00    -0.270 NA
ATOM     16  N   LIG    1        0.580   0.420   0.457  0.00  0.00    -0.470 N 
ATOM     17  H   LIG    1        0.440  -0.502   0.723  0.00  0.00    +0.440 HD
ATOM     18  C   LIG    1       -0.302   1.199  -0.203  0.00  0.00    +0.240 A 
ATOM     19  C   LIG    1        0.271   2.412  -0.380  0.00  0.00    -0.110 A 
ENDBRANCH  13  14
ENDBRANCH  10  13
ENDBRANCH   5   7
BRANCH   1  20
ATOM     20  S   LIG    1        5.836   8.479   6.447  0.00  0.00    +2.690 S 
ATOM     21  O   LIG    1        7.075   9.169   6.366  0.00  0.00    -0.950 OA
ATOM     22  O   LIG    1        5.681   7.235   7.117  0.00  0.00    -0.950 OA
BRANCH  20  26
ATOM     23  N   LIG    1        2.560  11.214   7.408  0.00  0.00    -0.540 NA
ATOM     24  C   LIG    1        2.341   9.765   7.306  0.00  0.00    +0.170 C 
ATOM     25  C   LIG    1        3.569   9.026   7.850  0.00  0.00    +0.310 C 
ATOM     26  N   LIG    1        4.762   9.526   7.150  0.00  0.00    -1.000 NA
ATOM     27  C   LIG    1        4.981  10.979   7.097  0.00  0.00    +0.300 C 
ATOM     28  C   LIG    1        3.694  11.641   6.578  0.00  0.00    +0.170 C 
BRANCH  23  30
ATOM     29  C   LIG    1        1.671  13.445   6.933  0.00  0.00    +0.030 C 
ATOM     30  C   LIG    1        1.342  11.956   7.058  0.00  0.00    +0.160 C 
ENDBRANCH  23  30
ENDBRANCH  20  26
ENDBRANCH   1  20
TORSDOF 6
