REMARK  Name = ZINCrD00000l8JAu.0
REMARK                            x       y       z     vdW  Elec       q    Type
REMARK                         _______ _______ _______ _____ _____    ______ ____
ROOT
ATOM      1  C   LIG    1       -6.439  -5.202  -3.954  0.00  0.00    +0.570 C 
ATOM      2  N   LIG    1       -5.797  -4.831  -2.828  0.00  0.00    -0.720 N 
ATOM      3  H   LIG    1       -6.167  -5.062  -1.961  0.00  0.00    +0.410 HD
ATOM      4  O   LIG    1       -5.976  -4.913  -5.040  0.00  0.00    -0.530 OA
ENDROOT
BRANCH   1   8
ATOM      5  C   LIG    1      -10.076  -7.379  -3.707  0.00  0.00    +0.160 A 
ATOM      6  C   LIG    1       -9.549  -7.049  -4.950  0.00  0.00    -0.020 A 
ATOM      7  C   LIG    1       -8.370  -6.343  -5.034  0.00  0.00    +0.140 A 
ATOM      8  C   LIG    1       -7.703  -5.958  -3.868  0.00  0.00    -0.180 A 
ATOM      9  C   LIG    1       -8.234  -6.296  -2.620  0.00  0.00    +0.090 A 
ATOM     10  C   LIG    1       -9.416  -6.998  -2.545  0.00  0.00    -0.080 A 
BRANCH   5  11
ATOM     11  O   LIG    1      -11.239  -8.075  -3.628  0.00  0.00    -0.310 OA
BRANCH  11  12
ATOM     12  C   LIG    1      -11.725  -8.380  -2.319  0.00  0.00    +0.200 C 
BRANCH  12  13
ATOM     13  C   LIG    1      -13.035  -9.162  -2.431  0.00  0.00    +0.040 C 
BRANCH  13  15
ATOM     14  C   LIG    1      -14.865 -10.272  -1.142  0.00  0.00    +0.030 C 
ATOM     15  C   LIG    1      -13.555  -9.489  -1.030  0.00  0.00    +0.020 C 
ENDBRANCH  13  15
ENDBRANCH  12  13
ENDBRANCH  11  12
ENDBRANCH   5  11
ENDBRANCH   1   8
BRANCH   2  16
ATOM     16  C   LIG    1       -4.542  -4.080  -2.913  0.00  0.00    +0.370 C 
BRANCH  16  17
ATOM     17  C   LIG    1       -4.034  -3.792  -1.524  0.00  0.00    +0.460 C 
ATOM     18  O   LIG    1       -4.656  -4.175  -0.561  0.00  0.00    -0.500 OA
BRANCH  17  19
ATOM     19  O   LIG    1       -2.890  -3.111  -1.355  0.00  0.00    -0.340 OA
BRANCH  19  20
ATOM     20  C   LIG    1       -2.461  -2.870   0.011  0.00  0.00    +0.290 C 
BRANCH  20  21
ATOM     21  C   LIG    1       -1.167  -2.096   0.002  0.00  0.00    -0.060 A 
ATOM     22  C   LIG    1        0.040  -2.770  -0.013  0.00  0.00    +0.000 A 
ATOM     23  C   LIG    1        1.228  -2.064  -0.020  0.00  0.00    +0.050 A 
ATOM     24  C   LIG    1        1.212  -0.682  -0.019  0.00  0.00    -0.070 A 
ATOM     25  C   LIG    1        0.002  -0.004   0.002  0.00  0.00    +0.130 A 
ATOM     26  C   LIG    1       -1.189  -0.715   0.010  0.00  0.00    +0.000 A 
BRANCH  25  27
ATOM     27  O   LIG    1       -0.016   1.355   0.009  0.00  0.00    -0.320 OA
ATOM     28  C   LIG    1        1.248   2.021   0.001  0.00  0.00    +0.250 C 
ENDBRANCH  25  27
ENDBRANCH  20  21
ENDBRANCH  19  20
ENDBRANCH  17  19
ENDBRANCH  16  17
ENDBRANCH   2  16
TORSDOF 11
