REMARK  Name = ZINCqH0000032OMI.0
REMARK                            x       y       z     vdW  Elec       q    Type
REMARK                         _______ _______ _______ _____ _____    ______ ____
ROOT
ATOM      1  C   LIG    1       -0.019   1.526   0.010  0.00  0.00    -0.010 C 
ATOM      2  C   LIG    1        1.416   2.058  -0.000  0.00  0.00    +0.040 C 
ATOM      3  C   LIG    1        2.129   1.573  -1.265  0.00  0.00    +0.060 C 
ATOM      4  C   LIG    1        2.134   0.048  -1.295  0.00  0.00    +0.130 C 
ATOM      5  N   LIG    1        2.847  -0.442  -2.481  0.00  0.00    -0.720 N 
ATOM      6  H   LIG    1        2.610  -0.282  -3.408  0.00  0.00    +0.440 HD
ATOM      7  C   LIG    1        3.893  -1.159  -2.028  0.00  0.00    +0.700 C 
ATOM      8  N   LIG    1        3.946  -1.194  -0.691  0.00  0.00    -0.580 N 
ATOM      9  O   LIG    1        4.698  -1.711  -2.751  0.00  0.00    -0.520 OA
ATOM     10  C   LIG    1        0.710  -0.497  -1.263  0.00  0.00    +0.050 C 
ATOM     11  C   LIG    1        2.933  -0.498  -0.134  0.00  0.00    +0.530 C 
ATOM     12  O   LIG    1        2.711  -0.344   1.048  0.00  0.00    -0.450 OA
ATOM     13  C   LIG    1        0.002  -0.004   0.002  0.00  0.00    +0.030 C 
ENDROOT
BRANCH   1  15
ATOM     14  C   LIG    1       -0.867   3.542   1.218  0.00  0.00    +0.010 C 
ATOM     15  C   LIG    1       -0.736   2.019   1.269  0.00  0.00    +0.000 C 
ENDBRANCH   1  15
BRANCH   8  16
ATOM     16  C   LIG    1        4.978  -1.900   0.074  0.00  0.00    +0.490 C 
BRANCH  16  17
ATOM     17  C   LIG    1        4.527  -3.314   0.337  0.00  0.00    +0.160 A 
ATOM     18  N   LIG    1        4.758  -4.338  -0.437  0.00  0.00    -0.440 NA
ATOM     19  C   LIG    1        4.210  -5.431   0.115  0.00  0.00    +0.170 A 
ATOM     20  C   LIG    1        3.620  -5.051   1.277  0.00  0.00    +0.010 A 
ATOM     21  O   LIG    1        3.831  -3.723   1.406  0.00  0.00    -0.190 OA
BRANCH  20  22
ATOM     22  C   LIG    1        2.891  -5.923   2.221  0.00  0.00    -0.020 A 
ATOM     23  C   LIG    1        2.753  -7.286   1.953  0.00  0.00    +0.040 A 
ATOM     24  C   LIG    1        2.075  -8.096   2.841  0.00  0.00    +0.020 A 
ATOM     25  C   LIG    1        1.525  -7.558   3.991  0.00  0.00    +0.020 A 
ATOM     26  C   LIG    1        1.655  -6.207   4.261  0.00  0.00    +0.010 A 
ATOM     27  C   LIG    1        2.334  -5.387   3.383  0.00  0.00    +0.030 A 
ENDBRANCH  20  22
ENDBRANCH  16  17
ENDBRANCH   8  16
TORSDOF 4
