REMARK  Name = ZINCpk000000pJ5h.0
REMARK                            x       y       z     vdW  Elec       q    Type
REMARK                         _______ _______ _______ _____ _____    ______ ____
ROOT
ATOM      1  C   LIG    1       -1.223   5.920  -0.057  0.00  0.00    +0.500 C 
ATOM      2  N   LIG    1       -0.056   5.252   0.031  0.00  0.00    -0.660 N 
ATOM      3  H   LIG    1        0.778   5.741   0.107  0.00  0.00    +0.420 HD
ATOM      4  O   LIG    1       -2.272   5.311  -0.051  0.00  0.00    -0.500 OA
ENDROOT
BRANCH   2   5
ATOM      5  C   LIG    1       -0.047   3.853   0.012  0.00  0.00    +0.140 A 
ATOM      6  C   LIG    1       -1.086   3.161  -0.591  0.00  0.00    +0.100 A 
ATOM      7  C   LIG    1       -1.071   1.766  -0.611  0.00  0.00    -0.110 A 
ATOM      8  C   LIG    1       -0.013   1.076  -0.015  0.00  0.00    +0.070 A 
ATOM      9  C   LIG    1        1.017   1.774   0.582  0.00  0.00    +0.030 A 
ATOM     10  C   LIG    1        1.004   3.156   0.597  0.00  0.00    -0.080 A 
ATOM     11  C   LIG    1        2.132   3.910   1.252  0.00  0.00    +0.110 C 
BRANCH   7  12
ATOM     12  C   LIG    1       -2.172   1.022  -1.255  0.00  0.00    +0.510 C 
ATOM     13  O   LIG    1       -3.091   1.624  -1.773  0.00  0.00    -0.500 OA
BRANCH  12  14
ATOM     14  O   LIG    1       -2.158  -0.325  -1.269  0.00  0.00    -0.350 OA
ATOM     15  C   LIG    1       -3.272  -0.990  -1.919  0.00  0.00    +0.260 C 
ENDBRANCH  12  14
ENDBRANCH   7  12
ENDBRANCH   2   5
BRANCH   1  16
ATOM     16  C   LIG    1       -1.225   7.423  -0.162  0.00  0.00    +0.370 C 
BRANCH  16  21
ATOM     17  C   LIG    1       -4.696   8.672   0.266  0.00  0.00    +0.120 C 
ATOM     18  N   LIG    1       -4.526   8.530  -1.191  0.00  0.00    -0.710 N 
ATOM     19  H   LIG    1       -5.187   8.724  -1.873  0.00  0.00    +0.440 HD
ATOM     20  C   LIG    1       -3.274   8.081  -1.389  0.00  0.00    +0.710 C 
ATOM     21  N   LIG    1       -2.606   7.905  -0.244  0.00  0.00    -0.560 N 
ATOM     22  O   LIG    1       -2.803   7.857  -2.487  0.00  0.00    -0.540 OA
ATOM     23  C   LIG    1       -5.817   7.761   0.769  0.00  0.00    +0.080 C 
ATOM     24  C   LIG    1       -3.358   8.232   0.826  0.00  0.00    +0.540 C 
ATOM     25  O   LIG    1       -3.033   8.183   1.992  0.00  0.00    -0.460 OA
BRANCH  17  27
ATOM     26  C   LIG    1       -6.336  10.546   0.060  0.00  0.00    +0.050 C 
ATOM     27  C   LIG    1       -4.982  10.129   0.637  0.00  0.00    +0.050 C 
ENDBRANCH  17  27
ENDBRANCH  16  21
ENDBRANCH   1  16
TORSDOF 6
