REMARK  Name = ZINCpe000000TAHt.0
REMARK                            x       y       z     vdW  Elec       q    Type
REMARK                         _______ _______ _______ _____ _____    ______ ____
ROOT
ATOM      1  N   LIG    1        0.001   0.001   0.005  0.00  0.00    -0.520 NA
ATOM      2  C   LIG    1       -0.018   1.470   0.014  0.00  0.00    +0.160 C 
ATOM      3  C   LIG    1        1.417   2.000   0.003  0.00  0.00    +0.040 C 
ATOM      4  C   LIG    1        2.161   1.472   1.234  0.00  0.00    +0.030 C 
ATOM      5  C   LIG    1        2.124  -0.059   1.225  0.00  0.00    +0.010 C 
ATOM      6  C   LIG    1        0.668  -0.529   1.201  0.00  0.00    +0.220 C 
ENDROOT
BRANCH   5   7
ATOM      7  C   LIG    1        2.802  -0.585   2.463  0.00  0.00    +0.510 C 
ATOM      8  N   LIG    1        4.098  -0.295   2.697  0.00  0.00    -0.660 N 
ATOM      9  H   LIG    1        4.614   0.189   2.034  0.00  0.00    +0.420 HD
ATOM     10  O   LIG    1        2.182  -1.269   3.250  0.00  0.00    -0.470 OA
BRANCH   8  11
ATOM     11  C   LIG    1        4.696  -0.692   3.892  0.00  0.00    +0.360 A 
ATOM     12  C   LIG    1        6.000  -0.300   4.173  0.00  0.00    -0.080 A 
ATOM     13  C   LIG    1        6.582  -0.700   5.363  0.00  0.00    +0.100 A 
ATOM     14  C   LIG    1        5.836  -1.483   6.234  0.00  0.00    -0.070 A 
ATOM     15  C   LIG    1        4.546  -1.835   5.891  0.00  0.00    +0.160 A 
ATOM     16  C   LIG    1        3.731  -2.684   6.832  0.00  0.00    +0.140 C 
ATOM     17  N   LIG    1        4.016  -1.434   4.751  0.00  0.00    -0.480 NA
ENDBRANCH   8  11
ENDBRANCH   5   7
BRANCH   1  18
ATOM     18  C   LIG    1       -1.358  -0.542  -0.124  0.00  0.00    +0.220 C 
BRANCH  18  24
ATOM     19  N   LIG    1       -4.900  -0.650  -3.373  0.00  0.00    -0.740 N 
ATOM     20  H   LIG    1       -5.434  -1.167  -2.749  0.00  0.00    +0.400 HD
ATOM     21  C   LIG    1       -3.658  -0.255  -3.030  0.00  0.00    +0.690 C 
ATOM     22  N   LIG    1       -3.159  -0.577  -1.820  0.00  0.00    -0.690 N 
ATOM     23  H   LIG    1       -3.693  -1.093  -1.196  0.00  0.00    +0.410 HD
ATOM     24  C   LIG    1       -1.917  -0.182  -1.477  0.00  0.00    +0.520 C 
ATOM     25  O   LIG    1       -1.249   0.464  -2.256  0.00  0.00    -0.440 OA
ATOM     26  O   LIG    1       -2.989   0.392  -3.811  0.00  0.00    -0.530 OA
BRANCH  19  28
ATOM     27  C   LIG    1       -6.858  -0.866  -4.822  0.00  0.00    +0.030 C 
ATOM     28  C   LIG    1       -5.443  -0.300  -4.688  0.00  0.00    +0.270 C 
ENDBRANCH  19  28
ENDBRANCH  18  24
ENDBRANCH   1  18
TORSDOF 5
