REMARK  Name = ZINCpe000000XH1Y.0
REMARK                            x       y       z     vdW  Elec       q    Type
REMARK                         _______ _______ _______ _____ _____    ______ ____
ROOT
ATOM      1  N   LIG    1        1.549   1.127  -0.372  0.00  0.00    -0.740 N 
ATOM      2  H   LIG    1        1.079   0.279  -0.368  0.00  0.00    +0.400 HD
ATOM      3  C   LIG    1        0.863   2.278  -0.226  0.00  0.00    +0.710 C 
ATOM      4  N   LIG    1       -0.476   2.250  -0.082  0.00  0.00    -0.720 N 
ATOM      5  H   LIG    1       -0.947   1.402  -0.082  0.00  0.00    +0.400 HD
ATOM      6  O   LIG    1        1.452   3.342  -0.230  0.00  0.00    -0.590 OA
ENDROOT
BRANCH   1  10
ATOM      7  N   LIG    1        5.391   0.047  -1.723  0.00  0.00    -0.470 N 
ATOM      8  C   LIG    1        5.113  -0.158  -0.295  0.00  0.00    +0.220 C 
ATOM      9  C   LIG    1        3.600  -0.173  -0.066  0.00  0.00    +0.030 C 
ATOM     10  C   LIG    1        3.005   1.158  -0.535  0.00  0.00    +0.250 C 
ATOM     11  C   LIG    1        3.350   1.370  -2.011  0.00  0.00    +0.030 C 
ATOM     12  C   LIG    1        4.870   1.340  -2.184  0.00  0.00    +0.200 C 
BRANCH   7  16
ATOM     13  C   LIG    1        9.167   0.138  -4.879  0.00  0.00    +0.140 C 
ATOM     14  C   LIG    1        8.592  -0.025  -3.495  0.00  0.00    +0.190 A 
ATOM     15  C   LIG    1        7.233   0.090  -3.286  0.00  0.00    -0.100 A 
ATOM     16  C   LIG    1        6.747  -0.064  -1.985  0.00  0.00    +0.360 A 
ATOM     17  N   LIG    1        7.606  -0.325  -1.005  0.00  0.00    -0.560 NA
ATOM     18  C   LIG    1        8.896  -0.432  -1.251  0.00  0.00    +0.350 A 
ATOM     19  C   LIG    1        9.837  -0.730  -0.113  0.00  0.00    +0.170 C 
ATOM     20  N   LIG    1        9.386  -0.287  -2.466  0.00  0.00    -0.540 NA
ENDBRANCH   7  16
ENDBRANCH   1  10
BRANCH   4  21
ATOM     21  C   LIG    1       -1.222   3.501   0.077  0.00  0.00    +0.260 C 
BRANCH  21  22
ATOM     22  C   LIG    1       -1.219   3.908   1.528  0.00  0.00    +0.510 C 
ATOM     23  O   LIG    1       -0.987   3.085   2.388  0.00  0.00    -0.530 OA
ATOM     24  N   LIG    1       -1.474   5.186   1.870  0.00  0.00    -0.850 N 
ATOM     25  H   LIG    1       -1.543   5.434   2.805  0.00  0.00    +0.400 HD
ATOM     26  H   LIG    1       -1.589   5.859   1.181  0.00  0.00    +0.400 HD
ENDBRANCH  21  22
BRANCH  21  27
ATOM     27  C   LIG    1       -2.664   3.299  -0.393  0.00  0.00    -0.010 C 
ATOM     28  C   LIG    1       -3.329   2.213   0.456  0.00  0.00    +0.040 C 
ATOM     29  C   LIG    1       -2.667   2.870  -1.862  0.00  0.00    +0.030 C 
ENDBRANCH  21  27
ENDBRANCH   4  21
TORSDOF 5
