REMARK  Name = ZINCrH000004mUEk.0
REMARK                            x       y       z     vdW  Elec       q    Type
REMARK                         _______ _______ _______ _____ _____    ______ ____
ROOT
ATOM      1  C   LIG    1        1.023   3.021   0.737  0.00  0.00    +0.510 C 
ATOM      2  N   LIG    1        1.143   1.898   0.001  0.00  0.00    -0.670 N 
ATOM      3  H   LIG    1        0.369   1.532  -0.454  0.00  0.00    +0.410 HD
ATOM      4  O   LIG    1        1.966   3.427   1.383  0.00  0.00    -0.490 OA
ENDROOT
BRANCH   2   5
ATOM      5  C   LIG    1        2.387   1.261  -0.107  0.00  0.00    +0.130 A 
ATOM      6  C   LIG    1        2.447  -0.126  -0.215  0.00  0.00    +0.010 A 
ATOM      7  C   LIG    1        3.663  -0.765  -0.325  0.00  0.00    +0.040 A 
ATOM      8  C   LIG    1        4.836  -0.024  -0.328  0.00  0.00    +0.030 A 
ATOM      9  C   LIG    1        4.785   1.376  -0.216  0.00  0.00    +0.070 A 
ATOM     10  N   LIG    1        6.067   1.822  -0.243  0.00  0.00    -0.490 NA
ATOM     11  C   LIG    1        6.883   0.813  -0.363  0.00  0.00    +0.290 A 
ATOM     12  C   LIG    1        8.390   0.913  -0.417  0.00  0.00    +0.150 C 
ATOM     13  C   LIG    1        8.914   0.051  -1.567  0.00  0.00    +0.030 C 
ATOM     14  C   LIG    1        9.160  -1.370  -1.071  0.00  0.00    +0.010 C 
ATOM     15  C   LIG    1        8.139  -1.743   0.003  0.00  0.00    +0.030 C 
ATOM     16  C   LIG    1        6.730  -1.694  -0.590  0.00  0.00    +0.280 C 
ATOM     17  N   LIG    1        6.175  -0.347  -0.429  0.00  0.00    -0.490 N 
ATOM     18  C   LIG    1        3.546   2.014  -0.111  0.00  0.00    +0.070 A 
ENDBRANCH   2   5
BRANCH   1  19
ATOM     19  C   LIG    1       -0.285   3.769   0.763  0.00  0.00    +0.240 C 
BRANCH  19  20
ATOM     20  O   LIG    1       -0.164   4.911   1.613  0.00  0.00    -0.290 OA
BRANCH  20  24
ATOM     21  C   LIG    1       -3.501   7.306   2.019  0.00  0.00    +0.090 A 
ATOM     22  C   LIG    1       -2.332   7.627   2.692  0.00  0.00    +0.030 A 
ATOM     23  C   LIG    1       -1.215   6.825   2.556  0.00  0.00    +0.040 A 
ATOM     24  C   LIG    1       -1.263   5.700   1.747  0.00  0.00    +0.090 A 
ATOM     25  C   LIG    1       -2.431   5.383   1.070  0.00  0.00    -0.040 A 
ATOM     26  C   LIG    1       -3.550   6.181   1.210  0.00  0.00    -0.040 A 
BRANCH  21  28
ATOM     27  C   LIG    1       -5.771   7.706   1.431  0.00  0.00    +0.230 C 
ATOM     28  O   LIG    1       -4.601   8.096   2.153  0.00  0.00    -0.320 OA
ENDBRANCH  21  28
ENDBRANCH  20  24
ENDBRANCH  19  20
ENDBRANCH   1  19
TORSDOF 5
