REMARK  Name = ZINCrg000000s9mI.1
REMARK                            x       y       z     vdW  Elec       q    Type
REMARK                         _______ _______ _______ _____ _____    ______ ____
ROOT
ATOM      1  N   LIG    1       -4.360   3.550  -1.052  0.00  0.00    -0.540 NA
ATOM      2  C   LIG    1       -5.235   2.649  -1.814  0.00  0.00    +0.190 C 
ATOM      3  C   LIG    1       -5.417   3.191  -3.233  0.00  0.00    +0.040 C 
ATOM      4  C   LIG    1       -6.032   4.592  -3.164  0.00  0.00    +0.110 C 
ATOM      5  C   LIG    1       -5.126   5.498  -2.326  0.00  0.00    +0.040 C 
ATOM      6  C   LIG    1       -4.952   4.889  -0.933  0.00  0.00    +0.200 C 
ENDROOT
BRANCH   4   7
ATOM      7  C   LIG    1       -6.158   5.155  -4.556  0.00  0.00    +0.190 A 
ATOM      8  N   LIG    1       -7.112   5.932  -4.993  0.00  0.00    -0.290 NA
ATOM      9  N   LIG    1       -6.902   6.222  -6.228  0.00  0.00    -0.270 NA
ATOM     10  C   LIG    1       -5.805   5.644  -6.636  0.00  0.00    +0.180 A 
ATOM     11  N   LIG    1       -5.298   4.955  -5.585  0.00  0.00    -0.580 N 
ATOM     12  H   LIG    1       -4.487   4.424  -5.572  0.00  0.00    +0.420 HD
BRANCH  10  13
ATOM     13  C   LIG    1       -5.209   5.732  -8.017  0.00  0.00    +0.310 C 
BRANCH  13  14
ATOM     14  N   LIG    1       -5.832   4.723  -8.884  0.00  0.00    -0.840 NA
ATOM     15  H   LIG    1       -5.735   3.799  -8.491  0.00  0.00    +0.340 HD
ATOM     16  H   LIG    1       -5.449   4.762  -9.817  0.00  0.00    +0.360 HD
ENDBRANCH  13  14
ENDBRANCH  10  13
ENDBRANCH   4   7
BRANCH   1  17
ATOM     17  C   LIG    1       -4.052   2.991   0.270  0.00  0.00    +0.330 C 
BRANCH  17  22
ATOM     18  N   LIG    1       -2.444   1.046  -0.108  0.00  0.00    -0.320 N 
ATOM     19  N   LIG    1       -2.603  -0.350  -0.152  0.00  0.00    -0.060 NA
ATOM     20  N   LIG    1       -3.856  -0.585   0.042  0.00  0.00    -0.030 NA
ATOM     21  N   LIG    1       -4.495   0.518   0.203  0.00  0.00    -0.320 NA
ATOM     22  C   LIG    1       -3.680   1.537   0.127  0.00  0.00    +0.260 A 
BRANCH  18  28
ATOM     23  C   LIG    1       -0.005   4.771  -2.200  0.00  0.00    +0.110 C 
ATOM     24  C   LIG    1       -0.045   3.583  -1.274  0.00  0.00    -0.080 A 
ATOM     25  C   LIG    1        1.091   3.212  -0.578  0.00  0.00    +0.080 A 
ATOM     26  C   LIG    1        1.059   2.122   0.272  0.00  0.00    +0.010 A 
ATOM     27  C   LIG    1       -0.110   1.399   0.428  0.00  0.00    +0.120 A 
ATOM     28  C   LIG    1       -1.254   1.774  -0.267  0.00  0.00    +0.080 A 
ATOM     29  F   LIG    1       -0.142   0.335   1.260  0.00  0.00    -0.120 F 
ATOM     30  C   LIG    1       -1.216   2.865  -1.123  0.00  0.00    +0.090 A 
ENDBRANCH  18  28
ENDBRANCH  17  22
ENDBRANCH   1  17
TORSDOF 6
