REMARK  Name = ZINCvU0000000AmX.0
REMARK                            x       y       z     vdW  Elec       q    Type
REMARK                         _______ _______ _______ _____ _____    ______ ____
ROOT
ATOM      1  C   LIG    1       -0.877   4.429  -2.720  0.00  0.00    +0.150 A 
ATOM      2  N   LIG    1       -1.344   3.888  -1.619  0.00  0.00    -0.290 NA
ATOM      3  N   LIG    1       -1.710   2.677  -1.847  0.00  0.00    -0.270 NA
ATOM      4  C   LIG    1       -1.493   2.371  -3.095  0.00  0.00    +0.210 A 
ATOM      5  N   LIG    1       -0.957   3.477  -3.699  0.00  0.00    -0.410 N 
ENDROOT
BRANCH   5   6
ATOM      6  C   LIG    1       -0.570   3.607  -5.042  0.00  0.00    +0.090 A 
ATOM      7  C   LIG    1        0.482   2.850  -5.538  0.00  0.00    +0.070 A 
ATOM      8  C   LIG    1        0.859   2.976  -6.861  0.00  0.00    +0.010 A 
ATOM      9  C   LIG    1        0.193   3.864  -7.689  0.00  0.00    +0.120 A 
ATOM     10  C   LIG    1       -0.854   4.623  -7.195  0.00  0.00    +0.010 A 
ATOM     11  F   LIG    1        0.566   3.989  -8.982  0.00  0.00    -0.130 F 
ATOM     12  C   LIG    1       -1.236   4.496  -5.874  0.00  0.00    +0.080 A 
ENDBRANCH   5   6
BRANCH   4  13
ATOM     13  C   LIG    1       -1.784   1.047  -3.754  0.00  0.00    +0.270 C 
ATOM     14  C   LIG    1       -0.731   0.022  -3.328  0.00  0.00    +0.020 C 
BRANCH  13  15
ATOM     15  N   LIG    1       -3.116   0.579  -3.345  0.00  0.00    -0.530 NA
ATOM     16  C   LIG    1       -3.181   0.383  -1.891  0.00  0.00    +0.210 C 
ATOM     17  C   LIG    1       -3.484  -0.651  -4.059  0.00  0.00    +0.200 C 
ENDBRANCH  13  15
ENDBRANCH   4  13
BRANCH   1  18
ATOM     18  S   LIG    1       -0.263   6.071  -2.903  0.00  0.00    +0.090 S 
BRANCH  18  19
ATOM     19  C   LIG    1       -0.483   6.678  -1.212  0.00  0.00    +0.110 C 
BRANCH  19  22
ATOM     20  N   LIG    1       -0.080   8.769   0.046  0.00  0.00    -0.670 N 
ATOM     21  H   LIG    1       -0.499   8.353   0.815  0.00  0.00    +0.410 HD
ATOM     22  C   LIG    1       -0.011   8.107  -1.126  0.00  0.00    +0.540 C 
ATOM     23  O   LIG    1        0.430   8.660  -2.111  0.00  0.00    -0.500 OA
BRANCH  20  28
ATOM     24  C   LIG    1        2.084  13.997   0.479  0.00  0.00    +0.100 C 
ATOM     25  C   LIG    1        1.510  12.609   0.364  0.00  0.00    -0.060 A 
ATOM     26  C   LIG    1        0.171  12.438   0.065  0.00  0.00    +0.020 A 
ATOM     27  C   LIG    1       -0.359  11.167  -0.042  0.00  0.00    -0.060 A 
ATOM     28  C   LIG    1        0.455  10.059   0.152  0.00  0.00    +0.130 A 
ATOM     29  C   LIG    1        1.799  10.233   0.458  0.00  0.00    -0.020 A 
ATOM     30 CL   LIG    1        2.820   8.851   0.708  0.00  0.00    -0.060 Cl
ATOM     31  C   LIG    1       -1.819  10.983  -0.367  0.00  0.00    +0.110 C 
ATOM     32  C   LIG    1        2.324  11.507   0.558  0.00  0.00    +0.030 A 
ENDBRANCH  20  28
ENDBRANCH  19  22
ENDBRANCH  18  19
ENDBRANCH   1  18
TORSDOF 7
