REMARK  Name = ZINCpk00000ebstv.0
REMARK                            x       y       z     vdW  Elec       q    Type
REMARK                         _______ _______ _______ _____ _____    ______ ____
ROOT
ATOM      1  O   LIG    1        1.130   2.868   0.007  0.00  0.00    -0.540 OA
ATOM      2  C   LIG    1        1.147   1.655   0.000  0.00  0.00    +0.520 C 
ATOM      3  N   LIG    1       -0.011   0.966   0.007  0.00  0.00    -0.710 N 
ATOM      4  H   LIG    1        0.002  -0.004   0.002  0.00  0.00    +0.400 HD
ENDROOT
BRANCH   3   5
ATOM      5  C   LIG    1       -1.290   1.681   0.017  0.00  0.00    +0.280 C 
BRANCH   5   6
ATOM      6  C   LIG    1       -1.674   2.042  -1.394  0.00  0.00    -0.100 A 
ATOM      7  C   LIG    1       -1.454   1.144  -2.422  0.00  0.00    +0.020 A 
ATOM      8  C   LIG    1       -1.811   1.473  -3.716  0.00  0.00    +0.000 A 
ATOM      9  C   LIG    1       -2.380   2.704  -3.984  0.00  0.00    +0.010 A 
ATOM     10  C   LIG    1       -2.595   3.604  -2.957  0.00  0.00    +0.010 A 
ATOM     11  C   LIG    1       -2.242   3.273  -1.663  0.00  0.00    +0.020 A 
ENDBRANCH   5   6
BRANCH   5  12
ATOM     12  C   LIG    1       -2.370   0.786   0.627  0.00  0.00    +0.350 C 
BRANCH  12  13
ATOM     13  N   LIG    1       -2.057   0.532   2.036  0.00  0.00    -0.380 N 
ATOM     14  C   LIG    1       -2.855   0.762   3.093  0.00  0.00    +0.480 A 
ATOM     15  N   LIG    1       -2.211   0.403   4.173  0.00  0.00    -0.540 NA
ATOM     16  C   LIG    1       -1.004  -0.059   3.848  0.00  0.00    +0.420 A 
ATOM     17  N   LIG    1       -0.865  -0.004   2.550  0.00  0.00    -0.310 NA
ENDBRANCH  12  13
ENDBRANCH   5  12
ENDBRANCH   3   5
BRANCH   2  18
ATOM     18  C   LIG    1        2.462   0.920  -0.017  0.00  0.00    +0.060 C 
BRANCH  18  19
ATOM     19  C   LIG    1        3.611   1.930  -0.022  0.00  0.00    +0.040 C 
BRANCH  19  20
ATOM     20  C   LIG    1        4.946   1.183  -0.039  0.00  0.00    +0.260 C 
BRANCH  20  21
ATOM     21  N   LIG    1        6.047   2.150  -0.044  0.00  0.00    -0.730 N 
ATOM     22  H   LIG    1        5.857   3.101  -0.037  0.00  0.00    +0.400 HD
ATOM     23  C   LIG    1        7.324   1.718  -0.059  0.00  0.00    +0.540 C 
ATOM     24  O   LIG    1        7.561   0.529  -0.067  0.00  0.00    -0.540 OA
BRANCH  23  25
ATOM     25  C   LIG    1        8.456   2.713  -0.064  0.00  0.00    -0.080 C 
ATOM     26  C   LIG    1        9.301   2.814  -1.335  0.00  0.00    +0.060 C 
ATOM     27  C   LIG    1        9.882   2.160  -0.081  0.00  0.00    +0.060 C 
ENDBRANCH  23  25
ENDBRANCH  20  21
ENDBRANCH  19  20
ENDBRANCH  18  19
ENDBRANCH   2  18
TORSDOF 9
