REMARK  Name = ZINCrH000004rrCe.0
REMARK                            x       y       z     vdW  Elec       q    Type
REMARK                         _______ _______ _______ _____ _____    ______ ____
ROOT
ATOM      1  C   LIG    1       -2.544   4.133   0.250  0.00  0.00    -0.120 A 
ATOM      2  C   LIG    1       -3.744   3.420   0.246  0.00  0.00    +0.040 A 
ATOM      3  C   LIG    1       -4.943   4.093   0.366  0.00  0.00    +0.030 A 
ATOM      4  C   LIG    1       -4.957   5.472   0.477  0.00  0.00    -0.090 A 
ATOM      5  C   LIG    1       -3.772   6.185   0.476  0.00  0.00    +0.040 A 
ATOM      6  C   LIG    1       -2.566   5.524   0.363  0.00  0.00    +0.080 A 
ENDROOT
BRANCH   1   9
ATOM      7  N   LIG    1       -1.238   2.075   0.019  0.00  0.00    -0.660 N 
ATOM      8  H   LIG    1       -2.071   1.584  -0.061  0.00  0.00    +0.410 HD
ATOM      9  C   LIG    1       -1.256   3.418   0.128  0.00  0.00    +0.560 C 
ATOM     10  O   LIG    1       -0.212   4.042   0.127  0.00  0.00    -0.510 OA
BRANCH   7  16
ATOM     11  C   LIG    1        3.511   1.889   1.278  0.00  0.00    +0.090 C 
ATOM     12  C   LIG    1        2.302   1.275   0.621  0.00  0.00    -0.070 A 
ATOM     13  C   LIG    1        2.401   0.036   0.015  0.00  0.00    +0.010 A 
ATOM     14  C   LIG    1        1.294  -0.532  -0.590  0.00  0.00    +0.010 A 
ATOM     15  C   LIG    1        0.083   0.140  -0.590  0.00  0.00    +0.070 A 
ATOM     16  C   LIG    1       -0.017   1.388   0.021  0.00  0.00    +0.130 A 
ATOM     17  C   LIG    1        1.097   1.952   0.626  0.00  0.00    +0.030 A 
BRANCH  15  18
ATOM     18  O   LIG    1       -1.005  -0.417  -1.185  0.00  0.00    -0.500 OA
ATOM     19  H   LIG    1       -1.103  -0.188  -2.119  0.00  0.00    +0.390 HD
ENDBRANCH  15  18
ENDBRANCH   7  16
ENDBRANCH   1   9
BRANCH   4  20
ATOM     20  C   LIG    1       -6.271   6.200   0.601  0.00  0.00    +0.400 C 
BRANCH  20  21
ATOM     21  N   LIG    1       -6.764   6.547  -0.734  0.00  0.00    -0.390 N 
ATOM     22  N   LIG    1       -6.504   7.728  -1.445  0.00  0.00    -0.000 NA
ATOM     23  N   LIG    1       -7.100   7.683  -2.584  0.00  0.00    -0.220 NA
ATOM     24  C   LIG    1       -7.781   6.526  -2.710  0.00  0.00    -0.020 A 
ATOM     25  C   LIG    1       -8.582   5.994  -3.728  0.00  0.00    +0.110 A 
ATOM     26  C   LIG    1       -9.157   4.766  -3.571  0.00  0.00    +0.000 A 
ATOM     27  C   LIG    1       -8.957   4.032  -2.409  0.00  0.00    +0.080 A 
ATOM     28  C   LIG    1       -8.174   4.533  -1.394  0.00  0.00    +0.000 A 
ATOM     29  C   LIG    1       -7.579   5.782  -1.535  0.00  0.00    +0.090 A 
ENDBRANCH  20  21
ENDBRANCH   4  20
TORSDOF 5
