REMARK  Name = ZINCqH0000035VaN.0
REMARK                            x       y       z     vdW  Elec       q    Type
REMARK                         _______ _______ _______ _____ _____    ______ ____
ROOT
ATOM      1  N   LIG    1       -1.848  -0.811  -1.345  0.00  0.00    -0.610 N 
ATOM      2  C   LIG    1       -1.518  -1.814  -2.182  0.00  0.00    +0.520 C 
ATOM      3  O   LIG    1       -0.761  -2.687  -1.813  0.00  0.00    -0.540 OA
ATOM      4  C   LIG    1       -2.763   0.243  -1.790  0.00  0.00    +0.290 C 
ENDROOT
BRANCH   1   5
ATOM      5  C   LIG    1       -1.293  -0.775   0.010  0.00  0.00    +0.350 C 
BRANCH   5   9
ATOM      6  C   LIG    1        2.383   1.412  -0.014  0.00  0.00    +0.170 A 
ATOM      7  C   LIG    1        2.396   0.024  -0.022  0.00  0.00    -0.120 A 
ATOM      8  C   LIG    1        1.207  -0.680  -0.014  0.00  0.00    +0.120 A 
ATOM      9  C   LIG    1        0.002  -0.004   0.002  0.00  0.00    -0.180 A 
ATOM     10  C   LIG    1       -0.017   1.384   0.010  0.00  0.00    +0.180 A 
ATOM     11  C   LIG    1        1.175   2.092   0.002  0.00  0.00    -0.110 A 
BRANCH   6  13
ATOM     12  C   LIG    1        4.759   1.337  -0.039  0.00  0.00    +0.250 C 
ATOM     13  O   LIG    1        3.553   2.103  -0.022  0.00  0.00    -0.320 OA
ENDBRANCH   6  13
BRANCH  10  14
ATOM     14  O   LIG    1       -1.202   2.048   0.019  0.00  0.00    -0.310 OA
ATOM     15  C   LIG    1       -1.146   3.476   0.026  0.00  0.00    +0.240 C 
ENDBRANCH  10  14
ENDBRANCH   5   9
ENDBRANCH   1   5
BRANCH   2  16
ATOM     16  C   LIG    1       -2.089  -1.852  -3.576  0.00  0.00    +0.070 C 
BRANCH  16  17
ATOM     17  C   LIG    1       -1.558  -3.084  -4.312  0.00  0.00    +0.220 C 
BRANCH  17  18
ATOM     18  O   LIG    1       -2.100  -3.119  -5.634  0.00  0.00    -0.310 OA
BRANCH  18  19
ATOM     19  C   LIG    1       -1.726  -4.158  -6.426  0.00  0.00    +0.130 A 
ATOM     20  C   LIG    1       -0.856  -5.123  -5.941  0.00  0.00    -0.070 A 
ATOM     21  C   LIG    1       -0.478  -6.179  -6.749  0.00  0.00    -0.050 A 
ATOM     22  C   LIG    1       -0.965  -6.273  -8.039  0.00  0.00    -0.030 A 
ATOM     23  C   LIG    1       -1.833  -5.312  -8.524  0.00  0.00    +0.050 A 
ATOM     24  C   LIG    1        0.468  -7.228  -6.223  0.00  0.00    +0.090 C 
ATOM     25  C   LIG    1       -2.219  -4.258  -7.719  0.00  0.00    -0.120 A 
ATOM     26  C   LIG    1       -3.170  -3.215  -8.247  0.00  0.00    +0.100 C 
ENDBRANCH  18  19
ENDBRANCH  17  18
ENDBRANCH  16  17
ENDBRANCH   2  16
TORSDOF 8
