REMARK  Name = ZINCvU00000004Pu.0
REMARK                            x       y       z     vdW  Elec       q    Type
REMARK                         _______ _______ _______ _____ _____    ______ ____
ROOT
ATOM      1  C   LIG    1        7.490   7.298   0.585  0.00  0.00    +0.150 C 
ATOM      2  C   LIG    1        6.716   6.025   0.357  0.00  0.00    -0.200 A 
ATOM      3  C   LIG    1        7.235   4.815   0.431  0.00  0.00    -0.030 A 
ATOM      4  C   LIG    1        6.300   3.735   0.173  0.00  0.00    -0.230 A 
ATOM      5  C   LIG    1        5.019   4.206  -0.104  0.00  0.00    +0.080 A 
ATOM      6  N   LIG    1        4.028   3.330  -0.367  0.00  0.00    -0.510 NA
ATOM      7  C   LIG    1        4.238   2.036  -0.368  0.00  0.00    +0.360 A 
ATOM      8  N   LIG    1        5.471   1.511  -0.098  0.00  0.00    -0.470 N 
ATOM      9  C   LIG    1        6.512   2.324   0.167  0.00  0.00    +0.570 A 
ATOM     10  O   LIG    1        7.614   1.861   0.405  0.00  0.00    -0.500 OA
ATOM     11  C   LIG    1        8.686   4.573   0.757  0.00  0.00    +0.120 C 
ATOM     12  S   LIG    1        5.009   5.963  -0.039  0.00  0.00    +0.200 S 
ENDROOT
BRANCH   8  13
ATOM     13  C   LIG    1        5.654   0.122  -0.103  0.00  0.00    +0.090 A 
ATOM     14  C   LIG    1        5.075  -0.660   0.887  0.00  0.00    +0.030 A 
ATOM     15  C   LIG    1        5.252  -2.030   0.876  0.00  0.00    +0.030 A 
ATOM     16  C   LIG    1        6.016  -2.622  -0.114  0.00  0.00    +0.030 A 
ATOM     17  C   LIG    1        6.599  -1.845  -1.098  0.00  0.00    +0.030 A 
ATOM     18  C   LIG    1        6.420  -0.475  -1.095  0.00  0.00    +0.050 A 
ENDBRANCH   8  13
BRANCH   7  19
ATOM     19  S   LIG    1        2.897   0.947  -0.719  0.00  0.00    +0.120 S 
BRANCH  19  20
ATOM     20  C   LIG    1        1.573   2.153  -0.978  0.00  0.00    +0.120 C 
BRANCH  20  21
ATOM     21  C   LIG    1        0.291   1.430  -1.301  0.00  0.00    +0.540 C 
ATOM     22  N   LIG    1       -0.836   2.130  -1.540  0.00  0.00    -0.660 N 
ATOM     23  H   LIG    1       -0.841   3.093  -1.430  0.00  0.00    +0.420 HD
ATOM     24  O   LIG    1        0.275   0.218  -1.352  0.00  0.00    -0.500 OA
BRANCH  22  25
ATOM     25  C   LIG    1       -2.000   1.465  -1.947  0.00  0.00    +0.140 A 
ATOM     26  C   LIG    1       -2.290   0.203  -1.446  0.00  0.00    +0.070 A 
ATOM     27  C   LIG    1       -3.439  -0.451  -1.848  0.00  0.00    +0.030 A 
ATOM     28  C   LIG    1       -4.300   0.151  -2.750  0.00  0.00    +0.100 A 
ATOM     29  C   LIG    1       -4.012   1.411  -3.251  0.00  0.00    -0.060 A 
ATOM     30 CL   LIG    1       -5.094   2.164  -4.381  0.00  0.00    -0.040 Cl
ATOM     31  F   LIG    1       -5.423  -0.490  -3.142  0.00  0.00    -0.120 F 
ATOM     32  C   LIG    1       -2.867   2.071  -2.847  0.00  0.00    +0.040 A 
ENDBRANCH  22  25
ENDBRANCH  20  21
ENDBRANCH  19  20
ENDBRANCH   7  19
TORSDOF 5
