REMARK  Name = ZINCrD00000F5LIM.0
REMARK                            x       y       z     vdW  Elec       q    Type
REMARK                         _______ _______ _______ _____ _____    ______ ____
ROOT
ATOM      1  C   LIG    1        2.923  -2.581   2.289  0.00  0.00    +0.170 C 
ATOM      2  C   LIG    1        3.220  -1.162   2.779  0.00  0.00    +0.050 C 
ENDROOT
BRANCH   1   3
ATOM      3  C   LIG    1        1.410  -2.778   2.183  0.00  0.00    +0.260 C 
ATOM      4  C   LIG    1        0.768  -2.698   3.584  0.00  0.00    +0.050 C 
ATOM      5  C   LIG    1       -0.328  -3.795   3.529  0.00  0.00    +0.040 C 
ATOM      6  C   LIG    1        0.355  -4.874   2.652  0.00  0.00    +0.260 C 
ATOM      7  N   LIG    1        1.116  -4.113   1.643  0.00  0.00    -0.600 N 
ATOM      8  C   LIG    1        1.485  -4.569   0.430  0.00  0.00    +0.670 C 
ATOM      9  O   LIG    1        2.032  -3.824  -0.359  0.00  0.00    -0.560 OA
BRANCH   8  10
ATOM     10  O   LIG    1        1.248  -5.851   0.091  0.00  0.00    -0.360 OA
BRANCH  10  11
ATOM     11  C   LIG    1        1.673  -6.272  -1.232  0.00  0.00    +0.140 C 
ATOM     12  C   LIG    1        0.959  -5.429  -2.290  0.00  0.00    +0.040 C 
ATOM     13  C   LIG    1        1.322  -7.748  -1.434  0.00  0.00    +0.080 C 
ATOM     14  C   LIG    1        3.186  -6.085  -1.365  0.00  0.00    +0.040 C 
ENDBRANCH  10  11
ENDBRANCH   8  10
ENDBRANCH   1   3
BRANCH   1  15
ATOM     15  O   LIG    1        3.463  -3.527   3.214  0.00  0.00    -0.340 OA
BRANCH  15  16
ATOM     16  C   LIG    1        4.730  -3.939   3.000  0.00  0.00    +0.500 C 
ATOM     17  O   LIG    1        5.359  -3.505   2.053  0.00  0.00    -0.510 OA
BRANCH  16  19
ATOM     18  C   LIG    1        6.597  -5.287   3.664  0.00  0.00    +0.190 C 
ATOM     19  C   LIG    1        5.328  -4.875   3.878  0.00  0.00    -0.080 C 
BRANCH  18  27
ATOM     20  C   LIG    1        6.670  -5.078   6.829  0.00  0.00    +0.160 C 
ATOM     21  C   LIG    1        7.258  -6.180   5.987  0.00  0.00    +0.110 A 
ATOM     22  N   LIG    1        7.891  -7.230   6.432  0.00  0.00    -0.300 NA
ATOM     23  N   LIG    1        8.289  -8.016   5.345  0.00  0.00    -0.360 N 
ATOM     24  C   LIG    1        7.876  -7.420   4.213  0.00  0.00    +0.120 A 
ATOM     25  C   LIG    1        8.091  -7.924   2.809  0.00  0.00    +0.160 C 
ATOM     26  C   LIG    1        9.032  -9.276   5.426  0.00  0.00    +0.360 C 
ATOM     27  C   LIG    1        7.217  -6.259   4.575  0.00  0.00    -0.250 A 
ENDBRANCH  18  27
ENDBRANCH  16  19
ENDBRANCH  15  16
ENDBRANCH   1  15
TORSDOF 7
