REMARK  Name = ZINCrH000004owkz.0
REMARK                            x       y       z     vdW  Elec       q    Type
REMARK                         _______ _______ _______ _____ _____    ______ ____
ROOT
ATOM      1  C   LIG    1       -3.256   1.071  -2.382  0.00  0.00    +0.500 C 
ATOM      2  N   LIG    1       -4.473   1.647  -2.428  0.00  0.00    -0.670 N 
ATOM      3  H   LIG    1       -4.584   2.570  -2.151  0.00  0.00    +0.420 HD
ATOM      4  O   LIG    1       -3.134  -0.110  -2.630  0.00  0.00    -0.510 OA
ENDROOT
BRANCH   2   5
ATOM      5  C   LIG    1       -5.579   0.912  -2.875  0.00  0.00    +0.150 A 
ATOM      6  C   LIG    1       -6.583   1.540  -3.600  0.00  0.00    +0.010 A 
ATOM      7  C   LIG    1       -7.671   0.815  -4.045  0.00  0.00    +0.040 A 
ATOM      8  C   LIG    1       -7.765  -0.540  -3.759  0.00  0.00    +0.060 A 
ATOM      9  C   LIG    1       -6.764  -1.167  -3.031  0.00  0.00    +0.030 A 
ATOM     10  C   LIG    1       -5.674  -0.444  -2.590  0.00  0.00    +0.040 A 
BRANCH   8  11
ATOM     11  O   LIG    1       -8.838  -1.253  -4.193  0.00  0.00    -0.250 OA
BRANCH  11  12
ATOM     12  C   LIG    1       -9.834  -1.511  -3.305  0.00  0.00    +0.140 A 
ATOM     13  C   LIG    1      -10.889  -2.337  -3.666  0.00  0.00    +0.000 A 
ATOM     14  C   LIG    1      -11.900  -2.599  -2.761  0.00  0.00    +0.070 A 
ATOM     15  C   LIG    1      -11.861  -2.040  -1.498  0.00  0.00    +0.000 A 
ATOM     16  C   LIG    1      -10.810  -1.215  -1.135  0.00  0.00    +0.000 A 
ATOM     17 CL   LIG    1      -10.765  -0.515   0.452  0.00  0.00    -0.060 Cl
ATOM     18  C   LIG    1       -9.794  -0.955  -2.035  0.00  0.00    -0.050 A 
ENDBRANCH  11  12
ENDBRANCH   8  11
ENDBRANCH   2   5
BRANCH   1  19
ATOM     19  C   LIG    1       -2.046   1.894  -2.023  0.00  0.00    +0.340 C 
BRANCH  19  23
ATOM     20  C   LIG    1        2.383   0.644  -3.026  0.00  0.00    +0.080 C 
ATOM     21  C   LIG    1        1.042  -0.063  -2.817  0.00  0.00    +0.010 C 
ATOM     22  C   LIG    1       -0.107   0.868  -3.140  0.00  0.00    +0.540 C 
ATOM     23  N   LIG    1       -0.853   1.044  -2.043  0.00  0.00    -0.560 N 
ATOM     24  C   LIG    1       -0.419   0.379  -0.965  0.00  0.00    +0.540 C 
ATOM     25  O   LIG    1       -0.943   0.396   0.128  0.00  0.00    -0.470 OA
ATOM     26  O   LIG    1       -0.317   1.375  -4.221  0.00  0.00    -0.470 OA
ATOM     27  C   LIG    1        0.832  -0.398  -1.327  0.00  0.00    +0.010 C 
ATOM     28  C   LIG    1        2.024   0.077  -0.494  0.00  0.00    +0.070 C 
ENDBRANCH  19  23
ENDBRANCH   1  19
TORSDOF 5
