REMARK  Name = ZINCrD00000eJ0TG.0
REMARK                            x       y       z     vdW  Elec       q    Type
REMARK                         _______ _______ _______ _____ _____    ______ ____
ROOT
ATOM      1  N   LIG    1        0.604  -0.491   1.246  0.00  0.00    -0.720 N 
ATOM      2  H   LIG    1        0.914   0.140   1.914  0.00  0.00    +0.400 HD
ATOM      3  C   LIG    1        0.729  -1.816   1.460  0.00  0.00    +0.530 C 
ATOM      4  O   LIG    1        0.342  -2.605   0.624  0.00  0.00    -0.520 OA
ENDROOT
BRANCH   1   5
ATOM      5  C   LIG    1        0.002  -0.004   0.002  0.00  0.00    +0.290 C 
BRANCH   5   7
ATOM      6  C   LIG    1        1.417   2.055  -0.000  0.00  0.00    +0.030 C 
ATOM      7  C   LIG    1       -0.019   1.526   0.010  0.00  0.00    -0.030 C 
BRANCH   7   8
ATOM      8  C   LIG    1       -0.759   2.033  -1.229  0.00  0.00    +0.280 C 
BRANCH   8   9
ATOM      9  N   LIG    1       -0.883   3.491  -1.161  0.00  0.00    -0.720 N 
ATOM     10  H   LIG    1       -0.518   3.974  -0.403  0.00  0.00    +0.410 HD
ATOM     11  C   LIG    1       -1.504   4.161  -2.152  0.00  0.00    +0.510 C 
ATOM     12  O   LIG    1       -1.960   3.557  -3.100  0.00  0.00    -0.510 OA
BRANCH  11  13
ATOM     13  C   LIG    1       -1.632   5.661  -2.083  0.00  0.00    +0.100 C 
ATOM     14  C   LIG    1       -2.616   6.083  -0.967  0.00  0.00    +0.080 C 
ATOM     15  C   LIG    1       -3.352   7.275  -1.536  0.00  0.00    -0.030 C 
ATOM     16  C   LIG    1       -3.200   7.348  -2.830  0.00  0.00    -0.010 C 
ATOM     17  F   LIG    1       -0.381   6.261  -1.902  0.00  0.00    -0.180 F 
ATOM     18  C   LIG    1       -2.338   6.217  -3.341  0.00  0.00    +0.090 C 
ENDBRANCH  11  13
ENDBRANCH   8   9
ENDBRANCH   7   8
ENDBRANCH   5   7
ENDBRANCH   1   5
BRANCH   3  19
ATOM     19  C   LIG    1        1.348  -2.317   2.740  0.00  0.00    +0.110 C 
BRANCH  19  20
ATOM     20  S   LIG    1        1.373  -4.127   2.730  0.00  0.00    +0.090 S 
BRANCH  20  21
ATOM     21  C   LIG    1        2.125  -4.431   4.294  0.00  0.00    +0.070 A 
ATOM     22  N   LIG    1        2.510  -3.515   5.117  0.00  0.00    -0.470 NA
ATOM     23  C   LIG    1        3.066  -3.907   6.280  0.00  0.00    +0.090 A 
ATOM     24  C   LIG    1        3.558  -3.111   7.335  0.00  0.00    +0.060 A 
ATOM     25  C   LIG    1        4.102  -3.695   8.452  0.00  0.00    +0.040 A 
ATOM     26  C   LIG    1        4.176  -5.075   8.561  0.00  0.00    +0.040 A 
ATOM     27  C   LIG    1        3.702  -5.873   7.543  0.00  0.00    +0.060 A 
ATOM     28  C   LIG    1        3.147  -5.298   6.403  0.00  0.00    -0.180 A 
ATOM     29  S   LIG    1        2.465  -6.026   4.951  0.00  0.00    +0.110 S 
ENDBRANCH  20  21
ENDBRANCH  19  20
ENDBRANCH   3  19
TORSDOF 8
