REMARK  Name = ZINCrD000000fCoy.0
REMARK                            x       y       z     vdW  Elec       q    Type
REMARK                         _______ _______ _______ _____ _____    ______ ____
ROOT
ATOM      1  N   LIG    1       -2.510   0.943  -0.001  0.00  0.00    -0.670 N 
ATOM      2  H   LIG    1       -3.365   1.396  -0.075  0.00  0.00    +0.410 HD
ATOM      3  C   LIG    1       -2.467  -0.400   0.108  0.00  0.00    +0.510 C 
ATOM      4  O   LIG    1       -1.408  -0.959   0.298  0.00  0.00    -0.490 OA
ENDROOT
BRANCH   1  12
ATOM      5  C   LIG    1        4.101   5.384   0.268  0.00  0.00    +0.110 C 
ATOM      6  C   LIG    1        2.667   4.928   0.348  0.00  0.00    +0.520 C 
ATOM      7  N   LIG    1        2.317   3.717  -0.131  0.00  0.00    -0.560 N 
ATOM      8  C   LIG    1        3.215   2.804  -0.843  0.00  0.00    +0.280 C 
ATOM      9  C   LIG    1        2.356   1.574  -1.177  0.00  0.00    +0.100 C 
ATOM     10  C   LIG    1        0.992   1.895  -0.610  0.00  0.00    -0.120 A 
ATOM     11  C   LIG    1       -0.181   1.166  -0.609  0.00  0.00    +0.060 A 
ATOM     12  C   LIG    1       -1.322   1.683  -0.009  0.00  0.00    +0.130 A 
ATOM     13  C   LIG    1       -1.279   2.940   0.579  0.00  0.00    +0.020 A 
ATOM     14  C   LIG    1       -0.108   3.666   0.577  0.00  0.00    +0.030 A 
ATOM     15  C   LIG    1        1.043   3.148  -0.021  0.00  0.00    +0.130 A 
ATOM     16  O   LIG    1        1.827   5.650   0.844  0.00  0.00    -0.520 OA
ENDBRANCH   1  12
BRANCH   3  17
ATOM     17  C   LIG    1       -3.735  -1.206  -0.005  0.00  0.00    +0.230 C 
BRANCH  17  18
ATOM     18  O   LIG    1       -3.432  -2.595   0.144  0.00  0.00    -0.350 OA
BRANCH  18  19
ATOM     19  C   LIG    1       -4.572  -3.452   0.053  0.00  0.00    +0.310 C 
BRANCH  19  20
ATOM     20  C   LIG    1       -4.137  -4.885   0.224  0.00  0.00    +0.080 A 
ATOM     21  N   LIG    1       -4.069  -5.487   1.350  0.00  0.00    -0.440 NA
ATOM     22  C   LIG    1       -3.667  -6.772   1.353  0.00  0.00    +0.080 A 
ATOM     23  C   LIG    1       -3.508  -7.663   2.433  0.00  0.00    +0.080 A 
ATOM     24  C   LIG    1       -3.079  -8.938   2.219  0.00  0.00    +0.030 A 
ATOM     25  C   LIG    1       -2.792  -9.384   0.937  0.00  0.00    +0.040 A 
ATOM     26  C   LIG    1       -2.939  -8.536  -0.138  0.00  0.00    +0.060 A 
ATOM     27  C   LIG    1       -3.376  -7.229   0.063  0.00  0.00    -0.180 A 
ATOM     28  S   LIG    1       -3.668  -5.905  -1.061  0.00  0.00    +0.130 S 
ENDBRANCH  19  20
ENDBRANCH  18  19
ENDBRANCH  17  18
ENDBRANCH   3  17
TORSDOF 5
