REMARK  Name = ZINCtV00000L6jT3.0
REMARK                            x       y       z     vdW  Elec       q    Type
REMARK                         _______ _______ _______ _____ _____    ______ ____
ROOT
ATOM      1  C   LIG    1       -0.357   3.845   0.018  0.00  0.00    -0.100 A 
ATOM      2  C   LIG    1        0.821   3.143   0.179  0.00  0.00    +0.120 A 
ATOM      3  C   LIG    1        0.809   1.759   0.171  0.00  0.00    -0.120 A 
ATOM      4  C   LIG    1       -0.383   1.077   0.005  0.00  0.00    +0.100 A 
ATOM      5  C   LIG    1       -1.564   1.776  -0.160  0.00  0.00    -0.200 A 
ATOM      6  C   LIG    1       -2.858   1.023  -0.340  0.00  0.00    +0.300 C 
ATOM      7  O   LIG    1       -3.853   1.910  -0.859  0.00  0.00    -0.370 OA
ATOM      8  C   LIG    1       -3.931   3.147  -0.140  0.00  0.00    +0.390 C 
ATOM      9  O   LIG    1       -2.709   3.862  -0.316  0.00  0.00    -0.310 OA
ATOM     10 BR   LIG    1        2.424   0.799   0.389  0.00  0.00    -0.040 Br
ATOM     11  C   LIG    1       -1.554   3.162  -0.150  0.00  0.00    +0.170 A 
ENDROOT
BRANCH   8  12
ATOM     12  C   LIG    1       -5.082   3.966  -0.666  0.00  0.00    -0.100 A 
ATOM     13  C   LIG    1       -4.850   5.219  -1.201  0.00  0.00    +0.050 A 
ATOM     14  C   LIG    1       -5.904   5.968  -1.688  0.00  0.00    +0.010 A 
ATOM     15  C   LIG    1       -7.192   5.469  -1.630  0.00  0.00    +0.020 A 
ATOM     16  C   LIG    1       -7.425   4.218  -1.090  0.00  0.00    +0.010 A 
ATOM     17  C   LIG    1       -6.369   3.466  -0.608  0.00  0.00    +0.040 A 
ENDBRANCH   8  12
BRANCH   1  18
ATOM     18  C   LIG    1       -0.343   5.352   0.026  0.00  0.00    +0.140 C 
BRANCH  18  19
ATOM     19  S   LIG    1       -0.103   5.963  -1.664  0.00  0.00    -0.090 S 
BRANCH  19  23
ATOM     20  C   LIG    1       -0.133  10.463  -1.135  0.00  0.00    +0.140 A 
ATOM     21  C   LIG    1        0.037   9.915  -2.399  0.00  0.00    +0.000 A 
ATOM     22  C   LIG    1        0.046   8.544  -2.561  0.00  0.00    +0.050 A 
ATOM     23  C   LIG    1       -0.115   7.713  -1.458  0.00  0.00    -0.100 A 
ATOM     24  C   LIG    1       -0.290   8.263  -0.194  0.00  0.00    +0.020 A 
ATOM     25  C   LIG    1       -0.293   9.634  -0.033  0.00  0.00    +0.040 A 
BRANCH  20  28
ATOM     26  C   LIG    1        0.237  13.890   0.384  0.00  0.00    +0.110 C 
ATOM     27  C   LIG    1        0.354  12.405   0.155  0.00  0.00    +0.510 C 
ATOM     28  N   LIG    1       -0.142  11.855  -0.971  0.00  0.00    -0.680 N 
ATOM     29  H   LIG    1       -0.506  12.423  -1.668  0.00  0.00    +0.410 HD
ATOM     30  O   LIG    1        0.895  11.704   0.984  0.00  0.00    -0.520 OA
ENDBRANCH  20  28
ENDBRANCH  19  23
ENDBRANCH  18  19
ENDBRANCH   1  18
TORSDOF 5
