REMARK  Name = ZINCrg000000tOUu.1
REMARK                            x       y       z     vdW  Elec       q    Type
REMARK                         _______ _______ _______ _____ _____    ______ ____
ROOT
ATOM      1  O   LIG    1        0.780   2.783  -1.554  0.00  0.00    -0.470 OA
ATOM      2  C   LIG    1       -0.105   3.613  -1.484  0.00  0.00    +0.600 C 
ATOM      3  N   LIG    1       -1.228   3.342  -0.790  0.00  0.00    -0.590 N 
ATOM      4  C   LIG    1       -2.368   4.272  -0.806  0.00  0.00    +0.250 C 
ATOM      5  C   LIG    1       -2.781   4.561   0.641  0.00  0.00    +0.220 C 
ATOM      6  N   LIG    1       -3.025   3.292   1.339  0.00  0.00    -0.680 NA
ATOM      7  H   LIG    1       -3.772   2.775   0.900  0.00  0.00    +0.340 HD
ATOM      8  C   LIG    1       -1.801   2.483   1.418  0.00  0.00    +0.230 C 
ATOM      9  C   LIG    1       -1.348   2.109   0.003  0.00  0.00    +0.240 C 
ENDROOT
BRANCH   2  10
ATOM     10  C   LIG    1        0.050   4.921  -2.162  0.00  0.00    +0.240 A 
ATOM     11  N   LIG    1        1.034   5.245  -2.980  0.00  0.00    -0.260 NA
ATOM     12  N   LIG    1        0.802   6.562  -3.395  0.00  0.00    -0.320 N 
ATOM     13  C   LIG    1        1.472   7.410  -4.225  0.00  0.00    +0.370 A 
ATOM     14  C   LIG    1        0.978   8.657  -4.429  0.00  0.00    -0.180 A 
ATOM     15  C   LIG    1       -0.206   9.040  -3.783  0.00  0.00    +0.420 A 
ATOM     16  N   LIG    1       -0.829   8.202  -2.989  0.00  0.00    -0.450 NA
ATOM     17  C   LIG    1       -0.351   6.968  -2.780  0.00  0.00    +0.440 A 
ATOM     18  N   LIG    1       -0.786   5.954  -2.046  0.00  0.00    -0.500 NA
BRANCH  14  19
ATOM     19  C   LIG    1        1.694   9.620  -5.341  0.00  0.00    +0.120 C 
BRANCH  19  20
ATOM     20  C   LIG    1        1.082   9.546  -6.742  0.00  0.00    +0.180 C 
BRANCH  20  21
ATOM     21  O   LIG    1        1.761  10.459  -7.606  0.00  0.00    -0.570 OA
ATOM     22  H   LIG    1        1.425  10.465  -8.513  0.00  0.00    +0.390 HD
ENDBRANCH  20  21
ENDBRANCH  19  20
ENDBRANCH  14  19
ENDBRANCH   2  10
BRANCH   9  23
ATOM     23  C   LIG    1       -0.011   1.417   0.066  0.00  0.00    -0.060 A 
ATOM     24  C   LIG    1        1.096   2.093   0.545  0.00  0.00    +0.050 A 
ATOM     25  C   LIG    1        2.324   1.460   0.598  0.00  0.00    +0.020 A 
ATOM     26  C   LIG    1        2.446   0.151   0.171  0.00  0.00    +0.030 A 
ATOM     27  C   LIG    1        1.339  -0.526  -0.309  0.00  0.00    -0.030 A 
ATOM     28 CL   LIG    1        1.491  -2.170  -0.845  0.00  0.00    -0.080 Cl
ATOM     29  C   LIG    1        0.110   0.108  -0.361  0.00  0.00    +0.030 A 
ENDBRANCH   9  23
TORSDOF 5
