REMARK  Name = ZINCrH00000No4GG.0
REMARK                            x       y       z     vdW  Elec       q    Type
REMARK                         _______ _______ _______ _____ _____    ______ ____
ROOT
ATOM      1  C   LIG    1        1.251   1.827   0.009  0.00  0.00    -0.120 A 
ATOM      2  C   LIG    1        1.235   3.227   0.017  0.00  0.00    +0.070 A 
ATOM      3  C   LIG    1        2.421   3.926   0.020  0.00  0.00    -0.080 A 
ATOM      4  C   LIG    1        3.632   3.244   0.004  0.00  0.00    +0.150 A 
ATOM      5  C   LIG    1        3.653   1.855  -0.009  0.00  0.00    -0.010 A 
ATOM      6  C   LIG    1        2.473   1.146  -0.007  0.00  0.00    +0.090 A 
ENDROOT
BRANCH   1   8
ATOM      7  C   LIG    1       -1.190   1.734   0.022  0.00  0.00    -0.100 C 
ATOM      8  C   LIG    1       -0.013   1.075   0.012  0.00  0.00    +0.140 C 
BRANCH   7  15
ATOM      9  C   LIG    1       -3.495   3.603   1.592  0.00  0.00    +0.140 C 
ATOM     10  C   LIG    1       -3.613   3.091   0.141  0.00  0.00    +0.250 C 
ATOM     11  N   LIG    1       -3.621   1.640   0.130  0.00  0.00    -0.610 N 
ATOM     12  C   LIG    1       -4.863   0.853   0.241  0.00  0.00    +0.270 C 
ATOM     13  C   LIG    1       -5.809   1.461   1.288  0.00  0.00    -0.000 C 
ATOM     14  C   LIG    1       -5.006   1.936   2.482  0.00  0.00    +0.220 C 
ATOM     15  C   LIG    1       -2.447   0.986   0.019  0.00  0.00    +0.550 C 
ATOM     16  O   LIG    1       -2.433  -0.227  -0.084  0.00  0.00    -0.540 OA
ATOM     17  O   LIG    1       -4.651   3.297   2.282  0.00  0.00    -0.380 OA
BRANCH   9  19
ATOM     18  C   LIG    1       -3.049   5.607   3.015  0.00  0.00    +0.020 C 
ATOM     19  C   LIG    1       -3.291   5.119   1.585  0.00  0.00    +0.040 C 
ENDBRANCH   9  19
ENDBRANCH   7  15
ENDBRANCH   1   8
BRANCH   4  20
ATOM     20  O   LIG    1        4.799   3.939   0.001  0.00  0.00    -0.310 OA
BRANCH  20  21
ATOM     21  C   LIG    1        4.705   5.365   0.015  0.00  0.00    +0.270 C 
BRANCH  21  22
ATOM     22  C   LIG    1        6.090   5.959   0.009  0.00  0.00    -0.150 A 
ATOM     23  C   LIG    1        6.742   6.230   1.202  0.00  0.00    +0.090 A 
ATOM     24  C   LIG    1        8.018   6.771   1.148  0.00  0.00    -0.030 A 
ATOM     25  C   LIG    1        8.587   7.033  -0.084  0.00  0.00    +0.270 A 
ATOM     26  N   LIG    1        7.934   6.767  -1.199  0.00  0.00    -0.490 NA
ATOM     27  C   LIG    1        6.723   6.246  -1.186  0.00  0.00    +0.290 A 
ENDBRANCH  21  22
ENDBRANCH  20  21
ENDBRANCH   4  20
TORSDOF 6
