REMARK  Name = ZINCnE000005uhp0.0
REMARK                            x       y       z     vdW  Elec       q    Type
REMARK                         _______ _______ _______ _____ _____    ______ ____
ROOT
ATOM      1  C   LIG    1        3.609   5.842  -0.002  0.00  0.00    +0.370 A 
ATOM      2  N   LIG    1        2.433   5.257   0.007  0.00  0.00    -0.580 NA
ATOM      3  C   LIG    1        2.426   3.937  -0.001  0.00  0.00    +0.310 A 
ATOM      4  N   LIG    1        3.584   3.326  -0.010  0.00  0.00    -0.550 NA
ATOM      5  S   LIG    1        4.755   4.557  -0.019  0.00  0.00    +0.110 S 
ENDROOT
BRANCH   3   6
ATOM      6  C   LIG    1        1.153   3.174   0.008  0.00  0.00    -0.010 A 
ATOM      7  C   LIG    1        1.173   1.781   0.000  0.00  0.00    +0.080 A 
ATOM      8  C   LIG    1       -0.013   1.076   0.008  0.00  0.00    -0.030 A 
ATOM      9  C   LIG    1       -1.222   1.751   0.017  0.00  0.00    +0.100 A 
ATOM     10  C   LIG    1       -1.247   3.136   0.031  0.00  0.00    -0.020 A 
ATOM     11  F   LIG    1       -2.381   1.057   0.019  0.00  0.00    -0.150 F 
ATOM     12  C   LIG    1       -0.066   3.849   0.023  0.00  0.00    +0.100 A 
ENDBRANCH   3   6
BRANCH   1  15
ATOM     13  O   LIG    1        6.064   6.849  -0.019  0.00  0.00    -0.590 OA
ATOM     14  C   LIG    1        5.145   7.645  -0.006  0.00  0.00    +0.530 C 
ATOM     15  N   LIG    1        3.872   7.204   0.003  0.00  0.00    -0.610 NA
BRANCH  14  16
ATOM     16  C   LIG    1        5.424   9.092  -0.001  0.00  0.00    -0.000 A 
ATOM     17  C   LIG    1        6.652   9.679  -0.010  0.00  0.00    +0.200 A 
ATOM     18  O   LIG    1        6.451  11.007  -0.001  0.00  0.00    -0.210 OA
ATOM     19  C   LIG    1        5.130  11.231   0.013  0.00  0.00    +0.200 A 
ATOM     20  N   LIG    1        4.502  10.093   0.007  0.00  0.00    -0.420 NA
BRANCH  19  21
ATOM     21  C   LIG    1        4.475  12.588   0.027  0.00  0.00    +0.090 C 
ATOM     22  C   LIG    1        5.374  13.808  -0.182  0.00  0.00    +0.040 C 
ATOM     23  C   LIG    1        4.792  13.514   1.203  0.00  0.00    +0.050 C 
ENDBRANCH  19  21
ENDBRANCH  14  16
ENDBRANCH   1  15
TORSDOF 4
