REMARK  Name = ZINCpk00000xI3Iq.0
REMARK                            x       y       z     vdW  Elec       q    Type
REMARK                         _______ _______ _______ _____ _____    ______ ____
ROOT
ATOM      1  C   LIG    1        0.652  -0.570  -1.138  0.00  0.00    +0.160 C 
ATOM      2  C   LIG    1       -0.298  -1.340  -2.074  0.00  0.00    +0.270 C 
ATOM      3  N   LIG    1        0.774  -2.351  -2.165  0.00  0.00    -0.650 N 
ATOM      4  C   LIG    1        1.117  -3.283  -3.076  0.00  0.00    +0.540 C 
ATOM      5  O   LIG    1        2.078  -3.997  -2.880  0.00  0.00    -0.520 OA
ATOM      6  C   LIG    1        1.318  -1.930  -0.860  0.00  0.00    +0.300 C 
ENDROOT
BRANCH   1   7
ATOM      7  O   LIG    1        0.002  -0.004   0.002  0.00  0.00    -0.360 OA
BRANCH   7   8
ATOM      8  C   LIG    1       -0.017   1.425   0.010  0.00  0.00    +0.360 C 
BRANCH   8  13
ATOM      9  C   LIG    1       -1.060   2.989   4.651  0.00  0.00    +0.200 C 
ATOM     10  C   LIG    1       -1.177   2.573   3.208  0.00  0.00    +0.170 A 
ATOM     11  N   LIG    1       -2.269   2.535   2.504  0.00  0.00    -0.380 NA
ATOM     12  O   LIG    1       -2.029   2.163   1.375  0.00  0.00    +0.090 OA
ATOM     13  C   LIG    1       -0.723   1.911   1.250  0.00  0.00    +0.180 A 
ATOM     14  N   LIG    1       -0.171   2.172   2.410  0.00  0.00    -0.460 NA
ENDBRANCH   8  13
ENDBRANCH   7   8
ENDBRANCH   1   7
BRANCH   4  15
ATOM     15  C   LIG    1        0.308  -3.439  -4.337  0.00  0.00    +0.090 C 
BRANCH  15  16
ATOM     16  C   LIG    1        0.905  -4.558  -5.192  0.00  0.00    +0.270 C 
ATOM     17  O   LIG    1        2.207  -4.157  -5.700  0.00  0.00    -0.300 OA
ATOM     18  C   LIG    1        2.171  -4.153  -7.043  0.00  0.00    +0.520 C 
ATOM     19  C   LIG    1        0.834  -4.554  -7.517  0.00  0.00    -0.190 A 
ATOM     20  C   LIG    1        0.292  -4.704  -8.795  0.00  0.00    +0.110 A 
ATOM     21  C   LIG    1       -1.022  -5.101  -8.939  0.00  0.00    +0.020 A 
ATOM     22  C   LIG    1       -1.803  -5.351  -7.825  0.00  0.00    +0.060 A 
ATOM     23  C   LIG    1       -1.272  -5.205  -6.554  0.00  0.00    +0.040 A 
ATOM     24  O   LIG    1        3.105  -3.861  -7.762  0.00  0.00    -0.450 OA
ATOM     25  C   LIG    1        0.036  -4.809  -6.398  0.00  0.00    -0.100 A 
ENDBRANCH  15  16
ENDBRANCH   4  15
TORSDOF 5
