REMARK  Name = ZINCqH0000038NlH.0
REMARK                            x       y       z     vdW  Elec       q    Type
REMARK                         _______ _______ _______ _____ _____    ______ ____
ROOT
ATOM      1  C   LIG    1       -0.195   1.208  -2.358  0.00  0.00    +0.160 A 
ATOM      2  C   LIG    1        0.953   0.427  -2.426  0.00  0.00    -0.080 A 
ATOM      3  C   LIG    1        1.470   0.064  -3.649  0.00  0.00    +0.090 A 
ATOM      4  C   LIG    1        0.845   0.492  -4.824  0.00  0.00    -0.180 A 
ATOM      5  C   LIG    1       -0.305   1.282  -4.751  0.00  0.00    +0.130 A 
ATOM      6  C   LIG    1       -0.819   1.635  -3.524  0.00  0.00    -0.020 A 
ENDROOT
BRANCH   4   7
ATOM      7  C   LIG    1        1.399   0.111  -6.138  0.00  0.00    +0.570 C 
ATOM      8  N   LIG    1        2.509  -0.651  -6.206  0.00  0.00    -0.730 N 
ATOM      9  H   LIG    1        2.944  -0.949  -5.391  0.00  0.00    +0.400 HD
ATOM     10  O   LIG    1        0.855   0.484  -7.159  0.00  0.00    -0.530 OA
BRANCH   8  11
ATOM     11  C   LIG    1        3.059  -1.030  -7.510  0.00  0.00    +0.290 C 
ATOM     12  C   LIG    1        2.345  -2.283  -8.020  0.00  0.00    +0.040 C 
BRANCH  11  13
ATOM     13  C   LIG    1        4.532  -1.313  -7.371  0.00  0.00    -0.150 A 
ATOM     14  C   LIG    1        5.422  -0.902  -8.351  0.00  0.00    +0.080 A 
ATOM     15  C   LIG    1        6.770  -1.179  -8.178  0.00  0.00    -0.030 A 
ATOM     16  C   LIG    1        7.177  -1.861  -7.048  0.00  0.00    +0.260 A 
ATOM     17  N   LIG    1        6.302  -2.242  -6.137  0.00  0.00    -0.480 NA
ATOM     18  C   LIG    1        5.014  -1.990  -6.266  0.00  0.00    +0.250 A 
ENDBRANCH  11  13
ENDBRANCH   8  11
ENDBRANCH   4   7
BRANCH   1  19
ATOM     19  O   LIG    1       -0.704   1.559  -1.150  0.00  0.00    -0.300 OA
BRANCH  19  20
ATOM     20  C   LIG    1       -0.013   1.086   0.008  0.00  0.00    +0.300 C 
BRANCH  20  27
ATOM     21  C   LIG    1        0.523   3.836   1.645  0.00  0.00    +0.160 C 
ATOM     22  C   LIG    1       -0.491   2.768   1.967  0.00  0.00    +0.040 A 
ATOM     23  N   LIG    1       -1.332   2.765   2.960  0.00  0.00    -0.360 NA
ATOM     24  O   LIG    1       -2.017   1.769   2.961  0.00  0.00    +0.100 OA
ATOM     25  C   LIG    1       -1.713   0.961   1.935  0.00  0.00    +0.010 A 
ATOM     26  C   LIG    1       -2.352  -0.365   1.611  0.00  0.00    +0.190 C 
ATOM     27  C   LIG    1       -0.718   1.572   1.248  0.00  0.00    -0.220 A 
ENDBRANCH  20  27
ENDBRANCH  19  20
ENDBRANCH   1  19
TORSDOF 6
