REMARK  Name = ZINCkj000005fhMN.0
REMARK                            x       y       z     vdW  Elec       q    Type
REMARK                         _______ _______ _______ _____ _____    ______ ____
ROOT
ATOM      1  S   LIG    1       -5.419   0.750  -1.335  0.00  0.00    +2.740 S 
ATOM      2  O   LIG    1       -6.276   0.020  -0.468  0.00  0.00    -0.950 OA
ATOM      3  O   LIG    1       -5.545   0.731  -2.750  0.00  0.00    -0.950 OA
ENDROOT
BRANCH   1   6
ATOM      4  C   LIG    1       -1.643   0.270  -0.662  0.00  0.00    +0.230 A 
ATOM      5  N   LIG    1       -2.682   0.996  -0.970  0.00  0.00    -0.430 NA
ATOM      6  C   LIG    1       -3.777   0.221  -0.974  0.00  0.00    -0.560 A 
ATOM      7  C   LIG    1       -3.403  -1.030  -0.647  0.00  0.00    +0.280 A 
ATOM      8  N   LIG    1       -2.049  -1.000  -0.449  0.00  0.00    -0.550 N 
ATOM      9  H   LIG    1       -1.486  -1.751  -0.203  0.00  0.00    +0.430 HD
BRANCH   4  11
ATOM     10  C   LIG    1        0.504   0.521  -1.877  0.00  0.00    +0.040 C 
ATOM     11  C   LIG    1       -0.224   0.768  -0.554  0.00  0.00    +0.100 C 
ATOM     12  C   LIG    1        0.494   0.022   0.571  0.00  0.00    +0.040 C 
ENDBRANCH   4  11
ENDBRANCH   1   6
BRANCH   1  13
ATOM     13  N   LIG    1       -5.534   2.338  -0.877  0.00  0.00    -1.110 NA
ATOM     14  H   LIG    1       -6.129   2.592  -0.154  0.00  0.00    +0.420 HD
BRANCH  13  15
ATOM     15  C   LIG    1       -4.737   3.358  -1.563  0.00  0.00    +0.310 C 
BRANCH  15  16
ATOM     16  C   LIG    1       -5.286   4.746  -1.226  0.00  0.00    -0.090 C 
ATOM     17  C   LIG    1       -5.210   4.971   0.285  0.00  0.00    +0.050 C 
ATOM     18  C   LIG    1       -6.743   4.843  -1.684  0.00  0.00    +0.050 C 
BRANCH  16  19
ATOM     19  C   LIG    1       -4.454   5.811  -1.943  0.00  0.00    +0.280 C 
BRANCH  19  20
ATOM     20  N   LIG    1       -4.866   7.144  -1.485  0.00  0.00    -0.390 N 
ATOM     21  C   LIG    1       -6.203   7.451  -2.012  0.00  0.00    +0.320 C 
ATOM     22  C   LIG    1       -3.908   8.147  -1.970  0.00  0.00    +0.310 C 
ATOM     23  H   LIG    1       -4.890   7.162  -0.477  0.00  0.00    +0.420 HD
ENDBRANCH  19  20
ENDBRANCH  16  19
ENDBRANCH  15  16
ENDBRANCH  13  15
ENDBRANCH   1  13
TORSDOF 7
