REMARK  Name = ZINCqH0000003c2h.0
REMARK                            x       y       z     vdW  Elec       q    Type
REMARK                         _______ _______ _______ _____ _____    ______ ____
ROOT
ATOM      1  C   LIG    1        1.343   9.306   0.163  0.00  0.00    +0.250 C 
ATOM      2  C   LIG    1        1.250   9.967  -1.214  0.00  0.00    +0.080 C 
ENDROOT
BRANCH   1   9
ATOM      3  N   LIG    1        1.528  13.768   4.374  0.00  0.00    -0.750 N 
ATOM      4  H   LIG    1        1.577  14.189   3.502  0.00  0.00    +0.390 HD
ATOM      5  C   LIG    1        0.981  12.543   4.502  0.00  0.00    +0.710 C 
ATOM      6  N   LIG    1        0.593  11.861   3.407  0.00  0.00    -0.630 N 
ATOM      7  C   LIG    1        0.095  10.481   3.514  0.00  0.00    +0.320 C 
ATOM      8  C   LIG    1        0.863   9.607   2.517  0.00  0.00    +0.160 C 
ATOM      9  N   LIG    1        0.767  10.200   1.176  0.00  0.00    -0.520 NA
ATOM     10  C   LIG    1        1.402  11.524   1.132  0.00  0.00    +0.180 C 
ATOM     11  C   LIG    1        0.656  12.476   2.072  0.00  0.00    +0.280 C 
ATOM     12  O   LIG    1        0.838  12.053   5.606  0.00  0.00    -0.590 OA
BRANCH   3  14
ATOM     13  C   LIG    1        2.610  15.825   5.136  0.00  0.00    +0.030 C 
ATOM     14  C   LIG    1        2.049  14.464   5.553  0.00  0.00    +0.270 C 
ENDBRANCH   3  14
ENDBRANCH   1   9
BRANCH   1  15
ATOM     15  C   LIG    1        0.580   8.006   0.147  0.00  0.00    +0.200 A 
ATOM     16  N   LIG    1       -0.718   7.891   0.131  0.00  0.00    -0.440 NA
ATOM     17  C   LIG    1       -1.039   6.588   0.115  0.00  0.00    +0.020 A 
ATOM     18  C   LIG    1        0.121   5.882   0.131  0.00  0.00    -0.020 A 
ATOM     19  C   LIG    1       -2.432   6.014   0.087  0.00  0.00    +0.160 C 
ATOM     20  O   LIG    1        1.127   6.783   0.148  0.00  0.00    -0.190 OA
BRANCH  18  21
ATOM     21  C   LIG    1        0.256   4.410   0.125  0.00  0.00    -0.010 A 
ATOM     22  C   LIG    1        1.180   3.795  -0.720  0.00  0.00    +0.060 A 
ATOM     23  C   LIG    1        1.302   2.421  -0.721  0.00  0.00    +0.030 A 
ATOM     24  C   LIG    1        0.509   1.652   0.114  0.00  0.00    -0.020 A 
ATOM     25  C   LIG    1       -0.414   2.256   0.951  0.00  0.00    +0.030 A 
ATOM     26 CL   LIG    1        0.667  -0.077   0.108  0.00  0.00    -0.060 Cl
ATOM     27  C   LIG    1       -0.541   3.630   0.965  0.00  0.00    +0.060 A 
ENDBRANCH  18  21
ENDBRANCH   1  15
TORSDOF 4
