REMARK  Name = ZINCpe00000GGfEK.0
REMARK                            x       y       z     vdW  Elec       q    Type
REMARK                         _______ _______ _______ _____ _____    ______ ____
ROOT
ATOM      1  C   LIG    1        4.126   5.314  -0.900  0.00  0.00    +0.550 C 
ATOM      2  N   LIG    1        4.512   6.195  -1.844  0.00  0.00    -0.700 N 
ATOM      3  H   LIG    1        3.911   6.422  -2.571  0.00  0.00    +0.410 HD
ATOM      4  O   LIG    1        4.881   5.029   0.011  0.00  0.00    -0.530 OA
ENDROOT
BRANCH   1   7
ATOM      5  C   LIG    1        3.199   3.755   1.281  0.00  0.00    +0.110 C 
ATOM      6  C   LIG    1        2.369   3.908   0.033  0.00  0.00    +0.020 C 
ATOM      7  C   LIG    1        2.799   4.700  -0.970  0.00  0.00    -0.090 C 
BRANCH   6   8
ATOM      8  C   LIG    1        1.088   3.192  -0.092  0.00  0.00    -0.040 A 
ATOM      9  C   LIG    1        1.066   1.795  -0.139  0.00  0.00    +0.020 A 
ATOM     10  C   LIG    1       -0.137   1.131  -0.257  0.00  0.00    +0.050 A 
ATOM     11  C   LIG    1       -1.320   1.842  -0.334  0.00  0.00    -0.010 A 
ATOM     12  C   LIG    1       -1.308   3.228  -0.284  0.00  0.00    +0.100 A 
ATOM     13  F   LIG    1       -2.469   3.915  -0.355  0.00  0.00    -0.140 F 
ATOM     14  C   LIG    1       -0.112   3.907  -0.166  0.00  0.00    +0.000 A 
ENDBRANCH   6   8
ENDBRANCH   1   7
BRANCH   2  15
ATOM     15  C   LIG    1        5.840   6.809  -1.774  0.00  0.00    +0.220 C 
ATOM     16  C   LIG    1        6.643   6.907  -3.073  0.00  0.00    +0.030 C 
ATOM     17  C   LIG    1        6.029   8.165  -2.457  0.00  0.00    +0.210 C 
BRANCH  17  18
ATOM     18  N   LIG    1        6.939   9.121  -1.822  0.00  0.00    -0.700 N 
ATOM     19  H   LIG    1        7.652   8.803  -1.246  0.00  0.00    +0.410 HD
ATOM     20  C   LIG    1        6.787  10.443  -2.039  0.00  0.00    +0.510 C 
ATOM     21  O   LIG    1        5.896  10.840  -2.759  0.00  0.00    -0.510 OA
BRANCH  20  22
ATOM     22  C   LIG    1        7.724  11.426  -1.386  0.00  0.00    +0.410 C 
BRANCH  22  23
ATOM     23  N   LIG    1        7.352  12.788  -1.776  0.00  0.00    -0.150 N 
ATOM     24  N   LIG    1        7.818  13.407  -2.803  0.00  0.00    -0.280 NA
ATOM     25  C   LIG    1        7.272  14.601  -2.859  0.00  0.00    +0.180 A 
ATOM     26  C   LIG    1        6.418  14.683  -1.757  0.00  0.00    +0.180 A 
ATOM     27  N   LIG    1        6.519  13.530  -1.136  0.00  0.00    -0.280 NA
ENDBRANCH  22  23
ENDBRANCH  20  22
ENDBRANCH  17  18
ENDBRANCH   2  15
TORSDOF 6
