REMARK  Name = ZINCrD000000BHNn.0
REMARK                            x       y       z     vdW  Elec       q    Type
REMARK                         _______ _______ _______ _____ _____    ______ ____
ROOT
ATOM      1  O   LIG    1       -2.166  -0.098   1.115  0.00  0.00    -0.510 OA
ATOM      2  C   LIG    1       -1.803   0.928   1.657  0.00  0.00    +0.610 C 
ATOM      3  N   LIG    1       -0.736   1.600   1.181  0.00  0.00    -0.710 N 
ATOM      4  H   LIG    1       -0.446   2.419   1.614  0.00  0.00    +0.410 HD
ENDROOT
BRANCH   3   5
ATOM      5  C   LIG    1       -0.013   1.094   0.012  0.00  0.00    +0.260 C 
ATOM      6  C   LIG    1        1.434   1.639  -0.007  0.00  0.00    +0.070 C 
ATOM      7  C   LIG    1        1.671   1.850  -1.519  0.00  0.00    +0.280 C 
ATOM      8  N   LIG    1        0.338   2.048  -2.100  0.00  0.00    -0.560 N 
ATOM      9  C   LIG    1       -0.627   1.627  -1.264  0.00  0.00    +0.510 C 
ATOM     10  O   LIG    1       -1.816   1.667  -1.499  0.00  0.00    -0.480 OA
BRANCH   8  11
ATOM     11  C   LIG    1        0.101   2.603  -3.363  0.00  0.00    +0.200 A 
ATOM     12  C   LIG    1       -1.188   2.635  -3.878  0.00  0.00    +0.010 A 
ATOM     13  C   LIG    1       -1.421   3.188  -5.123  0.00  0.00    +0.100 A 
ATOM     14  C   LIG    1       -0.369   3.701  -5.861  0.00  0.00    -0.100 A 
ATOM     15  C   LIG    1        0.920   3.666  -5.352  0.00  0.00    +0.140 A 
ATOM     16  F   LIG    1        1.945   4.168  -6.075  0.00  0.00    -0.120 F 
ATOM     17 CL   LIG    1       -0.665   4.389  -7.427  0.00  0.00    -0.050 Cl
ATOM     18  C   LIG    1        1.156   3.118  -4.105  0.00  0.00    -0.040 A 
ENDBRANCH   8  11
ENDBRANCH   3   5
BRANCH   2  19
ATOM     19  C   LIG    1       -2.531   1.438   2.836  0.00  0.00    -0.020 A 
ATOM     20  N   LIG    1       -2.248   2.528   3.523  0.00  0.00    -0.260 NA
ATOM     21  N   LIG    1       -3.088   2.674   4.484  0.00  0.00    -0.270 N 
ATOM     22  C   LIG    1       -3.980   1.660   4.483  0.00  0.00    +0.160 A 
ATOM     23  C   LIG    1       -3.662   0.848   3.448  0.00  0.00    -0.010 A 
BRANCH  21  24
ATOM     24  C   LIG    1       -3.075   3.778   5.447  0.00  0.00    +0.250 C 
ATOM     25  C   LIG    1       -3.587   3.290   6.817  0.00  0.00    +0.020 C 
ATOM     26  C   LIG    1       -4.404   4.486   7.366  0.00  0.00    +0.040 C 
ATOM     27  C   LIG    1       -5.099   5.036   6.096  0.00  0.00    +0.020 C 
ATOM     28  C   LIG    1       -4.036   4.888   4.988  0.00  0.00    +0.020 C 
ENDBRANCH  21  24
ENDBRANCH   2  19
TORSDOF 4
