REMARK  Name = ZINCqH0000005e0X.0
REMARK                            x       y       z     vdW  Elec       q    Type
REMARK                         _______ _______ _______ _____ _____    ______ ____
ROOT
ATOM      1  C   LIG    1       -3.636  -0.600  -0.115  0.00  0.00    -0.020 C 
ATOM      2  C   LIG    1       -3.738  -1.597   1.042  0.00  0.00    +0.020 C 
ATOM      3  C   LIG    1       -2.505  -2.506   1.032  0.00  0.00    +0.040 C 
ATOM      4  C   LIG    1       -1.244  -1.646   1.138  0.00  0.00    +0.200 C 
ATOM      5  N   LIG    1       -1.192  -0.709   0.009  0.00  0.00    -0.470 N 
ATOM      6  C   LIG    1       -2.342   0.205   0.025  0.00  0.00    +0.210 C 
ENDROOT
BRANCH   5   7
ATOM      7  C   LIG    1        0.002  -0.004   0.002  0.00  0.00    +0.290 A 
ATOM      8  N   LIG    1       -0.016   1.315   0.009  0.00  0.00    -0.480 NA
ATOM      9  C   LIG    1        1.139   1.993   0.002  0.00  0.00    +0.110 A 
ATOM     10  C   LIG    1        1.153   3.398   0.010  0.00  0.00    +0.040 A 
ATOM     11  C   LIG    1        2.342   4.061   0.002  0.00  0.00    +0.050 A 
ATOM     12  C   LIG    1        3.549   3.367  -0.012  0.00  0.00    +0.030 A 
ATOM     13  C   LIG    1        3.574   2.006  -0.020  0.00  0.00    +0.070 A 
ATOM     14  C   LIG    1        2.367   1.287  -0.013  0.00  0.00    +0.050 A 
ATOM     15  N   LIG    1        2.362  -0.052  -0.020  0.00  0.00    -0.410 NA
ATOM     16  C   LIG    1        1.224  -0.701  -0.013  0.00  0.00    +0.260 A 
ENDBRANCH   5   7
BRANCH   1  17
ATOM     17  C   LIG    1       -4.835   0.351  -0.076  0.00  0.00    +0.310 C 
BRANCH  17  19
ATOM     18  C   LIG    1       -4.092   2.512  -1.178  0.00  0.00    +0.290 C 
ATOM     19  N   LIG    1       -4.798   1.231  -1.247  0.00  0.00    -0.600 N 
ATOM     20  C   LIG    1       -5.414   0.861  -2.388  0.00  0.00    +0.650 C 
ATOM     21  O   LIG    1       -6.000  -0.202  -2.445  0.00  0.00    -0.560 OA
BRANCH  20  22
ATOM     22  O   LIG    1       -5.380   1.670  -3.463  0.00  0.00    -0.360 OA
BRANCH  22  23
ATOM     23  C   LIG    1       -6.065   1.207  -4.657  0.00  0.00    +0.140 C 
ATOM     24  C   LIG    1       -5.451  -0.116  -5.118  0.00  0.00    +0.040 C 
ATOM     25  C   LIG    1       -5.918   2.251  -5.766  0.00  0.00    +0.080 C 
ATOM     26  C   LIG    1       -7.549   0.999  -4.346  0.00  0.00    +0.040 C 
ENDBRANCH  22  23
ENDBRANCH  20  22
ENDBRANCH  17  19
ENDBRANCH   1  17
TORSDOF 5
