REMARK  Name = ZINCvU0000000Bpr.0
REMARK                            x       y       z     vdW  Elec       q    Type
REMARK                         _______ _______ _______ _____ _____    ______ ____
ROOT
ATOM      1  C   LIG    1        2.275   4.177   0.402  0.00  0.00    +0.570 C 
ATOM      2  N   LIG    1        1.179   3.498   0.009  0.00  0.00    -0.670 N 
ATOM      3  H   LIG    1        0.383   3.979  -0.267  0.00  0.00    +0.410 HD
ATOM      4  O   LIG    1        3.300   3.578   0.662  0.00  0.00    -0.510 OA
ENDROOT
BRANCH   2   5
ATOM      5  C   LIG    1        1.189   2.099   0.000  0.00  0.00    +0.100 A 
ATOM      6  C   LIG    1        1.823   1.413  -1.028  0.00  0.00    +0.150 A 
ATOM      7  C   LIG    1        1.831   0.030  -1.036  0.00  0.00    -0.030 A 
ATOM      8  C   LIG    1        1.209  -0.678  -0.020  0.00  0.00    +0.140 A 
ATOM      9  C   LIG    1        0.575  -0.007   1.009  0.00  0.00    +0.000 A 
ATOM     10  F   LIG    1        1.223  -2.029  -0.035  0.00  0.00    -0.120 F 
ATOM     11  F   LIG    1        2.432   2.097  -2.021  0.00  0.00    -0.120 F 
ATOM     12  C   LIG    1        0.560   1.386   1.026  0.00  0.00    +0.020 A 
BRANCH  12  13
ATOM     13  C   LIG    1       -0.124   2.110   2.125  0.00  0.00    -0.060 A 
ATOM     14  C   LIG    1        0.538   3.126   2.812  0.00  0.00    +0.030 A 
ATOM     15  C   LIG    1       -0.106   3.799   3.831  0.00  0.00    +0.010 A 
ATOM     16  C   LIG    1       -1.401   3.460   4.177  0.00  0.00    +0.020 A 
ATOM     17  C   LIG    1       -2.061   2.449   3.502  0.00  0.00    +0.010 A 
ATOM     18  C   LIG    1       -1.430   1.772   2.478  0.00  0.00    +0.030 A 
ENDBRANCH  12  13
ENDBRANCH   2   5
BRANCH   1  22
ATOM     19  C   LIG    1        2.146   8.410   0.727  0.00  0.00    -0.090 A 
ATOM     20  C   LIG    1        3.315   7.731   1.025  0.00  0.00    +0.020 A 
ATOM     21  C   LIG    1        3.363   6.357   0.921  0.00  0.00    +0.080 A 
ATOM     22  C   LIG    1        2.230   5.650   0.515  0.00  0.00    -0.130 A 
ATOM     23  C   LIG    1        1.056   6.341   0.211  0.00  0.00    +0.050 A 
ATOM     24  C   LIG    1        1.019   7.715   0.324  0.00  0.00    +0.030 A 
BRANCH  19  25
ATOM     25  C   LIG    1        2.101   9.912   0.842  0.00  0.00    +0.380 C 
BRANCH  25  32
ATOM     26  C   LIG    1        4.989  10.676   0.015  0.00  0.00    +0.140 C 
ATOM     27  C   LIG    1        3.740  10.849  -0.810  0.00  0.00    +0.090 A 
ATOM     28  C   LIG    1        3.673  11.367  -2.058  0.00  0.00    -0.120 A 
ATOM     29  C   LIG    1        2.333  11.355  -2.459  0.00  0.00    +0.080 A 
ATOM     30  N   LIG    1        1.621  10.842  -1.488  0.00  0.00    -0.290 NA
ATOM     31  C   LIG    1        1.801  11.847  -3.780  0.00  0.00    +0.160 C 
ATOM     32  N   LIG    1        2.487  10.512  -0.437  0.00  0.00    -0.370 N 
ENDBRANCH  25  32
ENDBRANCH  19  25
ENDBRANCH   1  22
TORSDOF 5
