REMARK  Name = ZINCpe00000zs66F.0
REMARK                            x       y       z     vdW  Elec       q    Type
REMARK                         _______ _______ _______ _____ _____    ______ ____
ROOT
ATOM      1  C   LIG    1       -4.896   1.785   0.032  0.00  0.00    +0.170 C 
ATOM      2  C   LIG    1       -5.214   0.950  -1.225  0.00  0.00    +0.040 C 
ATOM      3  C   LIG    1       -5.943   1.926  -2.168  0.00  0.00    +0.020 C 
ATOM      4  C   LIG    1       -6.798   2.778  -1.198  0.00  0.00    +0.030 C 
ATOM      5  C   LIG    1       -5.213   0.967   1.295  0.00  0.00    +0.270 C 
ATOM      6  N   LIG    1       -6.571   1.356   1.710  0.00  0.00    -0.600 N 
ATOM      7  C   LIG    1       -7.477   0.577   2.333  0.00  0.00    +0.590 C 
ATOM      8  O   LIG    1       -7.202  -0.575   2.607  0.00  0.00    -0.510 OA
ATOM      9  C   LIG    1       -6.747   2.762   1.310  0.00  0.00    +0.290 C 
ATOM     10  C   LIG    1       -5.901   2.961   0.042  0.00  0.00    -0.010 C 
ENDROOT
BRANCH   7  11
ATOM     11  C   LIG    1       -8.805   1.123   2.684  0.00  0.00    +0.050 A 
ATOM     12  N   LIG    1       -9.100   2.384   2.387  0.00  0.00    -0.440 NA
ATOM     13  C   LIG    1      -10.270   2.906   2.676  0.00  0.00    +0.260 A 
ATOM     14  C   LIG    1      -11.248   2.159   3.318  0.00  0.00    +0.020 A 
ATOM     15  C   LIG    1      -10.988   0.843   3.653  0.00  0.00    +0.040 A 
ATOM     16  C   LIG    1       -9.742   0.309   3.331  0.00  0.00    +0.120 A 
BRANCH  16  17
ATOM     17  O   LIG    1       -9.442  -0.977   3.640  0.00  0.00    -0.470 OA
ATOM     18  H   LIG    1       -9.041  -1.088   4.513  0.00  0.00    +0.400 HD
ENDBRANCH  16  17
ENDBRANCH   7  11
BRANCH   1  21
ATOM     19  O   LIG    1       -2.730   0.177   0.015  0.00  0.00    -0.520 OA
ATOM     20  C   LIG    1       -2.494   1.370   0.020  0.00  0.00    +0.580 C 
ATOM     21  N   LIG    1       -3.509   2.257   0.028  0.00  0.00    -0.710 N 
ATOM     22  H   LIG    1       -3.321   3.209   0.033  0.00  0.00    +0.400 HD
BRANCH  20  23
ATOM     23  C   LIG    1       -1.102   1.844   0.017  0.00  0.00    -0.230 C 
ATOM     24  C   LIG    1       -0.013   1.076   0.008  0.00  0.00    +0.070 C 
ATOM     25  C   LIG    1        1.199   1.981   0.001  0.00  0.00    +0.260 C 
ATOM     26  O   LIG    1        0.726   3.272   0.429  0.00  0.00    -0.360 OA
ATOM     27  C   LIG    1       -0.656   3.289   0.026  0.00  0.00    +0.250 C 
ENDBRANCH  20  23
ENDBRANCH   1  21
TORSDOF 4
