REMARK  Name = ZINCrH000004lm3C.0
REMARK                            x       y       z     vdW  Elec       q    Type
REMARK                         _______ _______ _______ _____ _____    ______ ____
ROOT
ATOM      1  C   LIG    1       -0.010   0.017  -0.158  0.00  0.00    -0.170 A 
ATOM      2  C   LIG    1        1.193  -0.657  -0.397  0.00  0.00    +0.120 A 
ATOM      3  C   LIG    1        1.177  -2.040  -0.423  0.00  0.00    -0.050 A 
ATOM      4  C   LIG    1       -0.014  -2.713  -0.215  0.00  0.00    +0.300 A 
ATOM      5  N   LIG    1       -1.137  -2.060   0.009  0.00  0.00    -0.480 NA
ATOM      6  C   LIG    1       -1.179  -0.736   0.050  0.00  0.00    +0.150 A 
ENDROOT
BRANCH   1  11
ATOM      7  C   LIG    1        2.351   3.963   1.325  0.00  0.00    +0.160 C 
ATOM      8  C   LIG    1        2.732   2.618   1.998  0.00  0.00    +0.050 C 
ATOM      9  C   LIG    1        2.216   1.593   0.958  0.00  0.00    +0.260 C 
ATOM     10  N   LIG    1        0.967   2.177   0.438  0.00  0.00    -0.610 N 
ATOM     11  C   LIG    1       -0.050   1.490  -0.119  0.00  0.00    +0.580 C 
ATOM     12  O   LIG    1       -0.997   2.086  -0.595  0.00  0.00    -0.510 OA
ATOM     13  C   LIG    1        1.016   3.635   0.624  0.00  0.00    +0.240 C 
BRANCH   7  14
ATOM     14  O   LIG    1        2.172   4.987   2.306  0.00  0.00    -0.360 OA
BRANCH  14  15
ATOM     15  C   LIG    1        2.488   6.300   1.840  0.00  0.00    +0.190 C 
BRANCH  15  16
ATOM     16  C   LIG    1        2.261   7.309   2.967  0.00  0.00    +0.190 C 
BRANCH  16  18
ATOM     17  C   LIG    1        3.054   7.945   5.138  0.00  0.00    +0.200 C 
ATOM     18  O   LIG    1        3.183   7.053   4.029  0.00  0.00    -0.390 OA
ENDBRANCH  16  18
ENDBRANCH  15  16
ENDBRANCH  14  15
ENDBRANCH   7  14
ENDBRANCH   1  11
BRANCH   6  19
ATOM     19  S   LIG    1       -2.707   0.084   0.359  0.00  0.00    +0.100 S 
BRANCH  19  20
ATOM     20  C   LIG    1       -3.741  -1.306   0.678  0.00  0.00    -0.160 A 
ATOM     21  C   LIG    1       -4.119  -1.609   1.980  0.00  0.00    +0.070 A 
ATOM     22  C   LIG    1       -4.929  -2.700   2.226  0.00  0.00    -0.010 A 
ATOM     23  C   LIG    1       -5.365  -3.490   1.179  0.00  0.00    -0.050 A 
ATOM     24  C   LIG    1       -4.992  -3.191  -0.119  0.00  0.00    -0.010 A 
ATOM     25  C   LIG    1       -6.249  -4.680   1.451  0.00  0.00    +0.090 C 
ATOM     26  C   LIG    1       -4.186  -2.099  -0.373  0.00  0.00    -0.010 A 
ATOM     27  C   LIG    1       -3.784  -1.771  -1.788  0.00  0.00    +0.090 C 
ENDBRANCH  19  20
ENDBRANCH   6  19
TORSDOF 7
