REMARK  Name = ZINCqH00000330E6.0
REMARK                            x       y       z     vdW  Elec       q    Type
REMARK                         _______ _______ _______ _____ _____    ______ ____
ROOT
ATOM      1  N   LIG    1        2.514   3.638  -0.106  0.00  0.00    -0.490 N 
ATOM      2  C   LIG    1        2.518   5.077  -0.393  0.00  0.00    +0.210 C 
ATOM      3  C   LIG    1        1.474   5.749   0.507  0.00  0.00    +0.210 C 
ATOM      4  N   LIG    1        0.144   5.285   0.096  0.00  0.00    -0.480 N 
ATOM      5  C   LIG    1        0.083   3.892  -0.013  0.00  0.00    +0.110 A 
ATOM      6  C   LIG    1       -1.174   3.293  -0.017  0.00  0.00    -0.030 A 
ATOM      7  C   LIG    1       -1.294   1.921  -0.135  0.00  0.00    +0.100 A 
ATOM      8  C   LIG    1       -0.161   1.134  -0.239  0.00  0.00    -0.010 A 
ATOM      9  C   LIG    1        1.090   1.720  -0.234  0.00  0.00    +0.040 A 
ATOM     10  F   LIG    1       -2.518   1.348  -0.143  0.00  0.00    -0.140 F 
ATOM     11  C   LIG    1        1.221   3.101  -0.119  0.00  0.00    +0.070 A 
ENDROOT
BRANCH   1  12
ATOM     12  C   LIG    1        3.394   2.914  -1.033  0.00  0.00    +0.190 C 
BRANCH  12  14
ATOM     13  C   LIG    1        5.684   2.834  -2.028  0.00  0.00    +0.030 C 
ATOM     14  C   LIG    1        4.768   3.588  -1.063  0.00  0.00    +0.010 C 
ENDBRANCH  12  14
ENDBRANCH   1  12
BRANCH   4  15
ATOM     15  C   LIG    1       -0.894   5.789   1.005  0.00  0.00    +0.260 C 
BRANCH  15  16
ATOM     16  C   LIG    1       -0.734   7.277   1.176  0.00  0.00    -0.100 A 
ATOM     17  C   LIG    1        0.064   7.774   2.192  0.00  0.00    +0.040 A 
ATOM     18  C   LIG    1        0.220   9.139   2.352  0.00  0.00    +0.000 A 
ATOM     19  C   LIG    1       -0.427  10.015   1.506  0.00  0.00    +0.050 A 
ATOM     20  C   LIG    1       -1.238   9.521   0.482  0.00  0.00    -0.130 A 
ATOM     21  C   LIG    1       -1.387   8.143   0.322  0.00  0.00    +0.090 A 
BRANCH  20  22
ATOM     22  C   LIG    1       -1.934  10.454  -0.429  0.00  0.00    +0.560 C 
ATOM     23  N   LIG    1       -2.316  11.668   0.013  0.00  0.00    -0.620 N 
ATOM     24  C   LIG    1       -2.145  12.021   1.424  0.00  0.00    +0.280 C 
ATOM     25  C   LIG    1       -2.901  12.636  -0.919  0.00  0.00    +0.290 C 
ATOM     26  O   LIG    1       -2.163  10.125  -1.577  0.00  0.00    -0.530 OA
ENDBRANCH  20  22
ENDBRANCH  15  16
ENDBRANCH   4  15
TORSDOF 5
