REMARK  Name = ZINCrg00000SjSy6.0
REMARK                            x       y       z     vdW  Elec       q    Type
REMARK                         _______ _______ _______ _____ _____    ______ ____
ROOT
ATOM      1  C   LIG    1        4.392   2.024  -0.861  0.00  0.00    +0.050 C 
ATOM      2  C   LIG    1        3.571   1.907   0.425  0.00  0.00    +0.250 C 
ATOM      3  C   LIG    1        4.307   1.011   1.434  0.00  0.00    +0.150 C 
ATOM      4  O   LIG    1        4.339  -0.329   0.935  0.00  0.00    -0.350 OA
ATOM      5  C   LIG    1        3.049  -0.925   0.778  0.00  0.00    +0.240 C 
ATOM      6  C   LIG    1        2.248  -0.129  -0.259  0.00  0.00    +0.250 C 
ATOM      7  N   LIG    1        2.269   1.291   0.129  0.00  0.00    -0.630 N 
ATOM      8  C   LIG    1        1.129   2.006   0.204  0.00  0.00    +0.710 C 
ATOM      9  N   LIG    1       -0.060   1.400   0.021  0.00  0.00    -0.740 N 
ATOM     10  H   LIG    1       -0.094   0.466  -0.238  0.00  0.00    +0.400 HD
ATOM     11  O   LIG    1        1.174   3.199   0.437  0.00  0.00    -0.570 OA
ENDROOT
BRANCH   3  12
ATOM     12  C   LIG    1        5.738   1.520   1.619  0.00  0.00    +0.470 C 
ATOM     13  F   LIG    1        6.367   0.785   2.630  0.00  0.00    -0.170 F 
ATOM     14  F   LIG    1        5.709   2.873   1.976  0.00  0.00    -0.170 F 
ATOM     15  F   LIG    1        6.446   1.369   0.422  0.00  0.00    -0.170 F 
ENDBRANCH   3  12
BRANCH   9  16
ATOM     16  C   LIG    1       -1.303   2.153   0.206  0.00  0.00    +0.290 C 
BRANCH  16  17
ATOM     17  C   LIG    1       -2.499   1.240  -0.068  0.00  0.00    +0.000 C 
ATOM     18  C   LIG    1       -2.576   0.130   1.004  0.00  0.00    +0.040 C 
ATOM     19  C   LIG    1       -4.095  -0.054   1.253  0.00  0.00    +0.040 C 
ATOM     20  C   LIG    1       -4.638   1.396   1.161  0.00  0.00    +0.060 C 
ATOM     21  C   LIG    1       -3.803   2.034   0.043  0.00  0.00    +0.120 C 
ATOM     22  N   LIG    1       -4.535   2.039  -1.226  0.00  0.00    -0.720 N 
ATOM     23  H   LIG    1       -4.867   1.266  -1.709  0.00  0.00    +0.440 HD
ATOM     24  C   LIG    1       -4.653   3.332  -1.588  0.00  0.00    +0.700 C 
ATOM     25  N   LIG    1       -4.085   4.163  -0.704  0.00  0.00    -0.580 N 
ATOM     26  C   LIG    1       -4.063   5.621  -0.842  0.00  0.00    +0.340 C 
ATOM     27  O   LIG    1       -5.212   3.702  -2.601  0.00  0.00    -0.540 OA
ATOM     28  C   LIG    1       -3.536   3.489   0.329  0.00  0.00    +0.530 C 
ATOM     29  O   LIG    1       -2.952   3.955   1.284  0.00  0.00    -0.450 OA
ENDBRANCH  16  17
ENDBRANCH   9  16
TORSDOF 3
