REMARK  Name = ZINCpe000000U2V6.0
REMARK                            x       y       z     vdW  Elec       q    Type
REMARK                         _______ _______ _______ _____ _____    ______ ____
ROOT
ATOM      1  N   LIG    1       -0.072  -0.389   2.561  0.00  0.00    -0.750 N 
ATOM      2  H   LIG    1       -0.767  -0.816   3.086  0.00  0.00    +0.400 HD
ATOM      3  C   LIG    1        0.817  -1.141   1.882  0.00  0.00    +0.710 C 
ATOM      4  N   LIG    1        0.741  -2.485   1.932  0.00  0.00    -0.740 N 
ATOM      5  H   LIG    1        0.046  -2.912   2.457  0.00  0.00    +0.400 HD
ATOM      6  O   LIG    1        1.688  -0.605   1.224  0.00  0.00    -0.580 OA
ENDROOT
BRANCH   1   7
ATOM      7  C   LIG    1        0.011   1.072   2.506  0.00  0.00    +0.280 C 
BRANCH   7   9
ATOM      8  C   LIG    1       -0.013   1.086   0.008  0.00  0.00    +0.020 C 
ATOM      9  C   LIG    1       -0.729   1.579   1.267  0.00  0.00    +0.020 C 
ENDBRANCH   7   9
BRANCH   7  10
ATOM     10  C   LIG    1       -0.630   1.667   3.762  0.00  0.00    -0.330 C 
BRANCH  10  11
ATOM     11  S   LIG    1        0.336   1.186   5.220  0.00  0.00    +2.500 S 
ATOM     12  O   LIG    1        1.607   1.821   5.208  0.00  0.00    -0.930 OA
ATOM     13  O   LIG    1        0.216  -0.210   5.459  0.00  0.00    -0.930 OA
BRANCH  11  14
ATOM     14  C   LIG    1       -0.510   1.932   6.574  0.00  0.00    -0.660 A 
ATOM     15  C   LIG    1       -0.165   3.205   6.987  0.00  0.00    +0.110 A 
ATOM     16  C   LIG    1       -0.832   3.793   8.045  0.00  0.00    +0.000 A 
ATOM     17  C   LIG    1       -1.836   3.103   8.698  0.00  0.00    +0.070 A 
ATOM     18  C   LIG    1       -2.178   1.828   8.288  0.00  0.00    -0.010 A 
ATOM     19  C   LIG    1       -1.515   1.243   7.226  0.00  0.00    +0.110 A 
ENDBRANCH  11  14
ENDBRANCH  10  11
ENDBRANCH   7  10
ENDBRANCH   1   7
BRANCH   4  20
ATOM     20  C   LIG    1        1.708  -3.302   1.194  0.00  0.00    +0.290 C 
BRANCH  20  21
ATOM     21  C   LIG    1        1.400  -4.784   1.419  0.00  0.00    +0.170 C 
BRANCH  21  22
ATOM     22  N   LIG    1        2.369  -5.603   0.678  0.00  0.00    -0.530 NA
ATOM     23  C   LIG    1        2.203  -5.434  -0.772  0.00  0.00    +0.150 C 
ATOM     24  C   LIG    1        3.268  -6.256  -1.502  0.00  0.00    +0.220 C 
ATOM     25  O   LIG    1        3.164  -7.625  -1.101  0.00  0.00    -0.390 OA
ATOM     26  C   LIG    1        3.323  -7.826   0.306  0.00  0.00    +0.220 C 
ATOM     27  C   LIG    1        2.258  -7.019   1.054  0.00  0.00    +0.150 C 
ENDBRANCH  21  22
ENDBRANCH  20  21
ENDBRANCH   4  20
TORSDOF 8
