REMARK  Name = ZINCrH000009omze.0
REMARK                            x       y       z     vdW  Elec       q    Type
REMARK                         _______ _______ _______ _____ _____    ______ ____
ROOT
ATOM      1  N   LIG    1       -1.033   2.206   0.207  0.00  0.00    -0.570 N 
ATOM      2  C   LIG    1       -0.968   3.534   0.009  0.00  0.00    +0.520 C 
ATOM      3  C   LIG    1        0.338   4.172  -0.393  0.00  0.00    +0.080 C 
ATOM      4  C   LIG    1        1.491   3.425   0.281  0.00  0.00    +0.290 C 
ATOM      5  N   LIG    1        1.299   1.982   0.121  0.00  0.00    -0.620 N 
ATOM      6  O   LIG    1       -1.960   4.218   0.148  0.00  0.00    -0.500 OA
ATOM      7  C   LIG    1        0.070   1.442   0.150  0.00  0.00    +0.710 C 
ATOM      8  O   LIG    1       -0.046   0.232   0.119  0.00  0.00    -0.550 OA
ENDROOT
BRANCH   1   9
ATOM      9  C   LIG    1       -2.328   1.583   0.496  0.00  0.00    +0.310 C 
BRANCH   9  12
ATOM     10  C   LIG    1       -3.252   0.324   3.574  0.00  0.00    -0.020 C 
ATOM     11  C   LIG    1       -3.951   1.049   2.411  0.00  0.00    +0.030 C 
ATOM     12  C   LIG    1       -2.563   1.573   2.007  0.00  0.00    -0.040 C 
ATOM     13  C   LIG    1       -1.978   0.338   2.713  0.00  0.00    +0.030 C 
BRANCH  10  15
ATOM     14  C   LIG    1       -3.129  -1.664   5.082  0.00  0.00    +0.000 C 
ATOM     15  C   LIG    1       -3.799  -1.081   3.837  0.00  0.00    +0.010 C 
ENDBRANCH  10  15
ENDBRANCH   9  12
ENDBRANCH   1   9
BRANCH   5  16
ATOM     16  C   LIG    1        2.465   1.116  -0.073  0.00  0.00    +0.330 C 
BRANCH  16  17
ATOM     17  C   LIG    1        2.698   0.904  -1.571  0.00  0.00    +0.130 C 
ATOM     18  C   LIG    1        3.146   2.228  -2.239  0.00  0.00    +0.040 C 
ATOM     19  C   LIG    1        3.906   1.707  -3.487  0.00  0.00    +0.010 C 
ATOM     20  C   LIG    1        4.585   0.421  -2.970  0.00  0.00    +0.200 C 
ATOM     21  N   LIG    1        3.824  -0.029  -1.789  0.00  0.00    -0.470 N 
BRANCH  21  22
ATOM     22  C   LIG    1        3.365  -1.337  -1.958  0.00  0.00    +0.100 A 
ATOM     23  C   LIG    1        4.147  -2.268  -2.629  0.00  0.00    -0.040 A 
ATOM     24  C   LIG    1        3.692  -3.562  -2.790  0.00  0.00    +0.020 A 
ATOM     25  C   LIG    1        2.454  -3.928  -2.295  0.00  0.00    -0.030 A 
ATOM     26  C   LIG    1        1.670  -3.002  -1.631  0.00  0.00    +0.030 A 
ATOM     27  C   LIG    1        2.122  -1.708  -1.462  0.00  0.00    -0.030 A 
ENDBRANCH  21  22
ENDBRANCH  16  17
ENDBRANCH   5  16
TORSDOF 6
