REMARK  Name = ZINCAx0000000a0k.0
REMARK                            x       y       z     vdW  Elec       q    Type
REMARK                         _______ _______ _______ _____ _____    ______ ____
ROOT
ATOM      1  C   LIG    1       -0.047   1.107  -2.471  0.00  0.00    +0.470 C 
ATOM      2  O   LIG    1        0.945   0.425  -2.374  0.00  0.00    -0.510 OA
ENDROOT
BRANCH   1   3
ATOM      3  O   LIG    1       -0.522   1.431  -3.684  0.00  0.00    -0.330 OA
BRANCH   3   4
ATOM      4  C   LIG    1        0.208   0.928  -4.834  0.00  0.00    +0.250 C 
BRANCH   4   7
ATOM      5  N   LIG    1        0.039   1.042  -7.299  0.00  0.00    -0.730 N 
ATOM      6  H   LIG    1        0.837   0.493  -7.348  0.00  0.00    +0.400 HD
ATOM      7  C   LIG    1       -0.467   1.391  -6.100  0.00  0.00    +0.510 C 
ATOM      8  O   LIG    1       -1.465   2.076  -6.038  0.00  0.00    -0.510 OA
BRANCH   5   9
ATOM      9  C   LIG    1       -0.618   1.491  -8.529  0.00  0.00    +0.270 C 
BRANCH   9  10
ATOM     10  C   LIG    1        0.152   0.961  -9.741  0.00  0.00    +0.070 C 
BRANCH  10  14
ATOM     11  C   LIG    1       -1.767   2.268 -13.333  0.00  0.00    +0.100 A 
ATOM     12  C   LIG    1       -2.132   1.067 -12.746  0.00  0.00    -0.030 A 
ATOM     13  C   LIG    1       -1.507   0.645 -11.587  0.00  0.00    +0.020 A 
ATOM     14  C   LIG    1       -0.523   1.423 -11.007  0.00  0.00    -0.080 A 
ATOM     15  C   LIG    1       -0.154   2.623 -11.587  0.00  0.00    -0.030 A 
ATOM     16  C   LIG    1       -0.773   3.049 -12.750  0.00  0.00    +0.100 A 
BRANCH  11  18
ATOM     17  C   LIG    1       -3.389   1.829 -15.016  0.00  0.00    +0.250 C 
ATOM     18  O   LIG    1       -2.378   2.682 -14.475  0.00  0.00    -0.310 OA
ENDBRANCH  11  18
BRANCH  16  19
ATOM     19  O   LIG    1       -0.411   4.229 -13.322  0.00  0.00    -0.310 OA
ATOM     20  C   LIG    1        0.615   4.978 -12.669  0.00  0.00    +0.250 C 
ENDBRANCH  16  19
ENDBRANCH  10  14
ENDBRANCH   9  10
ENDBRANCH   5   9
ENDBRANCH   4   7
ENDBRANCH   3   4
ENDBRANCH   1   3
BRANCH   1  21
ATOM     21  C   LIG    1       -0.753   1.593  -1.232  0.00  0.00    +0.110 C 
BRANCH  21  22
ATOM     22  C   LIG    1       -0.013   1.086   0.008  0.00  0.00    +0.100 C 
BRANCH  22  23
ATOM     23  C   LIG    1       -0.718   1.572   1.248  0.00  0.00    -0.030 A 
ATOM     24  C   LIG    1       -0.360   2.779   1.819  0.00  0.00    +0.000 A 
ATOM     25  C   LIG    1       -1.010   3.227   2.953  0.00  0.00    +0.120 A 
ATOM     26  C   LIG    1       -2.012   2.463   3.523  0.00  0.00    -0.680 A 
ATOM     27  C   LIG    1       -2.366   1.254   2.955  0.00  0.00    +0.120 A 
ATOM     28  C   LIG    1       -1.719   0.808   1.818  0.00  0.00    +0.000 A 
BRANCH  26  29
ATOM     29  S   LIG    1       -2.837   3.032   4.972  0.00  0.00    +2.690 S 
ATOM     30  O   LIG    1       -4.102   2.385   4.994  0.00  0.00    -0.950 OA
ATOM     31  O   LIG    1       -2.687   4.445   4.991  0.00  0.00    -0.950 OA
BRANCH  29  32
ATOM     32  N   LIG    1       -1.994   2.454   6.275  0.00  0.00    -1.000 NA
ATOM     33  C   LIG    1       -2.333   1.153   6.869  0.00  0.00    +0.290 C 
ATOM     34  C   LIG    1       -1.060   0.295   6.925  0.00  0.00    +0.010 C 
ATOM     35  C   LIG    1        0.033   1.062   7.674  0.00  0.00    +0.020 C 
ATOM     36  C   LIG    1        0.357   2.356   6.923  0.00  0.00    +0.010 C 
ATOM     37  C   LIG    1       -0.897   3.235   6.863  0.00  0.00    +0.290 C 
ENDBRANCH  29  32
ENDBRANCH  26  29
ENDBRANCH  22  23
ENDBRANCH  21  22
ENDBRANCH   1  21
TORSDOF 13
