REMARK  Name = ZINCpk000000ohWk.0
REMARK                            x       y       z     vdW  Elec       q    Type
REMARK                         _______ _______ _______ _____ _____    ______ ____
ROOT
ATOM      1  N   LIG    1       -0.020   1.094   2.454  0.00  0.00    -0.510 N 
ATOM      2  C   LIG    1       -0.359  -0.088   3.003  0.00  0.00    +0.710 A 
ATOM      3  N   LIG    1        0.271  -0.568   4.088  0.00  0.00    -0.650 N 
ATOM      4  H   LIG    1        0.003  -1.425   4.456  0.00  0.00    +0.440 HD
ATOM      5  C   LIG    1        1.266   0.126   4.678  0.00  0.00    +0.600 A 
ATOM      6  C   LIG    1        1.651   1.373   4.138  0.00  0.00    -0.150 A 
ATOM      7  N   LIG    1        2.595   2.323   4.471  0.00  0.00    -0.400 N 
ATOM      8  C   LIG    1        2.488   3.317   3.568  0.00  0.00    +0.290 A 
ATOM      9  N   LIG    1        1.541   3.035   2.711  0.00  0.00    -0.490 NA
ATOM     10  O   LIG    1        1.827  -0.318   5.664  0.00  0.00    -0.510 OA
ATOM     11  O   LIG    1       -1.256  -0.739   2.501  0.00  0.00    -0.530 OA
ATOM     12  C   LIG    1        0.994   1.854   3.013  0.00  0.00    +0.320 A 
ENDROOT
BRANCH   1  13
ATOM     13  C   LIG    1       -0.729   1.579   1.267  0.00  0.00    +0.320 C 
BRANCH  13  14
ATOM     14  C   LIG    1       -0.013   1.086   0.008  0.00  0.00    +0.010 C 
BRANCH  14  16
ATOM     15  C   LIG    1       -0.037   1.099  -2.490  0.00  0.00    +0.010 C 
ATOM     16  C   LIG    1       -0.753   1.593  -1.232  0.00  0.00    +0.020 C 
ENDBRANCH  14  16
ENDBRANCH  13  14
ENDBRANCH   1  13
BRANCH   7  17
ATOM     17  C   LIG    1        3.536   2.261   5.592  0.00  0.00    +0.310 C 
BRANCH  17  18
ATOM     18  C   LIG    1        4.827   1.577   5.137  0.00  0.00    -0.030 C 
ATOM     19  C   LIG    1        4.532   0.120   4.776  0.00  0.00    +0.030 C 
ATOM     20  C   LIG    1        5.855   1.623   6.270  0.00  0.00    +0.040 C 
ENDBRANCH  17  18
ENDBRANCH   7  17
BRANCH   8  21
ATOM     21  C   LIG    1        3.330   4.567   3.550  0.00  0.00    +0.190 C 
BRANCH  21  22
ATOM     22  C   LIG    1        4.579   4.327   2.698  0.00  0.00    +0.120 C 
BRANCH  22  23
ATOM     23  C   LIG    1        5.421   5.576   2.680  0.00  0.00    +0.460 C 
ATOM     24  O   LIG    1        5.061   6.558   3.285  0.00  0.00    -0.500 OA
BRANCH  23  25
ATOM     25  O   LIG    1        6.573   5.599   1.990  0.00  0.00    -0.360 OA
ATOM     26  C   LIG    1        7.333   6.836   2.017  0.00  0.00    +0.270 C 
ENDBRANCH  23  25
ENDBRANCH  22  23
ENDBRANCH  21  22
ENDBRANCH   8  21
TORSDOF 9
