REMARK  Name = ZINCpe000000XWeR.0
REMARK                            x       y       z     vdW  Elec       q    Type
REMARK                         _______ _______ _______ _____ _____    ______ ____
ROOT
ATOM      1  N   LIG    1       -2.280   3.636   6.526  0.00  0.00    -0.730 N 
ATOM      2  H   LIG    1       -2.755   3.020   7.104  0.00  0.00    +0.410 HD
ATOM      3  C   LIG    1       -1.625   4.688   7.055  0.00  0.00    +0.520 C 
ATOM      4  O   LIG    1       -1.031   5.460   6.331  0.00  0.00    -0.520 OA
ENDROOT
BRANCH   1  10
ATOM      5  C   LIG    1       -0.013   1.086   0.008  0.00  0.00    +0.140 C 
ATOM      6  C   LIG    1       -0.718   1.572   1.248  0.00  0.00    -0.000 A 
ATOM      7  C   LIG    1       -0.138   1.837   2.436  0.00  0.00    +0.120 A 
ATOM      8  N   LIG    1       -1.132   2.248   3.274  0.00  0.00    -0.450 N 
ATOM      9  C   LIG    1       -1.014   2.653   4.676  0.00  0.00    +0.270 C 
ATOM     10  C   LIG    1       -2.276   3.425   5.076  0.00  0.00    +0.240 C 
ATOM     11  C   LIG    1       -3.516   2.621   4.674  0.00  0.00    +0.040 C 
ATOM     12  C   LIG    1       -3.634   2.605   3.144  0.00  0.00    +0.160 C 
ATOM     13  C   LIG    1       -2.290   2.221   2.572  0.00  0.00    +0.200 A 
ATOM     14  N   LIG    1       -2.033   1.822   1.361  0.00  0.00    -0.480 NA
ENDBRANCH   1  10
BRANCH   3  15
ATOM     15  C   LIG    1       -1.629   4.906   8.546  0.00  0.00    +0.120 C 
BRANCH  15  16
ATOM     16  C   LIG    1       -0.830   6.141   8.876  0.00  0.00    -0.060 A 
ATOM     17  C   LIG    1        0.524   6.038   9.133  0.00  0.00    +0.060 A 
ATOM     18  C   LIG    1        1.260   7.168   9.431  0.00  0.00    +0.020 A 
ATOM     19  C   LIG    1        0.636   8.407   9.482  0.00  0.00    +0.130 A 
ATOM     20  C   LIG    1       -0.725   8.507   9.228  0.00  0.00    +0.040 A 
ATOM     21  C   LIG    1       -1.455   7.373   8.926  0.00  0.00    +0.060 A 
BRANCH  19  22
ATOM     22  N   LIG    1        1.380   9.556   9.788  0.00  0.00    -0.330 N 
ATOM     23  C   LIG    1        2.701   9.630  10.058  0.00  0.00    +0.470 A 
ATOM     24  N   LIG    1        2.981  10.886  10.288  0.00  0.00    -0.330 NA
ATOM     25  N   LIG    1        1.926  11.612  10.182  0.00  0.00    -0.030 NA
ATOM     26  N   LIG    1        0.911  10.879   9.874  0.00  0.00    -0.080 NA
ENDBRANCH  19  22
ENDBRANCH  15  16
ENDBRANCH   3  15
TORSDOF 4
