REMARK  Name = ZINCtV00001bB3nW.0
REMARK                            x       y       z     vdW  Elec       q    Type
REMARK                         _______ _______ _______ _____ _____    ______ ____
ROOT
ATOM      1  N   LIG    1        6.018   1.793  -0.046  0.00  0.00    -0.480 NA
ATOM      2  C   LIG    1        4.896   1.143   0.221  0.00  0.00    +0.260 A 
ATOM      3  C   LIG    1        3.647   1.817   0.277  0.00  0.00    -0.120 A 
ATOM      4  C   LIG    1        2.520   1.113   0.553  0.00  0.00    +0.200 A 
ATOM      5  O   LIG    1        2.533  -0.212   0.784  0.00  0.00    -0.230 OA
ATOM      6  C   LIG    1        3.668  -0.942   0.748  0.00  0.00    +0.130 A 
ATOM      7  C   LIG    1        3.643  -2.309   0.987  0.00  0.00    +0.010 A 
ATOM      8  C   LIG    1        4.815  -3.037   0.950  0.00  0.00    +0.070 A 
ATOM      9  C   LIG    1        6.024  -2.416   0.677  0.00  0.00    -0.110 A 
ATOM     10  C   LIG    1        6.069  -1.058   0.438  0.00  0.00    +0.100 A 
ATOM     11  C   LIG    1        7.293  -3.227   0.642  0.00  0.00    +0.100 C 
ATOM     12  C   LIG    1        4.892  -0.315   0.472  0.00  0.00    -0.120 A 
ENDROOT
BRANCH   1  18
ATOM     13  C   LIG    1        6.563   3.784  -1.268  0.00  0.00    +0.130 A 
ATOM     14  C   LIG    1        6.547   5.165  -1.358  0.00  0.00    -0.070 A 
ATOM     15  C   LIG    1        5.998   5.921  -0.337  0.00  0.00    +0.040 A 
ATOM     16  C   LIG    1        5.457   5.305   0.777  0.00  0.00    -0.010 A 
ATOM     17  C   LIG    1        5.460   3.929   0.881  0.00  0.00    +0.010 A 
ATOM     18  C   LIG    1        6.011   3.154  -0.142  0.00  0.00    +0.080 A 
BRANCH  13  19
ATOM     19  O   LIG    1        7.107   3.041  -2.268  0.00  0.00    -0.300 OA
BRANCH  19  21
ATOM     20  C   LIG    1        8.213   2.755  -4.397  0.00  0.00    +0.070 C 
ATOM     21  C   LIG    1        7.650   3.752  -3.382  0.00  0.00    +0.170 C 
ENDBRANCH  19  21
ENDBRANCH  13  19
ENDBRANCH   1  18
BRANCH   4  22
ATOM     22  C   LIG    1        1.232   1.830   0.608  0.00  0.00    -0.110 A 
ATOM     23  C   LIG    1        0.053   1.133   0.890  0.00  0.00    +0.100 A 
ATOM     24  C   LIG    1       -1.148   1.806   0.934  0.00  0.00    -0.070 A 
ATOM     25  C   LIG    1       -1.188   3.176   0.710  0.00  0.00    +0.150 A 
ATOM     26  C   LIG    1       -0.019   3.873   0.429  0.00  0.00    -0.010 A 
ATOM     27  C   LIG    1        1.186   3.208   0.377  0.00  0.00    +0.100 A 
BRANCH  25  28
ATOM     28  O   LIG    1       -2.374   3.836   0.761  0.00  0.00    -0.310 OA
ATOM     29  C   LIG    1       -3.536   3.059   1.055  0.00  0.00    +0.240 C 
ENDBRANCH  25  28
ENDBRANCH   4  22
TORSDOF 5
