REMARK  Name = ZINCpe000000Zy0W.0
REMARK                            x       y       z     vdW  Elec       q    Type
REMARK                         _______ _______ _______ _____ _____    ______ ____
ROOT
ATOM      1  C   LIG    1        0.519   6.306   1.703  0.00  0.00    +0.010 C 
ATOM      2  C   LIG    1       -0.350   6.302   2.982  0.00  0.00    +0.090 C 
ATOM      3  C   LIG    1        0.506   7.005   4.013  0.00  0.00    +0.520 C 
ATOM      4  N   LIG    1        1.502   7.676   3.408  0.00  0.00    -0.550 N 
ATOM      5  O   LIG    1        0.321   6.968   5.211  0.00  0.00    -0.500 OA
ATOM      6  C   LIG    1        1.439   7.522   1.950  0.00  0.00    +0.310 C 
ENDROOT
BRANCH   1  14
ATOM      7  O   LIG    1        0.026   0.017  -0.056  0.00  0.00    -0.540 OA
ATOM      8  C   LIG    1        0.002   1.230  -0.038  0.00  0.00    +0.520 C 
ATOM      9  C   LIG    1        1.299   2.006  -0.048  0.00  0.00    +0.060 C 
ATOM     10  C   LIG    1        1.502   2.639   1.333  0.00  0.00    +0.310 C 
ATOM     11  N   LIG    1        0.696   3.853   1.438  0.00  0.00    -0.610 N 
ATOM     12  C   LIG    1       -0.764   3.834   1.381  0.00  0.00    +0.270 C 
ATOM     13  C   LIG    1       -1.222   3.338   0.006  0.00  0.00    +0.270 C 
ATOM     14  C   LIG    1        1.323   5.036   1.592  0.00  0.00    +0.520 C 
ATOM     15  O   LIG    1        2.534   5.078   1.642  0.00  0.00    -0.520 OA
ATOM     16  N   LIG    1       -1.171   1.870  -0.015  0.00  0.00    -0.730 N 
ATOM     17  H   LIG    1       -1.996   1.361  -0.009  0.00  0.00    +0.400 HD
ENDBRANCH   1  14
BRANCH   4  18
ATOM     18  C   LIG    1        2.474   8.424   4.082  0.00  0.00    +0.170 A 
ATOM     19  C   LIG    1        3.532   8.985   3.380  0.00  0.00    -0.020 A 
ATOM     20  C   LIG    1        4.487   9.722   4.050  0.00  0.00    +0.050 A 
ATOM     21  C   LIG    1        4.396   9.904   5.420  0.00  0.00    -0.120 A 
ATOM     22  C   LIG    1        5.301  10.658   6.371  0.00  0.00    +0.070 C 
ATOM     23  C   LIG    1        4.461  10.870   7.648  0.00  0.00    +0.030 C 
ATOM     24  C   LIG    1        3.470   9.688   7.592  0.00  0.00    +0.080 C 
ATOM     25  C   LIG    1        3.342   9.346   6.122  0.00  0.00    -0.070 A 
ATOM     26  C   LIG    1        2.379   8.612   5.454  0.00  0.00    +0.010 A 
ENDBRANCH   4  18
TORSDOF 2
