REMARK  Name = ZINCqH0000033h42.0
REMARK                            x       y       z     vdW  Elec       q    Type
REMARK                         _______ _______ _______ _____ _____    ______ ____
ROOT
ATOM      1  C   LIG    1       -1.234   3.140   0.014  0.00  0.00    -0.690 A 
ATOM      2  C   LIG    1       -1.209   1.767   0.180  0.00  0.00    +0.140 A 
ATOM      3  C   LIG    1       -0.005   1.091   0.176  0.00  0.00    -0.030 A 
ATOM      4  C   LIG    1        1.181   1.790  -0.005  0.00  0.00    +0.210 A 
ATOM      5  C   LIG    1        1.153   3.167  -0.177  0.00  0.00    +0.010 A 
ATOM      6  C   LIG    1       -0.054   3.838  -0.168  0.00  0.00    +0.140 A 
ENDROOT
BRANCH   4   7
ATOM      7  N   LIG    1        2.402   1.107  -0.015  0.00  0.00    -0.670 N 
ATOM      8  H   LIG    1        2.451   0.206  -0.371  0.00  0.00    +0.410 HD
ATOM      9  C   LIG    1        3.510   1.701   0.471  0.00  0.00    +0.550 C 
ATOM     10  O   LIG    1        3.432   2.790   1.005  0.00  0.00    -0.470 OA
BRANCH   9  11
ATOM     11  C   LIG    1        4.820   1.028   0.355  0.00  0.00    -0.080 A 
ATOM     12  C   LIG    1        4.913  -0.226  -0.252  0.00  0.00    +0.030 A 
ATOM     13  C   LIG    1        6.144  -0.848  -0.362  0.00  0.00    +0.140 A 
ATOM     14  C   LIG    1        7.282  -0.231   0.141  0.00  0.00    -0.020 A 
ATOM     15  C   LIG    1        7.193   1.008   0.747  0.00  0.00    +0.100 A 
ATOM     16  C   LIG    1        5.971   1.641   0.858  0.00  0.00    -0.080 A 
ATOM     17 BR   LIG    1        5.854   3.335   1.689  0.00  0.00    -0.000 Br
BRANCH  13  18
ATOM     18  O   LIG    1        6.239  -2.066  -0.957  0.00  0.00    -0.310 OA
ATOM     19  C   LIG    1        7.540  -2.653  -1.031  0.00  0.00    +0.250 C 
ENDBRANCH  13  18
ENDBRANCH   9  11
ENDBRANCH   4   7
BRANCH   1  20
ATOM     20  S   LIG    1       -2.771   4.000   0.026  0.00  0.00    +2.690 S 
ATOM     21  O   LIG    1       -2.477   5.344   0.383  0.00  0.00    -0.950 OA
ATOM     22  O   LIG    1       -3.681   3.185   0.751  0.00  0.00    -0.950 OA
BRANCH  20  23
ATOM     23  N   LIG    1       -3.322   4.041  -1.535  0.00  0.00    -1.000 NA
BRANCH  23  25
ATOM     24  C   LIG    1       -5.646   3.368  -1.896  0.00  0.00    +0.010 C 
ATOM     25  C   LIG    1       -4.177   2.963  -2.039  0.00  0.00    +0.280 C 
ENDBRANCH  23  25
BRANCH  23  26
ATOM     26  C   LIG    1       -2.954   5.155  -2.413  0.00  0.00    +0.290 C 
ATOM     27  C   LIG    1       -1.728   4.767  -3.242  0.00  0.00    +0.010 C 
ENDBRANCH  23  26
ENDBRANCH  20  23
ENDBRANCH   1  20
TORSDOF 7
