REMARK  Name = ZINCvU000000048w.0
REMARK                            x       y       z     vdW  Elec       q    Type
REMARK                         _______ _______ _______ _____ _____    ______ ____
ROOT
ATOM      1  N   LIG    1        4.407  -0.785  -1.265  0.00  0.00    -0.610 N 
ATOM      2  C   LIG    1        5.197   0.158  -1.815  0.00  0.00    +0.550 C 
ATOM      3  O   LIG    1        5.450   0.121  -3.004  0.00  0.00    -0.530 OA
ENDROOT
BRANCH   2   4
ATOM      4  C   LIG    1        5.753   1.232  -0.978  0.00  0.00    -0.090 C 
ATOM      5  C   LIG    1        6.626   2.092  -1.494  0.00  0.00    +0.140 C 
ENDBRANCH   2   4
BRANCH   1   6
ATOM      6  C   LIG    1        4.018  -0.683   0.144  0.00  0.00    +0.360 C 
BRANCH   6  10
ATOM      7  C   LIG    1        6.615  -3.117   2.519  0.00  0.00    +0.080 A 
ATOM      8  C   LIG    1        5.453  -3.661   1.972  0.00  0.00    +0.010 A 
ATOM      9  C   LIG    1        4.618  -2.871   1.205  0.00  0.00    +0.150 A 
ATOM     10  C   LIG    1        4.932  -1.540   0.981  0.00  0.00    -0.180 A 
ATOM     11  C   LIG    1        6.085  -0.995   1.522  0.00  0.00    +0.150 A 
ATOM     12  F   LIG    1        6.386   0.303   1.299  0.00  0.00    -0.120 F 
ATOM     13  F   LIG    1        3.492  -3.396   0.674  0.00  0.00    -0.120 F 
ATOM     14  C   LIG    1        6.928  -1.777   2.290  0.00  0.00    +0.010 A 
BRANCH   7  16
ATOM     15  C   LIG    1        8.203  -4.602   3.957  0.00  0.00    +0.100 C 
ATOM     16  C   LIG    1        7.488  -3.933   3.309  0.00  0.00    -0.170 C 
ENDBRANCH   7  16
ENDBRANCH   6  10
ENDBRANCH   1   6
BRANCH   1  17
ATOM     17  C   LIG    1        3.937  -1.911  -2.075  0.00  0.00    +0.290 C 
BRANCH  17  18
ATOM     18  C   LIG    1        2.605  -1.545  -2.734  0.00  0.00    +0.070 C 
BRANCH  18  19
ATOM     19  C   LIG    1        2.122  -2.704  -3.568  0.00  0.00    -0.070 A 
ATOM     20  C   LIG    1        2.485  -2.796  -4.899  0.00  0.00    +0.020 A 
ATOM     21  C   LIG    1        2.047  -3.861  -5.665  0.00  0.00    +0.030 A 
ATOM     22  C   LIG    1        1.237  -4.829  -5.105  0.00  0.00    +0.010 A 
ATOM     23  C   LIG    1        0.867  -4.736  -3.771  0.00  0.00    +0.090 A 
ATOM     24  C   LIG    1        1.312  -3.670  -3.003  0.00  0.00    +0.000 A 
BRANCH  23  25
ATOM     25  O   LIG    1        0.071  -5.688  -3.218  0.00  0.00    -0.260 OA
BRANCH  25  26
ATOM     26  C   LIG    1       -1.237  -5.383  -3.009  0.00  0.00    +0.120 A 
ATOM     27  C   LIG    1       -1.750  -4.175  -3.459  0.00  0.00    -0.060 A 
ATOM     28  C   LIG    1       -3.080  -3.870  -3.250  0.00  0.00    +0.050 A 
ATOM     29  C   LIG    1       -3.899  -4.762  -2.583  0.00  0.00    -0.020 A 
ATOM     30  C   LIG    1       -3.390  -5.965  -2.128  0.00  0.00    +0.050 A 
ATOM     31  C   LIG    1       -2.061  -6.277  -2.340  0.00  0.00    -0.020 A 
ENDBRANCH  25  26
ENDBRANCH  23  25
ENDBRANCH  18  19
ENDBRANCH  17  18
ENDBRANCH   1  17
TORSDOF 9
