REMARK  Name = ZINCvU0000000H1t.0
REMARK                            x       y       z     vdW  Elec       q    Type
REMARK                         _______ _______ _______ _____ _____    ______ ____
ROOT
ATOM      1  C   LIG    1       -5.136   0.985  -1.047  0.00  0.00    +0.570 C 
ATOM      2  N   LIG    1       -6.479   0.978  -0.932  0.00  0.00    -0.600 N 
ATOM      3  O   LIG    1       -4.443   1.132  -0.059  0.00  0.00    -0.520 OA
ENDROOT
BRANCH   1  10
ATOM      4  C   LIG    1       -1.680  -1.687  -5.313  0.00  0.00    +0.550 C 
ATOM      5  N   LIG    1       -2.041  -1.364  -4.056  0.00  0.00    -0.550 N 
ATOM      6  C   LIG    1       -1.455  -2.068  -2.907  0.00  0.00    +0.280 C 
ATOM      7  C   LIG    1       -2.591  -2.404  -1.932  0.00  0.00    +0.020 C 
ATOM      8  C   LIG    1       -3.205  -1.100  -1.422  0.00  0.00    +0.090 C 
ATOM      9  C   LIG    1       -3.564  -0.200  -2.574  0.00  0.00    -0.070 A 
ATOM     10  C   LIG    1       -4.507   0.813  -2.374  0.00  0.00    -0.110 A 
ATOM     11  C   LIG    1       -4.853   1.661  -3.425  0.00  0.00    +0.020 A 
ATOM     12  C   LIG    1       -4.264   1.502  -4.663  0.00  0.00    +0.030 A 
ATOM     13  C   LIG    1       -3.334   0.500  -4.863  0.00  0.00    +0.040 A 
ATOM     14  C   LIG    1       -2.983  -0.352  -3.821  0.00  0.00    +0.150 A 
ATOM     15  O   LIG    1       -2.250  -1.179  -6.260  0.00  0.00    -0.520 OA
BRANCH   4  17
ATOM     16  C   LIG    1       -0.174  -2.901  -6.779  0.00  0.00    +0.160 C 
ATOM     17  C   LIG    1       -0.595  -2.654  -5.542  0.00  0.00    -0.100 C 
ENDBRANCH   4  17
ENDBRANCH   1  10
BRANCH   2  18
ATOM     18  C   LIG    1       -7.106   1.283   0.356  0.00  0.00    +0.240 C 
ATOM     19  C   LIG    1       -6.732   2.705   0.781  0.00  0.00    +0.010 C 
ATOM     20  C   LIG    1       -7.387   3.023   2.127  0.00  0.00    +0.010 C 
ATOM     21  C   LIG    1       -6.895   2.030   3.182  0.00  0.00    +0.000 C 
ATOM     22  C   LIG    1       -7.268   0.608   2.756  0.00  0.00    +0.010 C 
ATOM     23  C   LIG    1       -6.614   0.290   1.411  0.00  0.00    +0.010 C 
ENDBRANCH   2  18
BRANCH   2  24
ATOM     24  C   LIG    1       -7.312   0.666  -2.096  0.00  0.00    +0.330 C 
BRANCH  24  25
ATOM     25  C   LIG    1       -7.561  -0.819  -2.152  0.00  0.00    -0.120 A 
ATOM     26  C   LIG    1       -6.694  -1.639  -2.849  0.00  0.00    +0.060 A 
ATOM     27  C   LIG    1       -6.919  -3.002  -2.896  0.00  0.00    -0.020 A 
ATOM     28  C   LIG    1       -8.020  -3.544  -2.254  0.00  0.00    +0.100 A 
ATOM     29  C   LIG    1       -8.890  -2.721  -1.561  0.00  0.00    -0.010 A 
ATOM     30  F   LIG    1       -8.244  -4.876  -2.304  0.00  0.00    -0.140 F 
ATOM     31  C   LIG    1       -8.661  -1.359  -1.510  0.00  0.00    +0.060 A 
ENDBRANCH  24  25
ENDBRANCH   2  24
TORSDOF 5
