REMARK  Name = ZINCvU00000004T9.0
REMARK                            x       y       z     vdW  Elec       q    Type
REMARK                         _______ _______ _______ _____ _____    ______ ____
ROOT
ATOM      1  C   LIG    1        6.426   6.579  -1.449  0.00  0.00    +0.040 C 
ATOM      2  C   LIG    1        6.127   6.098  -0.028  0.00  0.00    +0.280 C 
ENDROOT
BRANCH   2   3
ATOM      3  C   LIG    1        4.829   5.332  -0.018  0.00  0.00    -0.090 A 
ATOM      4  C   LIG    1        4.844   3.949  -0.025  0.00  0.00    +0.030 A 
ATOM      5  C   LIG    1        3.658   3.244  -0.016  0.00  0.00    +0.030 A 
ATOM      6  C   LIG    1        2.444   3.927  -0.001  0.00  0.00    -0.050 A 
ATOM      7  C   LIG    1        2.434   5.321   0.001  0.00  0.00    +0.030 A 
ATOM      8  C   LIG    1        3.627   6.016  -0.003  0.00  0.00    +0.010 A 
BRANCH   6   9
ATOM      9  C   LIG    1        1.165   3.174   0.008  0.00  0.00    -0.040 A 
ATOM     10  C   LIG    1        1.176   1.780   0.000  0.00  0.00    +0.060 A 
ATOM     11  C   LIG    1       -0.013   1.076   0.008  0.00  0.00    +0.030 A 
ATOM     12  C   LIG    1       -1.219   1.747   0.017  0.00  0.00    +0.070 A 
ATOM     13  C   LIG    1       -1.243   3.143   0.031  0.00  0.00    -0.020 A 
ATOM     14  C   LIG    1       -0.046   3.858   0.023  0.00  0.00    +0.080 A 
BRANCH  13  15
ATOM     15  C   LIG    1       -2.495   3.839   0.046  0.00  0.00    +0.250 C 
ATOM     16  N   LIG    1       -3.487   4.392   0.059  0.00  0.00    -0.410 NA
ENDBRANCH  13  15
ENDBRANCH   6   9
ENDBRANCH   2   3
BRANCH   2  17
ATOM     17  N   LIG    1        6.020   7.253   0.867  0.00  0.00    -0.720 N 
ATOM     18  H   LIG    1        5.150   7.636   1.062  0.00  0.00    +0.400 HD
ATOM     19  C   LIG    1        7.129   7.784   1.418  0.00  0.00    +0.560 C 
ATOM     20  O   LIG    1        8.219   7.304   1.173  0.00  0.00    -0.530 OA
BRANCH  19  21
ATOM     21  C   LIG    1        7.021   8.950   2.321  0.00  0.00    -0.130 A 
ATOM     22  C   LIG    1        5.772   9.507   2.599  0.00  0.00    +0.030 A 
ATOM     23  C   LIG    1        5.677  10.592   3.446  0.00  0.00    +0.010 A 
ATOM     24  C   LIG    1        6.818  11.134   4.010  0.00  0.00    +0.040 A 
ATOM     25  C   LIG    1        8.060  10.590   3.734  0.00  0.00    -0.080 A 
ATOM     26  C   LIG    1        8.168   9.502   2.893  0.00  0.00    +0.090 A 
BRANCH  25  27
ATOM     27  C   LIG    1        9.297  11.188   4.353  0.00  0.00    +0.010 C 
ATOM     28  C   LIG    1        9.191  11.118   5.879  0.00  0.00    +0.030 C 
ATOM     29  C   LIG    1       10.416  11.799   6.497  0.00  0.00    -0.010 C 
ATOM     30  C   LIG    1       10.504  13.239   5.985  0.00  0.00    +0.210 C 
ATOM     31  O   LIG    1       10.569  13.233   4.558  0.00  0.00    -0.380 OA
ATOM     32  C   LIG    1        9.428  12.652   3.924  0.00  0.00    +0.220 C 
ENDBRANCH  25  27
ENDBRANCH  19  21
ENDBRANCH   2  17
TORSDOF 6
