REMARK  Name = ZINCpe00000MJILp.1
REMARK                            x       y       z     vdW  Elec       q    Type
REMARK                         _______ _______ _______ _____ _____    ______ ____
ROOT
ATOM      1  C   LIG    1       -3.703  -0.836   0.032  0.00  0.00    +0.550 C 
ATOM      2  N   LIG    1       -4.873  -0.177   0.147  0.00  0.00    -0.610 N 
ATOM      3  C   LIG    1       -4.916   1.294   0.164  0.00  0.00    +0.250 C 
ATOM      4  C   LIG    1       -5.742   1.744   1.369  0.00  0.00    +0.210 C 
ATOM      5  O   LIG    1       -7.004   1.071   1.354  0.00  0.00    -0.350 OA
ATOM      6  C   LIG    1       -6.911  -0.350   1.472  0.00  0.00    +0.140 C 
ATOM      7  C   LIG    1       -6.145  -0.908   0.267  0.00  0.00    +0.260 C 
ATOM      8  O   LIG    1       -3.694  -2.048  -0.066  0.00  0.00    -0.540 OA
ENDROOT
BRANCH   1  10
ATOM      9  C   LIG    1       -1.267  -0.753   0.015  0.00  0.00    +0.120 C 
ATOM     10  C   LIG    1       -2.440  -0.090   0.022  0.00  0.00    -0.040 C 
BRANCH   9  17
ATOM     11  C   LIG    1        1.236  -2.203  -0.001  0.00  0.00    +0.110 C 
ATOM     12  C   LIG    1        1.215  -0.696  -0.003  0.00  0.00    -0.110 A 
ATOM     13  C   LIG    1        2.398   0.022  -0.012  0.00  0.00    +0.060 A 
ATOM     14  C   LIG    1        2.332   1.408  -0.013  0.00  0.00    -0.020 A 
ATOM     15  C   LIG    1        1.095   2.030  -0.004  0.00  0.00    +0.260 A 
ATOM     16  N   LIG    1       -0.016   1.325   0.004  0.00  0.00    -0.470 NA
ATOM     17  C   LIG    1        0.002  -0.004   0.005  0.00  0.00    +0.130 A 
ENDBRANCH   9  17
ENDBRANCH   1  10
BRANCH   6  18
ATOM     18  C   LIG    1       -8.316  -0.955   1.508  0.00  0.00    +0.200 C 
BRANCH  18  19
ATOM     19  N   LIG    1       -9.049  -0.420   2.663  0.00  0.00    -0.530 NA
ATOM     20  C   LIG    1       -8.446  -0.871   3.925  0.00  0.00    +0.170 C 
ATOM     21  C   LIG    1       -9.188  -0.230   5.100  0.00  0.00    +0.180 C 
ATOM     22  N   LIG    1      -10.609  -0.599   5.038  0.00  0.00    -0.550 NA
ATOM     23  C   LIG    1      -11.213  -0.148   3.777  0.00  0.00    +0.180 C 
ATOM     24  C   LIG    1      -11.343  -0.064   6.194  0.00  0.00    +0.190 C 
ATOM     25  C   LIG    1      -10.471  -0.788   2.602  0.00  0.00    +0.180 C 
ENDBRANCH  18  19
ENDBRANCH   6  18
TORSDOF 4
