REMARK  Name = ZINCqH0000003LOc.0
REMARK                            x       y       z     vdW  Elec       q    Type
REMARK                         _______ _______ _______ _____ _____    ______ ____
ROOT
ATOM      1  C   LIG    1       -1.207  -0.821   0.131  0.00  0.00    +0.290 C 
ATOM      2  C   LIG    1       -1.904  -0.488   1.452  0.00  0.00    +0.120 C 
ENDROOT
BRANCH   1   3
ATOM      3  N   LIG    1       -0.867  -2.246   0.103  0.00  0.00    -0.130 N 
ATOM      4  N   LIG    1       -0.095  -2.844   0.942  0.00  0.00    -0.020 NA
ATOM      5  N   LIG    1       -0.018  -4.092   0.625  0.00  0.00    -0.270 NA
ATOM      6  C   LIG    1       -0.774  -4.272  -0.468  0.00  0.00    +0.210 A 
ATOM      7  N   LIG    1       -1.290  -3.096  -0.768  0.00  0.00    -0.300 NA
BRANCH   6   8
ATOM      8  C   LIG    1       -0.987  -5.546  -1.198  0.00  0.00    +0.000 A 
ATOM      9  C   LIG    1       -1.810  -5.579  -2.322  0.00  0.00    +0.060 A 
ATOM     10  C   LIG    1       -2.003  -6.765  -3.000  0.00  0.00    +0.050 A 
ATOM     11  C   LIG    1       -1.386  -7.924  -2.560  0.00  0.00    -0.080 A 
ATOM     12  C   LIG    1       -0.571  -7.898  -1.442  0.00  0.00    +0.050 A 
ATOM     13 BR   LIG    1       -1.659  -9.548  -3.490  0.00  0.00    -0.040 Br
ATOM     14  C   LIG    1       -0.369  -6.715  -0.759  0.00  0.00    +0.080 A 
ENDBRANCH   6   8
ENDBRANCH   1   3
BRANCH   1  17
ATOM     15  N   LIG    1       -0.016   1.344   0.009  0.00  0.00    -0.660 N 
ATOM     16  H   LIG    1       -0.880   1.785   0.018  0.00  0.00    +0.410 HD
ATOM     17  C   LIG    1        0.052  -0.003   0.008  0.00  0.00    +0.510 C 
ATOM     18  O   LIG    1        1.127  -0.555  -0.093  0.00  0.00    -0.490 OA
BRANCH  15  22
ATOM     19  C   LIG    1        3.483   3.610  -0.042  0.00  0.00    +0.130 A 
ATOM     20  C   LIG    1        3.426   2.408  -0.732  0.00  0.00    +0.010 A 
ATOM     21  C   LIG    1        2.267   1.657  -0.715  0.00  0.00    +0.060 A 
ATOM     22  C   LIG    1        1.160   2.105  -0.007  0.00  0.00    +0.100 A 
ATOM     23  C   LIG    1        1.217   3.311   0.679  0.00  0.00    +0.030 A 
ATOM     24  C   LIG    1        2.377   4.058   0.665  0.00  0.00    -0.060 A 
BRANCH  19  25
ATOM     25  O   LIG    1        4.624   4.350  -0.060  0.00  0.00    -0.310 OA
BRANCH  25  27
ATOM     26  C   LIG    1        5.973   6.264   0.536  0.00  0.00    +0.070 C 
ATOM     27  C   LIG    1        4.613   5.577   0.672  0.00  0.00    +0.170 C 
ENDBRANCH  25  27
ENDBRANCH  19  25
ENDBRANCH  15  22
ENDBRANCH   1  17
TORSDOF 6
