REMARK  Name = ZINCpk0000055Elh.0
REMARK                            x       y       z     vdW  Elec       q    Type
REMARK                         _______ _______ _______ _____ _____    ______ ____
ROOT
ATOM      1  C   LIG    1       -2.649   0.792   0.191  0.00  0.00    +0.230 C 
ENDROOT
BRANCH   1   2
ATOM      2  N   LIG    1       -1.296   1.352   0.223  0.00  0.00    -0.730 N 
ATOM      3  H   LIG    1       -1.167   2.313   0.187  0.00  0.00    +0.400 HD
ATOM      4  C   LIG    1       -0.229   0.532   0.302  0.00  0.00    +0.520 C 
ATOM      5  O   LIG    1       -0.390  -0.669   0.347  0.00  0.00    -0.520 OA
BRANCH   4   6
ATOM      6  C   LIG    1        1.163   1.107   0.329  0.00  0.00    +0.110 C 
BRANCH   6   7
ATOM      7  C   LIG    1        2.168  -0.013   0.413  0.00  0.00    -0.100 A 
ATOM      8  C   LIG    1        2.667  -0.403   1.640  0.00  0.00    +0.060 A 
ATOM      9  C   LIG    1        3.586  -1.433   1.718  0.00  0.00    -0.040 A 
ATOM     10  C   LIG    1        4.014  -2.069   0.568  0.00  0.00    +0.040 A 
ATOM     11  C   LIG    1        3.522  -1.679  -0.662  0.00  0.00    -0.080 A 
ATOM     12  C   LIG    1        2.597  -0.649  -0.743  0.00  0.00    +0.140 A 
BRANCH  12  13
ATOM     13  O   LIG    1        2.111  -0.264  -1.953  0.00  0.00    -0.310 OA
ATOM     14  C   LIG    1        2.597  -0.964  -3.100  0.00  0.00    +0.250 C 
ENDBRANCH  12  13
ENDBRANCH   6   7
ENDBRANCH   4   6
ENDBRANCH   1   2
BRANCH   1  16
ATOM     15  C   LIG    1       -2.098  -0.707  -1.730  0.00  0.00    +0.030 C 
ATOM     16  C   LIG    1       -3.013   0.420  -1.248  0.00  0.00    +0.010 C 
ENDBRANCH   1  16
BRANCH   1  17
ATOM     17  C   LIG    1       -3.643   1.831   0.716  0.00  0.00    +0.260 C 
BRANCH  17  18
ATOM     18  N   LIG    1       -3.226   2.276   2.048  0.00  0.00    -0.730 N 
ATOM     19  H   LIG    1       -2.425   1.909   2.453  0.00  0.00    +0.400 HD
ATOM     20  C   LIG    1       -3.956   3.195   2.710  0.00  0.00    +0.540 C 
ATOM     21  O   LIG    1       -4.957   3.654   2.203  0.00  0.00    -0.530 OA
BRANCH  20  22
ATOM     22  C   LIG    1       -3.527   3.653   4.080  0.00  0.00    -0.010 C 
ATOM     23  C   LIG    1       -4.764   4.021   4.926  0.00  0.00    +0.050 C 
ATOM     24  C   LIG    1       -4.307   5.248   5.753  0.00  0.00    +0.020 C 
ATOM     25  C   LIG    1       -3.425   6.029   4.748  0.00  0.00    -0.010 C 
ATOM     26  C   LIG    1       -2.676   4.930   3.967  0.00  0.00    +0.180 C 
BRANCH  26  27
ATOM     27  O   LIG    1       -2.541   5.308   2.596  0.00  0.00    -0.560 OA
ATOM     28  H   LIG    1       -2.014   6.108   2.458  0.00  0.00    +0.380 HD
ENDBRANCH  26  27
ENDBRANCH  20  22
ENDBRANCH  17  18
ENDBRANCH   1  17
TORSDOF 9
