REMARK  Name = ZINCtV00000L6jCi.0
REMARK                            x       y       z     vdW  Elec       q    Type
REMARK                         _______ _______ _______ _____ _____    ______ ____
ROOT
ATOM      1  C   LIG    1       -3.100   1.747  -1.103  0.00  0.00    +0.520 C 
ATOM      2  N   LIG    1       -3.419   3.050  -1.230  0.00  0.00    -0.730 N 
ATOM      3  H   LIG    1       -3.449   3.620  -0.446  0.00  0.00    +0.400 HD
ATOM      4  O   LIG    1       -3.063   1.034  -2.084  0.00  0.00    -0.520 OA
ENDROOT
BRANCH   2   5
ATOM      5  C   LIG    1       -3.721   3.606  -2.551  0.00  0.00    +0.290 C 
ATOM      6  C   LIG    1       -2.418   4.009  -3.245  0.00  0.00    +0.040 C 
BRANCH   5   7
ATOM      7  C   LIG    1       -4.603   4.818  -2.397  0.00  0.00    -0.090 A 
ATOM      8  C   LIG    1       -4.374   5.714  -1.370  0.00  0.00    +0.050 A 
ATOM      9  C   LIG    1       -5.183   6.826  -1.229  0.00  0.00    +0.030 A 
ATOM     10  C   LIG    1       -6.221   7.042  -2.115  0.00  0.00    +0.070 A 
ATOM     11  C   LIG    1       -6.451   6.146  -3.143  0.00  0.00    -0.180 A 
ATOM     12  C   LIG    1       -5.639   5.037  -3.287  0.00  0.00    +0.080 A 
BRANCH  11  13
ATOM     13  C   LIG    1       -7.583   6.381  -4.110  0.00  0.00    +0.510 C 
ATOM     14  F   LIG    1       -8.475   5.305  -4.054  0.00  0.00    -0.170 F 
ATOM     15  F   LIG    1       -7.072   6.497  -5.407  0.00  0.00    -0.170 F 
ATOM     16  F   LIG    1       -8.252   7.560  -3.765  0.00  0.00    -0.180 F 
ENDBRANCH  11  13
ENDBRANCH   5   7
ENDBRANCH   2   5
BRANCH   1  17
ATOM     17  C   LIG    1       -2.790   1.175   0.256  0.00  0.00    +0.170 C 
BRANCH  17  19
ATOM     18  C   LIG    1       -1.235  -0.826   0.026  0.00  0.00    +0.150 A 
ATOM     19  C   LIG    1       -2.468  -0.291   0.123  0.00  0.00    -0.200 A 
ATOM     20  S   LIG    1       -3.636  -1.609   0.067  0.00  0.00    +0.150 S 
ATOM     21  C   LIG    1       -2.366  -2.744  -0.081  0.00  0.00    +0.050 A 
ATOM     22  C   LIG    1       -2.556  -4.235  -0.192  0.00  0.00    +0.180 C 
ATOM     23  N   LIG    1       -1.225  -2.145  -0.087  0.00  0.00    -0.460 NA
BRANCH  18  27
ATOM     24  C   LIG    1        1.757   2.981  -1.370  0.00  0.00    +0.140 C 
ATOM     25  C   LIG    1        1.340   1.741  -0.622  0.00  0.00    -0.180 A 
ATOM     26  C   LIG    1        0.168   1.125  -0.758  0.00  0.00    +0.020 A 
ATOM     27  C   LIG    1        0.004  -0.007   0.038  0.00  0.00    -0.040 A 
ATOM     28  C   LIG    1        1.060  -0.297   0.819  0.00  0.00    -0.150 A 
ATOM     29  C   LIG    1        1.143  -1.462   1.771  0.00  0.00    +0.140 C 
ATOM     30  S   LIG    1        2.328   0.893   0.559  0.00  0.00    +0.120 S 
ENDBRANCH  18  27
ENDBRANCH  17  19
ENDBRANCH   1  17
TORSDOF 6
