REMARK  Name = ZINCbu0000000GKK.0
REMARK                            x       y       z     vdW  Elec       q    Type
REMARK                         _______ _______ _______ _____ _____    ______ ____
ROOT
ATOM      1  C   LIG    1        2.397   5.262   0.007  0.00  0.00    -0.120 C 
ATOM      2  C   LIG    1        2.420   3.936   0.000  0.00  0.00    +0.120 C 
ENDROOT
BRANCH   2   3
ATOM      3  C   LIG    1        1.153   3.176   0.008  0.00  0.00    -0.090 A 
ATOM      4  C   LIG    1        1.173   1.780   0.000  0.00  0.00    +0.060 A 
ATOM      5  C   LIG    1       -0.013   1.076   0.008  0.00  0.00    +0.050 A 
ATOM      6  C   LIG    1       -1.222   1.750   0.017  0.00  0.00    -0.070 A 
ATOM      7  C   LIG    1       -1.248   3.134   0.030  0.00  0.00    +0.050 A 
ATOM      8 BR   LIG    1       -2.843   0.777   0.020  0.00  0.00    -0.030 Br
ATOM      9  C   LIG    1       -0.069   3.850   0.022  0.00  0.00    +0.040 A 
ENDBRANCH   2   3
BRANCH   1  10
ATOM     10  C   LIG    1        3.689   6.038  -0.001  0.00  0.00    +0.310 C 
BRANCH  10  11
ATOM     11  N   LIG    1        3.690   6.976  -1.131  0.00  0.00    -0.640 N 
ATOM     12  H   LIG    1        3.601   6.463  -1.994  0.00  0.00    +0.440 HD
ATOM     13  H   LIG    1        4.555   7.496  -1.136  0.00  0.00    +0.440 HD
ATOM     14  H   LIG    1        2.915   7.615  -1.037  0.00  0.00    +0.440 HD
ENDBRANCH  10  11
ENDBRANCH   1  10
TORSDOF 3
