REMARK  Name = ZINCrD0000073BMh.0
REMARK                            x       y       z     vdW  Elec       q    Type
REMARK                         _______ _______ _______ _____ _____    ______ ____
ROOT
ATOM      1  N   LIG    1       -5.467   7.423  -1.488  0.00  0.00    -0.630 N 
ATOM      2  H   LIG    1       -4.524   7.650  -1.513  0.00  0.00    +0.430 HD
ATOM      3  C   LIG    1       -5.849   6.133  -1.417  0.00  0.00    +0.520 C 
ATOM      4  O   LIG    1       -7.028   5.850  -1.386  0.00  0.00    -0.460 OA
ENDROOT
BRANCH   1  10
ATOM      5  C   LIG    1       -9.848  11.760  -1.649  0.00  0.00    +0.140 A 
ATOM      6  C   LIG    1      -10.564  10.569  -1.579  0.00  0.00    -0.040 A 
ATOM      7  C   LIG    1       -9.910   9.364  -1.526  0.00  0.00    +0.120 A 
ATOM      8  C   LIG    1       -8.500   9.314  -1.542  0.00  0.00    +0.070 A 
ATOM      9  N   LIG    1       -7.694   8.232  -1.504  0.00  0.00    -0.460 NA
ATOM     10  C   LIG    1       -6.422   8.427  -1.526  0.00  0.00    +0.330 A 
ATOM     11  S   LIG    1       -6.068  10.147  -1.619  0.00  0.00    +0.080 S 
ATOM     12  C   LIG    1       -7.790  10.516  -1.614  0.00  0.00    -0.140 A 
ATOM     13  C   LIG    1       -8.467  11.733  -1.667  0.00  0.00    +0.030 A 
BRANCH   5  15
ATOM     14  C   LIG    1      -11.934  12.900  -1.680  0.00  0.00    +0.240 C 
ATOM     15  O   LIG    1      -10.507  12.948  -1.702  0.00  0.00    -0.310 OA
ENDBRANCH   5  15
ENDBRANCH   1  10
BRANCH   3  16
ATOM     16  C   LIG    1       -4.811   5.041  -1.376  0.00  0.00    -0.010 C 
ATOM     17  C   LIG    1       -5.503   3.679  -1.293  0.00  0.00    +0.060 C 
ATOM     18  C   LIG    1       -4.450   2.569  -1.284  0.00  0.00    +0.030 C 
ATOM     19  C   LIG    1       -3.553   2.731  -0.059  0.00  0.00    +0.290 C 
ATOM     20  N   LIG    1       -2.997   4.091  -0.049  0.00  0.00    -0.600 N 
ATOM     21  C   LIG    1       -1.666   4.288   0.041  0.00  0.00    +0.610 C 
ATOM     22  O   LIG    1       -1.223   5.419   0.118  0.00  0.00    -0.520 OA
ATOM     23  C   LIG    1       -3.918   5.231  -0.145  0.00  0.00    +0.300 C 
BRANCH  21  24
ATOM     24  C   LIG    1       -0.753   3.140   0.046  0.00  0.00    -0.090 A 
ATOM     25  C   LIG    1        0.610   3.199  -0.000  0.00  0.00    +0.050 A 
ATOM     26  C   LIG    1        1.072   1.874   0.025  0.00  0.00    -0.060 A 
ATOM     27  C   LIG    1       -0.015   1.074   0.085  0.00  0.00    +0.200 A 
ATOM     28  O   LIG    1       -1.114   1.841   0.092  0.00  0.00    -0.160 OA
ENDBRANCH  21  24
ENDBRANCH   3  16
TORSDOF 4
