REMARK  Name = ZINCrH00000No4Ds.0
REMARK                            x       y       z     vdW  Elec       q    Type
REMARK                         _______ _______ _______ _____ _____    ______ ____
ROOT
ATOM      1  C   LIG    1       -1.256   3.143   0.031  0.00  0.00    -0.040 A 
ATOM      2  C   LIG    1       -0.042   3.857   0.022  0.00  0.00    -0.080 A 
ATOM      3  C   LIG    1        1.179   3.163   0.007  0.00  0.00    +0.040 A 
ATOM      4  O   LIG    1        2.167   4.085   0.002  0.00  0.00    -0.180 OA
ATOM      5  C   LIG    1        1.661   5.328   0.011  0.00  0.00    +0.050 A 
ATOM      6  C   LIG    1        2.441   6.623   0.004  0.00  0.00    +0.140 C 
ATOM      7  C   LIG    1        1.497   7.758  -0.409  0.00  0.00    +0.030 C 
ATOM      8  C   LIG    1        0.224   7.699   0.441  0.00  0.00    +0.020 C 
ATOM      9  C   LIG    1       -0.597   6.467   0.040  0.00  0.00    +0.100 C 
ATOM     10  C   LIG    1        1.177   1.774   0.000  0.00  0.00    +0.070 A 
ATOM     11  C   LIG    1       -0.013   1.076   0.008  0.00  0.00    +0.020 A 
ATOM     12  C   LIG    1        0.317   5.270   0.025  0.00  0.00    -0.180 A 
ATOM     13  C   LIG    1       -1.228   1.745   0.017  0.00  0.00    +0.140 A 
ENDROOT
BRANCH   1  15
ATOM     14  N   LIG    1       -3.656   3.195   0.055  0.00  0.00    -0.200 NA
ATOM     15  C   LIG    1       -2.539   3.861   0.047  0.00  0.00    +0.220 C 
BRANCH  14  17
ATOM     16  C   LIG    1       -6.036   3.189   0.079  0.00  0.00    +0.580 C 
ATOM     17  N   LIG    1       -4.879   3.879   0.070  0.00  0.00    -0.580 N 
ATOM     18  H   LIG    1       -4.892   4.849   0.075  0.00  0.00    +0.380 HD
ATOM     19  O   LIG    1       -6.019   1.973   0.073  0.00  0.00    -0.500 OA
BRANCH  16  23
ATOM     20  C   LIG    1       -9.743   5.261   0.126  0.00  0.00    +0.160 A 
ATOM     21  C   LIG    1       -9.726   3.871   0.119  0.00  0.00    -0.020 A 
ATOM     22  C   LIG    1       -8.526   3.195   0.104  0.00  0.00    +0.140 A 
ATOM     23  C   LIG    1       -7.324   3.909   0.095  0.00  0.00    -0.180 A 
ATOM     24  C   LIG    1       -7.346   5.306   0.108  0.00  0.00    +0.090 A 
ATOM     25  C   LIG    1       -8.550   5.974   0.117  0.00  0.00    -0.080 A 
BRANCH  20  27
ATOM     26  C   LIG    1      -10.872   7.351   0.147  0.00  0.00    +0.250 C 
ATOM     27  O   LIG    1      -10.927   5.923   0.141  0.00  0.00    -0.310 OA
ENDBRANCH  20  27
ENDBRANCH  16  23
ENDBRANCH  14  17
ENDBRANCH   1  15
BRANCH  13  28
ATOM     28  O   LIG    1       -2.391   1.042   0.019  0.00  0.00    -0.470 OA
ATOM     29  H   LIG    1       -2.724   0.834   0.903  0.00  0.00    +0.390 HD
ENDBRANCH  13  28
TORSDOF 5
