REMARK  Name = ZINCvU0000000Ho1.0
REMARK                            x       y       z     vdW  Elec       q    Type
REMARK                         _______ _______ _______ _____ _____    ______ ____
ROOT
ATOM      1  N   LIG    1        2.407   1.043  -0.015  0.00  0.00    -0.970 NA
ENDROOT
BRANCH   1   2
ATOM      2  S   LIG    1        3.137   0.602   1.404  0.00  0.00    +2.690 S 
ATOM      3  O   LIG    1        2.869   1.643   2.333  0.00  0.00    -0.950 OA
ATOM      4  O   LIG    1        4.451   0.182   1.065  0.00  0.00    -0.940 OA
BRANCH   2   5
ATOM      5  C   LIG    1        2.296  -0.827   2.001  0.00  0.00    -0.660 A 
ATOM      6  C   LIG    1        1.212  -0.687   2.847  0.00  0.00    +0.160 A 
ATOM      7  C   LIG    1        0.548  -1.807   3.312  0.00  0.00    +0.030 A 
ATOM      8  C   LIG    1        0.975  -3.069   2.939  0.00  0.00    +0.020 A 
ATOM      9  C   LIG    1        2.065  -3.209   2.096  0.00  0.00    -0.050 A 
ATOM     10 CL   LIG    1        2.602  -4.791   1.627  0.00  0.00    -0.040 Cl
ATOM     11 CL   LIG    1        0.146  -4.476   3.529  0.00  0.00    -0.030 Cl
ATOM     12  C   LIG    1        2.725  -2.087   1.628  0.00  0.00    +0.170 A 
ENDBRANCH   2   5
ENDBRANCH   1   2
BRANCH   1  13
ATOM     13  C   LIG    1        1.280   1.980   0.001  0.00  0.00    +0.340 C 
BRANCH  13  16
ATOM     14  N   LIG    1       -1.191   1.867   0.018  0.00  0.00    -0.720 N 
ATOM     15  H   LIG    1       -1.204   2.837   0.023  0.00  0.00    +0.400 HD
ATOM     16  C   LIG    1       -0.014   1.209   0.009  0.00  0.00    +0.490 C 
ATOM     17  O   LIG    1        0.002  -0.004   0.002  0.00  0.00    -0.520 OA
BRANCH  14  19
ATOM     18  C   LIG    1       -2.816   0.740   1.456  0.00  0.00    +0.030 C 
ATOM     19  C   LIG    1       -2.449   1.117   0.020  0.00  0.00    +0.290 C 
BRANCH  19  20
ATOM     20  C   LIG    1       -3.543   1.969  -0.571  0.00  0.00    -0.090 A 
ATOM     21  C   LIG    1       -3.610   3.316  -0.266  0.00  0.00    +0.000 A 
ATOM     22  C   LIG    1       -4.610   4.099  -0.811  0.00  0.00    +0.000 A 
ATOM     23  C   LIG    1       -5.549   3.533  -1.654  0.00  0.00    +0.000 A 
ATOM     24  C   LIG    1       -5.484   2.186  -1.955  0.00  0.00    +0.010 A 
ATOM     25  C   LIG    1       -4.481   1.404  -1.413  0.00  0.00    +0.010 A 
ENDBRANCH  19  20
ENDBRANCH  14  19
ENDBRANCH  13  16
ENDBRANCH   1  13
BRANCH   1  26
ATOM     26  C   LIG    1        2.887   0.496  -1.287  0.00  0.00    +0.350 C 
BRANCH  26  27
ATOM     27  C   LIG    1        3.866   1.458  -1.909  0.00  0.00    -0.120 A 
ATOM     28  C   LIG    1        3.416   2.440  -2.773  0.00  0.00    +0.020 A 
ATOM     29  C   LIG    1        4.313   3.325  -3.340  0.00  0.00    -0.010 A 
ATOM     30  C   LIG    1        5.661   3.223  -3.052  0.00  0.00    +0.010 A 
ATOM     31  C   LIG    1        6.112   2.238  -2.193  0.00  0.00    +0.000 A 
ATOM     32  C   LIG    1        5.214   1.356  -1.622  0.00  0.00    +0.040 A 
ENDBRANCH  26  27
ENDBRANCH   1  26
TORSDOF 8
