REMARK  Name = ZINC650000002hn9.0
REMARK                            x       y       z     vdW  Elec       q    Type
REMARK                         _______ _______ _______ _____ _____    ______ ____
ROOT
ATOM      1  C   LIG    1       -0.731   1.580   1.266  0.00  0.00    +0.250 C 
ATOM      2  C   LIG    1       -0.013   1.086   0.008  0.00  0.00    +0.250 C 
ATOM      3  O   LIG    1       -0.706   1.560  -1.149  0.00  0.00    -0.360 OA
ATOM      4  C   LIG    1       -0.821   2.985  -1.206  0.00  0.00    +0.250 C 
ATOM      5  C   LIG    1       -1.542   3.483   0.050  0.00  0.00    +0.250 C 
ATOM      6  N   LIG    1       -0.801   3.048   1.242  0.00  0.00    -0.510 N 
ATOM      7  H   LIG    1       -1.275   3.376   2.070  0.00  0.00    +0.440 HD
ATOM      8  H   LIG    1        0.133   3.429   1.216  0.00  0.00    +0.430 HD
ENDROOT
TORSDOF 0
