REMARK  Name = ZINCpe00000MJKjz.0
REMARK                            x       y       z     vdW  Elec       q    Type
REMARK                         _______ _______ _______ _____ _____    ______ ____
ROOT
ATOM      1  O   LIG    1       -3.406   1.616   1.834  0.00  0.00    -0.490 OA
ATOM      2  C   LIG    1       -2.341   1.036   1.821  0.00  0.00    +0.510 C 
ATOM      3  N   LIG    1       -2.266  -0.244   2.234  0.00  0.00    -0.660 N 
ATOM      4  H   LIG    1       -1.402  -0.679   2.313  0.00  0.00    +0.420 HD
ENDROOT
BRANCH   2   5
ATOM      5  C   LIG    1       -1.101   1.748   1.344  0.00  0.00    +0.040 C 
ATOM      6  C   LIG    1       -1.261   2.129  -0.141  0.00  0.00    -0.280 C 
ATOM      7  S   LIG    1       -1.961   3.819  -0.129  0.00  0.00    +2.410 S 
ATOM      8  C   LIG    1       -1.978   4.041   1.690  0.00  0.00    -0.270 C 
ATOM      9  O   LIG    1       -3.296   3.780  -0.614  0.00  0.00    -0.910 OA
ATOM     10  O   LIG    1       -1.025   4.720  -0.705  0.00  0.00    -0.920 OA
ATOM     11  C   LIG    1       -0.896   3.036   2.163  0.00  0.00    +0.040 C 
BRANCH  11  12
ATOM     12  C   LIG    1       -1.070   2.742   3.654  0.00  0.00    +0.460 C 
ATOM     13  F   LIG    1       -1.006   3.939   4.376  0.00  0.00    -0.170 F 
ATOM     14  F   LIG    1       -0.051   1.884   4.082  0.00  0.00    -0.180 F 
ATOM     15  F   LIG    1       -2.312   2.134   3.868  0.00  0.00    -0.160 F 
ENDBRANCH  11  12
ENDBRANCH   2   5
BRANCH   3  16
ATOM     16  C   LIG    1       -3.434  -0.948   2.548  0.00  0.00    +0.120 A 
ATOM     17  C   LIG    1       -3.432  -1.901   3.558  0.00  0.00    +0.290 A 
ATOM     18  N   LIG    1       -4.529  -2.564   3.863  0.00  0.00    -0.430 NA
ATOM     19  C   LIG    1       -5.664  -2.362   3.223  0.00  0.00    +0.310 A 
ATOM     20  C   LIG    1       -5.747  -1.429   2.198  0.00  0.00    +0.020 A 
ATOM     21  C   LIG    1       -4.613  -0.705   1.849  0.00  0.00    +0.090 A 
BRANCH  20  22
ATOM     22  O   LIG    1       -6.921  -1.227   1.545  0.00  0.00    -0.650 OA
BRANCH  22  23
ATOM     23  S   LIG    1       -7.112  -2.117   0.325  0.00  0.00    +2.740 S 
ATOM     24  F   LIG    1       -6.302  -1.440  -0.891  0.00  0.00    -0.480 F 
ATOM     25  O   LIG    1       -8.489  -2.038  -0.018  0.00  0.00    -0.910 OA
ATOM     26  O   LIG    1       -6.452  -3.342   0.615  0.00  0.00    -0.940 OA
ENDBRANCH  22  23
ENDBRANCH  20  22
ENDBRANCH   3  16
TORSDOF 5
