REMARK  Name = ZINCrH00000tj11i.0
REMARK                            x       y       z     vdW  Elec       q    Type
REMARK                         _______ _______ _______ _____ _____    ______ ____
ROOT
ATOM      1  C   LIG    1       -2.924   6.517  -1.500  0.00  0.00    +0.350 C 
ATOM      2  N   LIG    1       -2.231   5.721  -0.484  0.00  0.00    -0.550 N 
ATOM      3  C   LIG    1       -1.568   6.345   0.501  0.00  0.00    +0.570 C 
ATOM      4  N   LIG    1       -0.903   5.682   1.458  0.00  0.00    -0.580 N 
ATOM      5  C   LIG    1       -0.872   4.219   1.489  0.00  0.00    +0.320 C 
ATOM      6  C   LIG    1       -1.001   3.682   0.060  0.00  0.00    -0.020 C 
ATOM      7  C   LIG    1       -0.193   6.437   2.493  0.00  0.00    +0.340 C 
ATOM      8  S   LIG    1       -1.572   8.057   0.538  0.00  0.00    -0.610 S 
ATOM      9  C   LIG    1       -2.276   4.260  -0.565  0.00  0.00    +0.320 C 
ENDROOT
BRANCH   9  10
ATOM     10  C   LIG    1       -2.365   3.837  -2.009  0.00  0.00    -0.120 A 
ATOM     11  C   LIG    1       -1.637   4.510  -2.972  0.00  0.00    +0.030 A 
ATOM     12  C   LIG    1       -1.716   4.119  -4.296  0.00  0.00    +0.010 A 
ATOM     13  C   LIG    1       -2.530   3.062  -4.657  0.00  0.00    +0.030 A 
ATOM     14  C   LIG    1       -3.263   2.393  -3.694  0.00  0.00    +0.010 A 
ATOM     15  C   LIG    1       -3.180   2.781  -2.370  0.00  0.00    +0.050 A 
ENDBRANCH   9  10
BRANCH   5  16
ATOM     16  C   LIG    1        0.451   3.747   2.095  0.00  0.00    +0.420 C 
ATOM     17  F   LIG    1        0.438   2.353   2.216  0.00  0.00    -0.140 F 
ATOM     18  F   LIG    1        0.618   4.323   3.359  0.00  0.00    -0.160 F 
ATOM     19  F   LIG    1        1.509   4.132   1.264  0.00  0.00    -0.150 F 
ENDBRANCH   5  16
BRANCH   6  20
ATOM     20  C   LIG    1       -1.089   2.178   0.090  0.00  0.00    +0.450 C 
ATOM     21  O   LIG    1       -2.174   1.633   0.081  0.00  0.00    -0.410 OA
BRANCH  20  22
ATOM     22  C   LIG    1        0.091   1.402   0.128  0.00  0.00    -0.320 A 
ATOM     23  C   LIG    1        0.142   0.032   0.157  0.00  0.00    +0.140 A 
ATOM     24  C   LIG    1        1.422  -0.462   0.185  0.00  0.00    -0.010 A 
ATOM     25  C   LIG    1        2.390   0.465   0.179  0.00  0.00    -0.050 A 
ATOM     26  S   LIG    1        1.730   2.038   0.137  0.00  0.00    +0.240 S 
ENDBRANCH  20  22
ENDBRANCH   6  20
BRANCH   5  27
ATOM     27  O   LIG    1       -1.959   3.735   2.281  0.00  0.00    -0.510 OA
ATOM     28  H   LIG    1       -1.941   4.036   3.200  0.00  0.00    +0.400 HD
ENDBRANCH   5  27
TORSDOF 5
