REMARK  Name = ZINCvU0000000HUX.0
REMARK                            x       y       z     vdW  Elec       q    Type
REMARK                         _______ _______ _______ _____ _____    ______ ____
ROOT
ATOM      1  C   LIG    1       -7.686   4.098   0.078  0.00  0.00    +0.360 A 
ATOM      2  N   LIG    1       -7.405   5.376   0.136  0.00  0.00    -0.530 NA
ATOM      3  C   LIG    1       -8.256   6.311  -0.347  0.00  0.00    +0.180 A 
ATOM      4  C   LIG    1       -7.955   7.674  -0.290  0.00  0.00    +0.040 A 
ATOM      5  C   LIG    1       -8.855   8.590  -0.788  0.00  0.00    +0.010 A 
ATOM      6  C   LIG    1      -10.058   8.174  -1.347  0.00  0.00    +0.020 A 
ATOM      7  C   LIG    1      -10.375   6.846  -1.414  0.00  0.00    +0.130 A 
ATOM      8 CL   LIG    1       -8.483  10.284  -0.718  0.00  0.00    -0.050 Cl
ATOM      9  C   LIG    1       -9.483   5.898  -0.917  0.00  0.00    -0.200 A 
ATOM     10  C   LIG    1       -9.775   4.459  -0.965  0.00  0.00    +0.560 A 
ATOM     11  O   LIG    1      -10.814   4.043  -1.443  0.00  0.00    -0.480 OA
ATOM     12  N   LIG    1       -8.848   3.614  -0.457  0.00  0.00    -0.490 N 
ENDROOT
BRANCH  12  13
ATOM     13  C   LIG    1       -9.081   2.233  -0.479  0.00  0.00    +0.090 A 
ATOM     14  C   LIG    1       -8.448   1.436  -1.423  0.00  0.00    +0.060 A 
ATOM     15  C   LIG    1       -8.675   0.073  -1.440  0.00  0.00    +0.050 A 
ATOM     16  C   LIG    1       -9.542  -0.496  -0.524  0.00  0.00    -0.010 A 
ATOM     17  C   LIG    1      -10.179   0.297   0.415  0.00  0.00    +0.050 A 
ATOM     18 CL   LIG    1       -9.832  -2.207  -0.552  0.00  0.00    -0.050 Cl
ATOM     19  C   LIG    1       -9.951   1.659   0.439  0.00  0.00    +0.070 A 
ENDBRANCH  12  13
BRANCH   1  20
ATOM     20  S   LIG    1       -6.517   2.949   0.724  0.00  0.00    +0.100 S 
BRANCH  20  21
ATOM     21  C   LIG    1       -5.227   4.092   1.278  0.00  0.00    +0.120 C 
BRANCH  21  23
ATOM     22  O   LIG    1       -4.146   2.100   1.937  0.00  0.00    -0.500 OA
ATOM     23  C   LIG    1       -4.090   3.310   1.884  0.00  0.00    +0.540 C 
ATOM     24  N   LIG    1       -3.011   3.956   2.368  0.00  0.00    -0.650 N 
ATOM     25  H   LIG    1       -2.998   4.926   2.395  0.00  0.00    +0.420 HD
BRANCH  24  26
ATOM     26  C   LIG    1       -1.908   3.228   2.831  0.00  0.00    +0.110 A 
ATOM     27  C   LIG    1       -2.064   1.921   3.281  0.00  0.00    +0.100 A 
ATOM     28  C   LIG    1       -0.944   1.242   3.736  0.00  0.00    +0.010 A 
ATOM     29  C   LIG    1        0.283   1.877   3.718  0.00  0.00    +0.270 A 
ATOM     30  N   LIG    1        0.400   3.116   3.281  0.00  0.00    -0.460 NA
ATOM     31  C   LIG    1       -0.641   3.799   2.844  0.00  0.00    +0.150 A 
ATOM     32 CL   LIG    1       -0.425   5.427   2.281  0.00  0.00    -0.030 Cl
ENDBRANCH  24  26
ENDBRANCH  21  23
ENDBRANCH  20  21
ENDBRANCH   1  20
TORSDOF 5
