REMARK  Name = ZINCrH000004ryhx.0
REMARK                            x       y       z     vdW  Elec       q    Type
REMARK                         _______ _______ _______ _____ _____    ______ ____
ROOT
ATOM      1  N   LIG    1       -1.243  -2.111   0.003  0.00  0.00    -0.720 N 
ATOM      2  H   LIG    1       -0.396  -2.583  -0.008  0.00  0.00    +0.400 HD
ATOM      3  C   LIG    1       -1.265  -0.764   0.011  0.00  0.00    +0.560 C 
ATOM      4  O   LIG    1       -2.328  -0.173   0.024  0.00  0.00    -0.500 OA
ENDROOT
BRANCH   3   5
ATOM      5  C   LIG    1        0.002  -0.004   0.002  0.00  0.00    -0.150 A 
ATOM      6  C   LIG    1        1.224  -0.679  -0.013  0.00  0.00    +0.170 A 
ATOM      7  C   LIG    1        2.404   0.036  -0.021  0.00  0.00    -0.690 A 
ATOM      8  C   LIG    1        2.378   1.420  -0.013  0.00  0.00    +0.180 A 
ATOM      9  C   LIG    1        1.172   2.096   0.002  0.00  0.00    +0.010 A 
ATOM     10  C   LIG    1       -0.017   1.393   0.010  0.00  0.00    +0.060 A 
ATOM     11 CL   LIG    1       -1.530   2.243   0.021  0.00  0.00    -0.010 Cl
BRANCH   7  12
ATOM     12  S   LIG    1        3.946  -0.814  -0.040  0.00  0.00    +2.690 S 
ATOM     13  O   LIG    1        3.700  -2.106   0.500  0.00  0.00    -0.950 OA
ATOM     14  O   LIG    1        4.906   0.083   0.500  0.00  0.00    -0.940 OA
BRANCH  12  15
ATOM     15  N   LIG    1        4.361  -1.043  -1.627  0.00  0.00    -1.000 NA
ATOM     16  C   LIG    1        3.931  -2.255  -2.329  0.00  0.00    +0.310 C 
ATOM     17  C   LIG    1        5.156  -0.032  -2.329  0.00  0.00    +0.310 C 
ENDBRANCH  12  15
ENDBRANCH   7  12
ENDBRANCH   3   5
BRANCH   1  18
ATOM     18  C   LIG    1       -2.500  -2.864   0.011  0.00  0.00    +0.320 C 
BRANCH  18  23
ATOM     19  C   LIG    1       -1.592  -8.102   2.276  0.00  0.00    +0.090 C 
ATOM     20  C   LIG    1       -1.829  -6.737   1.686  0.00  0.00    -0.080 A 
ATOM     21  C   LIG    1       -2.982  -6.041   1.994  0.00  0.00    +0.000 A 
ATOM     22  C   LIG    1       -3.200  -4.788   1.452  0.00  0.00    +0.030 A 
ATOM     23  C   LIG    1       -2.263  -4.230   0.602  0.00  0.00    -0.100 A 
ATOM     24  C   LIG    1       -1.111  -4.928   0.290  0.00  0.00    +0.010 A 
ATOM     25  C   LIG    1       -0.892  -6.179   0.835  0.00  0.00    +0.010 A 
ENDBRANCH  18  23
BRANCH  18  26
ATOM     26  C   LIG    1       -3.016  -3.011  -1.421  0.00  0.00    -0.050 C 
ATOM     27  C   LIG    1       -2.090  -2.566  -2.555  0.00  0.00    +0.000 C 
ATOM     28  C   LIG    1       -3.319  -1.728  -2.198  0.00  0.00    +0.030 C 
ENDBRANCH  18  26
ENDBRANCH   1  18
TORSDOF 6
