REMARK  Name = ZINCtV00000L6jnJ.1
REMARK                            x       y       z     vdW  Elec       q    Type
REMARK                         _______ _______ _______ _____ _____    ______ ____
ROOT
ATOM      1  C   LIG    1        2.558   3.819  -0.002  0.00  0.00    +0.540 C 
ATOM      2  N   LIG    1        1.313   3.303   0.007  0.00  0.00    -0.610 N 
ATOM      3  H   LIG    1        0.544   3.894   0.018  0.00  0.00    +0.430 HD
ATOM      4  O   LIG    1        3.520   3.080  -0.015  0.00  0.00    -0.480 OA
ENDROOT
BRANCH   2   5
ATOM      5  C   LIG    1        1.131   1.926   0.002  0.00  0.00    +0.270 A 
ATOM      6  N   LIG    1       -0.016   1.321   0.009  0.00  0.00    -0.490 NA
ATOM      7  C   LIG    1        0.002  -0.004   0.002  0.00  0.00    +0.120 A 
ATOM      8  C   LIG    1        1.225  -0.564  -0.013  0.00  0.00    -0.100 A 
ATOM      9  S   LIG    1        2.423   0.729  -0.017  0.00  0.00    +0.220 S 
BRANCH   7  10
ATOM     10  C   LIG    1       -1.241  -0.814   0.009  0.00  0.00    -0.000 A 
ATOM     11  C   LIG    1       -1.168  -2.205  -0.005  0.00  0.00    +0.050 A 
ATOM     12  C   LIG    1       -2.327  -2.955   0.007  0.00  0.00    +0.050 A 
ATOM     13  C   LIG    1       -3.560  -2.327   0.022  0.00  0.00    -0.030 A 
ATOM     14  C   LIG    1       -3.638  -0.944   0.031  0.00  0.00    -0.030 A 
ATOM     15 CL   LIG    1       -5.189  -0.163   0.051  0.00  0.00    -0.040 Cl
ATOM     16 CL   LIG    1       -5.014  -3.276   0.031  0.00  0.00    -0.040 Cl
ATOM     17  C   LIG    1       -2.485  -0.185   0.024  0.00  0.00    +0.080 A 
ENDBRANCH   7  10
ENDBRANCH   2   5
BRANCH   1  18
ATOM     18  C   LIG    1        2.756   5.313   0.004  0.00  0.00    +0.040 C 
ATOM     19  C   LIG    1        2.712   5.827   1.445  0.00  0.00    +0.100 C 
BRANCH  18  20
ATOM     20  S   LIG    1        4.361   5.712  -0.730  0.00  0.00    +0.070 S 
BRANCH  20  27
ATOM     21  C   LIG    1        5.167  13.351  -1.303  0.00  0.00    +0.100 C 
ATOM     22  C   LIG    1        4.588  11.992  -1.005  0.00  0.00    -0.060 A 
ATOM     23  C   LIG    1        3.329  11.890  -0.434  0.00  0.00    +0.010 A 
ATOM     24  C   LIG    1        2.785  10.656  -0.155  0.00  0.00    +0.070 A 
ATOM     25  C   LIG    1        3.508   9.497  -0.449  0.00  0.00    +0.050 A 
ATOM     26  N   LIG    1        3.247   8.172  -0.301  0.00  0.00    -0.490 NA
ATOM     27  C   LIG    1        4.266   7.472  -0.735  0.00  0.00    +0.250 A 
ATOM     28  N   LIG    1        5.241   8.309  -1.198  0.00  0.00    -0.580 N 
ATOM     29  H   LIG    1        6.095   8.046  -1.576  0.00  0.00    +0.430 HD
ATOM     30  C   LIG    1        4.784   9.606  -1.027  0.00  0.00    +0.060 A 
ATOM     31  C   LIG    1        5.315  10.857  -1.301  0.00  0.00    +0.020 A 
ENDBRANCH  20  27
ENDBRANCH  18  20
ENDBRANCH   1  18
TORSDOF 5
