REMARK  Name = ZINCah0000003ZRF.1
REMARK                            x       y       z     vdW  Elec       q    Type
REMARK                         _______ _______ _______ _____ _____    ______ ____
ROOT
ATOM      1  C   LIG    1        4.096   1.881  -0.028  0.00  0.00    +0.440 A 
ATOM      2  C   LIG    1        3.373   3.074  -0.014  0.00  0.00    -0.120 A 
ATOM      3  C   LIG    1        2.005   3.033  -0.001  0.00  0.00    +0.150 A 
ATOM      4  C   LIG    1        1.380   1.782  -0.002  0.00  0.00    -0.210 A 
ATOM      5  C   LIG    1       -0.016   1.338   0.009  0.00  0.00    -0.030 A 
ATOM      6  C   LIG    1        0.002  -0.004   0.002  0.00  0.00    +0.220 A 
ATOM      7  N   LIG    1        1.297  -0.452  -0.013  0.00  0.00    -0.580 N 
ATOM      8  H   LIG    1        1.563  -1.385  -0.020  0.00  0.00    +0.420 HD
ATOM      9  C   LIG    1        2.163   0.614  -0.015  0.00  0.00    +0.330 A 
ATOM     10  N   LIG    1        3.488   0.708  -0.028  0.00  0.00    -0.570 NA
ENDROOT
BRANCH   1  11
ATOM     11  N   LIG    1        5.486   1.927  -0.041  0.00  0.00    -0.850 N 
ATOM     12  H   LIG    1        5.942   2.783  -0.041  0.00  0.00    +0.410 HD
ATOM     13  H   LIG    1        5.998   1.104  -0.051  0.00  0.00    +0.400 HD
ENDBRANCH   1  11
TORSDOF 1
