REMARK  Name = ZINCqH000000398V.0
REMARK                            x       y       z     vdW  Elec       q    Type
REMARK                         _______ _______ _______ _____ _____    ______ ____
ROOT
ATOM      1  C   LIG    1        2.072   1.422  -0.366  0.00  0.00    -0.770 A 
ATOM      2  C   LIG    1        2.017   0.045  -0.536  0.00  0.00    +0.200 A 
ATOM      3  C   LIG    1        0.783  -0.547  -0.731  0.00  0.00    -0.060 A 
ATOM      4  C   LIG    1       -0.356   0.251  -0.751  0.00  0.00    +0.370 A 
ATOM      5  N   LIG    1       -0.263   1.562  -0.585  0.00  0.00    -0.530 NA
ATOM      6  C   LIG    1        0.901   2.154  -0.396  0.00  0.00    +0.400 A 
ENDROOT
BRANCH   4   7
ATOM      7  N   LIG    1       -1.603  -0.332  -0.946  0.00  0.00    -0.480 N 
ATOM      8  C   LIG    1       -2.665   0.682  -0.931  0.00  0.00    +0.210 C 
ATOM      9  C   LIG    1       -4.030  -0.007  -1.002  0.00  0.00    -0.010 C 
ATOM     10  C   LIG    1       -4.110  -0.839  -2.285  0.00  0.00    +0.020 C 
ATOM     11  C   LIG    1       -2.964  -1.854  -2.298  0.00  0.00    -0.010 C 
ATOM     12  C   LIG    1       -3.001  -2.651  -3.604  0.00  0.00    +0.030 C 
ATOM     13  C   LIG    1       -5.136   1.050  -1.009  0.00  0.00    +0.030 C 
ATOM     14  C   LIG    1       -1.630  -1.112  -2.189  0.00  0.00    +0.200 C 
ENDBRANCH   4   7
BRANCH   1  15
ATOM     15  S   LIG    1        3.618   2.228  -0.113  0.00  0.00    +2.690 S 
ATOM     16  O   LIG    1        4.502   1.245   0.410  0.00  0.00    -0.940 OA
ATOM     17  O   LIG    1        3.331   3.448   0.555  0.00  0.00    -0.940 OA
BRANCH  15  18
ATOM     18  N   LIG    1        4.207   2.638  -1.605  0.00  0.00    -0.950 N 
BRANCH  18  19
ATOM     19  C   LIG    1        5.114   1.797  -2.254  0.00  0.00    +0.140 A 
ATOM     20  C   LIG    1        4.793   1.248  -3.489  0.00  0.00    +0.000 A 
ATOM     21  C   LIG    1        5.695   0.421  -4.130  0.00  0.00    +0.020 A 
ATOM     22  C   LIG    1        6.911   0.131  -3.539  0.00  0.00    +0.010 A 
ATOM     23  C   LIG    1        7.231   0.671  -2.307  0.00  0.00    +0.020 A 
ATOM     24  C   LIG    1        6.336   1.504  -1.663  0.00  0.00    +0.030 A 
ENDBRANCH  18  19
BRANCH  18  26
ATOM     25  C   LIG    1        4.791   4.989  -1.944  0.00  0.00    +0.020 C 
ATOM     26  C   LIG    1        3.776   3.884  -2.245  0.00  0.00    +0.280 C 
ENDBRANCH  18  26
ENDBRANCH  15  18
ENDBRANCH   1  15
TORSDOF 5
