REMARK  Name = ZINCvU0000000736.0
REMARK                            x       y       z     vdW  Elec       q    Type
REMARK                         _______ _______ _______ _____ _____    ______ ____
ROOT
ATOM      1  C   LIG    1       -2.051   5.472  -1.163  0.00  0.00    +0.530 C 
ATOM      2  N   LIG    1       -1.552   6.571  -0.563  0.00  0.00    -0.550 N 
ATOM      3  C   LIG    1       -0.204   6.886  -0.758  0.00  0.00    +0.150 A 
ATOM      4  C   LIG    1        0.452   6.303  -1.840  0.00  0.00    -0.020 A 
ATOM      5  C   LIG    1        1.785   6.572  -2.077  0.00  0.00    +0.060 A 
ATOM      6  C   LIG    1        2.482   7.424  -1.240  0.00  0.00    +0.010 A 
ATOM      7  C   LIG    1        1.841   8.010  -0.166  0.00  0.00    +0.060 A 
ATOM      8  C   LIG    1        0.498   7.748   0.077  0.00  0.00    -0.120 A 
ATOM      9  S   LIG    1       -0.288   8.533   1.448  0.00  0.00    -0.100 S 
ATOM     10  C   LIG    1       -1.804   7.552   1.650  0.00  0.00    +0.110 C 
ATOM     11  C   LIG    1       -2.443   7.385   0.258  0.00  0.00    +0.290 C 
ATOM     12  O   LIG    1       -3.247   5.363  -1.330  0.00  0.00    -0.460 OA
ENDROOT
BRANCH  11  13
ATOM     13  C   LIG    1       -3.777   6.697   0.392  0.00  0.00    -0.060 A 
ATOM     14  C   LIG    1       -3.917   5.620   1.248  0.00  0.00    +0.000 A 
ATOM     15  C   LIG    1       -5.142   4.992   1.374  0.00  0.00    +0.010 A 
ATOM     16  C   LIG    1       -6.224   5.434   0.636  0.00  0.00    +0.010 A 
ATOM     17  C   LIG    1       -6.083   6.507  -0.224  0.00  0.00    +0.010 A 
ATOM     18  C   LIG    1       -4.859   7.138  -0.346  0.00  0.00    +0.040 A 
ENDBRANCH  11  13
BRANCH   1  19
ATOM     19  C   LIG    1       -1.123   4.378  -1.625  0.00  0.00    +0.120 C 
BRANCH  19  20
ATOM     20  S   LIG    1       -1.980   2.786  -1.545  0.00  0.00    +0.070 S 
BRANCH  20  23
ATOM     21  C   LIG    1       -1.937  -0.490  -1.990  0.00  0.00    +0.360 C 
ATOM     22  N   LIG    1       -0.782   0.365  -2.276  0.00  0.00    -0.460 N 
ATOM     23  C   LIG    1       -0.700   1.721  -2.123  0.00  0.00    +0.150 A 
ATOM     24  N   LIG    1        0.507   2.083  -2.492  0.00  0.00    -0.280 NA
ATOM     25  N   LIG    1        1.184   1.055  -2.864  0.00  0.00    -0.250 NA
ATOM     26  C   LIG    1        0.448  -0.029  -2.754  0.00  0.00    +0.260 A 
BRANCH  26  27
ATOM     27  C   LIG    1        0.861  -1.403  -3.080  0.00  0.00    +0.030 A 
ATOM     28  C   LIG    1        1.952  -1.758  -3.815  0.00  0.00    +0.030 A 
ATOM     29  C   LIG    1        1.962  -3.165  -3.873  0.00  0.00    -0.050 A 
ATOM     30  C   LIG    1        0.886  -3.597  -3.187  0.00  0.00    +0.200 A 
ATOM     31  O   LIG    1        0.222  -2.531  -2.709  0.00  0.00    -0.180 OA
ENDBRANCH  26  27
ENDBRANCH  20  23
ENDBRANCH  19  20
ENDBRANCH   1  19
TORSDOF 5
