REMARK  Name = ZINCtV000002BOWY.0
REMARK                            x       y       z     vdW  Elec       q    Type
REMARK                         _______ _______ _______ _____ _____    ______ ____
ROOT
ATOM      1  C   LIG    1        0.694   2.965   0.940  0.00  0.00    +0.310 C 
ATOM      2  C   LIG    1       -0.542   2.559   1.749  0.00  0.00    +0.020 C 
ATOM      3  C   LIG    1       -1.788   3.180   1.114  0.00  0.00    +0.030 C 
ATOM      4  C   LIG    1       -1.951   2.654  -0.314  0.00  0.00    -0.070 C 
ATOM      5  C   LIG    1       -0.732   3.061  -1.147  0.00  0.00    +0.300 C 
ATOM      6  C   LIG    1       -2.065   1.128  -0.286  0.00  0.00    +0.020 C 
ATOM      7  N   LIG    1        0.483   2.591  -0.465  0.00  0.00    -0.620 N 
ATOM      8  C   LIG    1        1.387   1.833  -1.117  0.00  0.00    +0.720 C 
ATOM      9  N   LIG    1        0.981   0.977  -2.076  0.00  0.00    -0.570 N 
ATOM     10  O   LIG    1        2.567   1.921  -0.840  0.00  0.00    -0.520 OA
ENDROOT
BRANCH   9  11
ATOM     11  C   LIG    1        1.717  -0.185  -2.333  0.00  0.00    +0.200 A 
ATOM     12  C   LIG    1        2.786  -0.527  -1.516  0.00  0.00    +0.010 A 
ATOM     13  C   LIG    1        3.507  -1.678  -1.768  0.00  0.00    +0.060 A 
ATOM     14  C   LIG    1        3.173  -2.484  -2.840  0.00  0.00    -0.010 A 
ATOM     15  C   LIG    1        2.111  -2.144  -3.660  0.00  0.00    -0.000 A 
ATOM     16 CL   LIG    1        1.694  -3.160  -5.005  0.00  0.00    -0.070 Cl
ATOM     17  C   LIG    1        1.382  -0.997  -3.409  0.00  0.00    -0.030 A 
ENDBRANCH   9  11
BRANCH   1  23
ATOM     18  C   LIG    1        3.091   2.943   1.678  0.00  0.00    +0.170 A 
ATOM     19  C   LIG    1        4.203   2.282   2.178  0.00  0.00    -0.080 A 
ATOM     20  C   LIG    1        4.133   0.932   2.463  0.00  0.00    +0.050 A 
ATOM     21  C   LIG    1        2.953   0.241   2.256  0.00  0.00    -0.040 A 
ATOM     22  C   LIG    1        1.841   0.899   1.764  0.00  0.00    +0.050 A 
ATOM     23  C   LIG    1        1.907   2.249   1.477  0.00  0.00    -0.110 A 
BRANCH  18  25
ATOM     24  C   LIG    1        4.411   4.920   1.622  0.00  0.00    +0.240 C 
ATOM     25  O   LIG    1        3.159   4.269   1.391  0.00  0.00    -0.310 OA
ENDBRANCH  18  25
ENDBRANCH   1  23
BRANCH   9  26
ATOM     26  C   LIG    1       -0.229   1.264  -2.850  0.00  0.00    +0.280 C 
BRANCH  26  27
ATOM     27  C   LIG    1       -0.065   2.599  -3.578  0.00  0.00    +0.350 C 
ATOM     28  F   LIG    1        1.034   2.528  -4.441  0.00  0.00    -0.190 F 
ATOM     29  F   LIG    1        0.143   3.618  -2.642  0.00  0.00    -0.170 F 
ENDBRANCH  26  27
ENDBRANCH   9  26
TORSDOF 5
