REMARK  Name = ZINCbw0000000Hbt.0
REMARK                            x       y       z     vdW  Elec       q    Type
REMARK                         _______ _______ _______ _____ _____    ______ ____
ROOT
ATOM      1  C   LIG    1        2.406   0.037  -0.021  0.00  0.00    -0.140 A 
ATOM      2  C   LIG    1        2.378   1.436  -0.013  0.00  0.00    +0.080 A 
ATOM      3  C   LIG    1        1.169   2.099   0.002  0.00  0.00    +0.060 A 
ATOM      4  C   LIG    1       -0.017   1.384   0.010  0.00  0.00    -0.050 A 
ATOM      5  C   LIG    1        0.002  -0.004   0.002  0.00  0.00    +0.100 A 
ATOM      6  F   LIG    1       -1.159  -0.694   0.009  0.00  0.00    -0.120 F 
ATOM      7 CL   LIG    1       -1.534   2.227   0.021  0.00  0.00    -0.040 Cl
ATOM      8  C   LIG    1        1.205  -0.680  -0.013  0.00  0.00    +0.070 A 
ENDROOT
BRANCH   1  10
ATOM      9  C   LIG    1        4.984   0.101  -0.044  0.00  0.00    +0.080 C 
ATOM     10  C   LIG    1        3.693  -0.675  -0.036  0.00  0.00    +0.400 C 
ATOM     11  O   LIG    1        3.714  -1.888  -0.043  0.00  0.00    -0.450 OA
ENDBRANCH   1  10
TORSDOF 1
