REMARK  Name = ZINCzw0000000dzt.0
REMARK                            x       y       z     vdW  Elec       q    Type
REMARK                         _______ _______ _______ _____ _____    ______ ____
ROOT
ATOM      1  C   LIG    1       -0.948   2.543   0.282  0.00  0.00    +0.620 C 
ATOM      2  N   LIG    1        0.004   1.591   0.219  0.00  0.00    -0.620 N 
ATOM      3  C   LIG    1        1.474   1.776   0.219  0.00  0.00    +0.300 C 
ATOM      4  C   LIG    1        2.014   0.617   1.089  0.00  0.00    +0.010 C 
ATOM      5  C   LIG    1        0.923  -0.462   1.020  0.00  0.00    -0.140 C 
ATOM      6  C   LIG    1        1.270  -1.944   0.986  0.00  0.00    +0.050 C 
ATOM      7  C   LIG    1        0.595  -1.339   2.220  0.00  0.00    +0.050 C 
ATOM      8  C   LIG    1       -0.185   0.123   0.128  0.00  0.00    +0.300 C 
ATOM      9  O   LIG    1       -0.636   3.703   0.475  0.00  0.00    -0.530 OA
ENDROOT
BRANCH   4  10
ATOM     10  C   LIG    1        3.309   0.092   0.523  0.00  0.00    +0.530 C 
ATOM     11  N   LIG    1        4.224  -0.466   1.340  0.00  0.00    -0.620 N 
ATOM     12  C   LIG    1        3.931  -0.666   2.766  0.00  0.00    +0.280 C 
ATOM     13  C   LIG    1        5.040  -0.024   3.597  0.00  0.00    +0.000 C 
ATOM     14  C   LIG    1        6.396  -0.577   3.149  0.00  0.00    +0.170 C 
ATOM     15  C   LIG    1        6.629  -0.229   1.677  0.00  0.00    +0.040 C 
ATOM     16  C   LIG    1        5.536  -0.879   0.823  0.00  0.00    +0.290 C 
ATOM     17  O   LIG    1        3.526   0.171  -0.667  0.00  0.00    -0.520 OA
BRANCH  14  18
ATOM     18  O   LIG    1        7.432   0.001   3.945  0.00  0.00    -0.390 OA
BRANCH  18  19
ATOM     19  C   LIG    1        7.738  -0.739   5.128  0.00  0.00    +0.200 C 
BRANCH  19  20
ATOM     20  C   LIG    1        8.854  -0.032   5.899  0.00  0.00    +0.280 C 
BRANCH  20  21
ATOM     21  N   LIG    1        8.373   1.274   6.370  0.00  0.00    -0.390 N 
ATOM     22  C   LIG    1        7.182   1.096   7.240  0.00  0.00    +0.250 C 
ATOM     23  C   LIG    1        7.153   2.402   8.073  0.00  0.00    +0.080 C 
ATOM     24  C   LIG    1        8.652   2.683   8.328  0.00  0.00    +0.060 C 
ATOM     25  C   LIG    1        9.399   1.919   7.218  0.00  0.00    +0.250 C 
ATOM     26  H   LIG    1        8.147   1.866   5.586  0.00  0.00    +0.430 HD
ENDBRANCH  20  21
ENDBRANCH  19  20
ENDBRANCH  18  19
ENDBRANCH  14  18
ENDBRANCH   4  10
BRANCH   1  30
ATOM     27  C   LIG    1       -5.123  -0.046  -0.629  0.00  0.00    +0.360 C 
ATOM     28  N   LIG    1       -4.197   1.037  -0.285  0.00  0.00    -0.360 N 
ATOM     29  C   LIG    1       -2.858   0.945  -0.257  0.00  0.00    +0.280 A 
ATOM     30  C   LIG    1       -2.367   2.179   0.117  0.00  0.00    -0.290 A 
ATOM     31  C   LIG    1       -3.478   3.031   0.306  0.00  0.00    +0.150 A 
ATOM     32  N   LIG    1       -4.560   2.342   0.065  0.00  0.00    -0.290 NA
BRANCH  31  33
ATOM     33  C   LIG    1       -3.424   4.481   0.714  0.00  0.00    +0.090 C 
ATOM     34  C   LIG    1       -4.555   4.894   1.670  0.00  0.00    +0.030 C 
ATOM     35  C   LIG    1       -4.640   6.208   0.876  0.00  0.00    +0.010 C 
ATOM     36  C   LIG    1       -4.053   5.434  -0.316  0.00  0.00    +0.030 C 
ENDBRANCH  31  33
ENDBRANCH   1  30
TORSDOF 7
