REMARK  Name = ZINCpe00000gN1wn.1
REMARK                            x       y       z     vdW  Elec       q    Type
REMARK                         _______ _______ _______ _____ _____    ______ ____
ROOT
ATOM      1  C   LIG    1        6.862   2.593   1.396  0.00  0.00    +0.140 C 
ENDROOT
BRANCH   1   8
ATOM      2  C   LIG    1       11.389   2.645   7.164  0.00  0.00    +0.380 C 
ATOM      3  N   LIG    1       10.298   2.630   6.186  0.00  0.00    -0.270 N 
ATOM      4  C   LIG    1       10.464   2.641   4.845  0.00  0.00    +0.170 A 
ATOM      5  C   LIG    1        9.228   2.621   4.292  0.00  0.00    +0.020 A 
ATOM      6  N   LIG    1        8.707   2.614   3.006  0.00  0.00    -0.600 N 
ATOM      7  H   LIG    1        9.305   2.626   2.243  0.00  0.00    +0.420 HD
ATOM      8  C   LIG    1        7.377   2.595   2.812  0.00  0.00    +0.460 A 
ATOM      9  N   LIG    1        6.508   2.573   3.785  0.00  0.00    -0.590 NA
ATOM     10  C   LIG    1        6.882   2.573   5.079  0.00  0.00    +0.570 A 
ATOM     11  O   LIG    1        6.050   2.551   5.969  0.00  0.00    -0.470 OA
ATOM     12  C   LIG    1        8.322   2.598   5.390  0.00  0.00    -0.070 A 
ATOM     13  N   LIG    1        9.045   2.605   6.484  0.00  0.00    -0.210 NA
ENDBRANCH   1   8
BRANCH   1  14
ATOM     14  C   LIG    1        5.332   2.564   1.409  0.00  0.00    +0.060 C 
BRANCH  14  15
ATOM     15  C   LIG    1        4.809   2.562  -0.029  0.00  0.00    +0.310 C 
BRANCH  15  16
ATOM     16  N   LIG    1        3.345   2.534  -0.016  0.00  0.00    -0.570 N 
ATOM     17  C   LIG    1        2.605   1.411  -0.015  0.00  0.00    +0.580 C 
ATOM     18  C   LIG    1        1.176   1.788   0.000  0.00  0.00    -0.140 A 
ATOM     19  C   LIG    1       -0.013   1.076   0.008  0.00  0.00    +0.100 A 
ATOM     20  C   LIG    1       -1.221   1.756   0.017  0.00  0.00    +0.050 A 
ATOM     21  C   LIG    1       -1.247   3.137   0.031  0.00  0.00    +0.050 A 
ATOM     22  C   LIG    1       -0.066   3.863   0.023  0.00  0.00    +0.100 A 
ATOM     23  C   LIG    1        1.149   3.197   0.008  0.00  0.00    -0.140 A 
ATOM     24  O   LIG    1        3.039   0.276  -0.024  0.00  0.00    -0.460 OA
ATOM     25  C   LIG    1        2.563   3.628  -0.003  0.00  0.00    +0.580 C 
ATOM     26  O   LIG    1        2.953   4.779  -0.002  0.00  0.00    -0.460 OA
ENDBRANCH  15  16
ENDBRANCH  14  15
ENDBRANCH   1  14
TORSDOF 4
