REMARK  Name = ZINCqH0000007bYQ.0
REMARK                            x       y       z     vdW  Elec       q    Type
REMARK                         _______ _______ _______ _____ _____    ______ ____
ROOT
ATOM      1  N   LIG    1       -0.100   6.127  -1.347  0.00  0.00    -0.720 N 
ATOM      2  H   LIG    1       -0.097   5.500  -2.087  0.00  0.00    +0.400 HD
ATOM      3  C   LIG    1       -0.124   7.453  -1.586  0.00  0.00    +0.560 C 
ATOM      4  O   LIG    1       -0.128   8.238  -0.658  0.00  0.00    -0.530 OA
ENDROOT
BRANCH   3   5
ATOM      5  C   LIG    1       -0.145   7.953  -2.978  0.00  0.00    -0.120 A 
ATOM      6  C   LIG    1       -0.134   7.054  -4.045  0.00  0.00    +0.050 A 
ATOM      7  C   LIG    1       -0.158   7.523  -5.343  0.00  0.00    +0.030 A 
ATOM      8  C   LIG    1       -0.183   8.883  -5.590  0.00  0.00    -0.060 A 
ATOM      9  C   LIG    1       -0.188   9.786  -4.535  0.00  0.00    +0.110 A 
ATOM     10  C   LIG    1       -0.204   9.387  -7.011  0.00  0.00    +0.110 C 
ATOM     11  C   LIG    1       -0.169   9.325  -3.228  0.00  0.00    +0.090 A 
BRANCH   9  12
ATOM     12  N   LIG    1       -0.212  11.164  -4.792  0.00  0.00    -0.400 N 
ATOM     13  C   LIG    1        0.623  11.831  -5.642  0.00  0.00    +0.150 A 
ATOM     14  C   LIG    1        0.289  13.137  -5.623  0.00  0.00    -0.050 A 
ATOM     15  C   LIG    1       -0.785  13.286  -4.723  0.00  0.00    -0.050 A 
ATOM     16  C   LIG    1       -1.072  12.064  -4.229  0.00  0.00    +0.150 A 
ENDBRANCH   9  12
ENDBRANCH   3   5
BRANCH   1  17
ATOM     17  C   LIG    1       -0.079   5.632   0.032  0.00  0.00    +0.330 C 
BRANCH  17  21
ATOM     18  C   LIG    1       -0.016   1.356   0.009  0.00  0.00    +0.110 A 
ATOM     19  C   LIG    1       -1.224   2.034   0.019  0.00  0.00    -0.040 A 
ATOM     20  C   LIG    1       -1.241   3.416   0.031  0.00  0.00    +0.040 A 
ATOM     21  C   LIG    1       -0.055   4.125   0.024  0.00  0.00    -0.110 A 
ATOM     22  C   LIG    1        1.155   3.455   0.009  0.00  0.00    -0.010 A 
ATOM     23  C   LIG    1        1.179   2.070   0.002  0.00  0.00    +0.100 A 
BRANCH  18  25
ATOM     24  C   LIG    1       -1.262  -0.670   0.011  0.00  0.00    +0.240 C 
ATOM     25  O   LIG    1        0.002  -0.004   0.002  0.00  0.00    -0.310 OA
ENDBRANCH  18  25
BRANCH  23  26
ATOM     26  O   LIG    1        2.367   1.409  -0.012  0.00  0.00    -0.300 OA
ATOM     27  C   LIG    1        3.553   2.206  -0.019  0.00  0.00    +0.240 C 
ENDBRANCH  23  26
ENDBRANCH  17  21
ENDBRANCH   1  17
TORSDOF 6
