REMARK  Name = ZINCvU000000068I.0
REMARK                            x       y       z     vdW  Elec       q    Type
REMARK                         _______ _______ _______ _____ _____    ______ ____
ROOT
ATOM      1  O   LIG    1       -3.936   2.279   5.376  0.00  0.00    -0.490 OA
ATOM      2  C   LIG    1       -3.137   3.049   4.880  0.00  0.00    +0.560 C 
ATOM      3  N   LIG    1       -2.945   4.266   5.426  0.00  0.00    -0.620 N 
ATOM      4  H   LIG    1       -2.308   4.880   5.030  0.00  0.00    +0.420 HD
ENDROOT
BRANCH   2   5
ATOM      5  C   LIG    1       -2.375   2.651   3.677  0.00  0.00    -0.080 A 
ATOM      6  C   LIG    1       -2.571   1.391   3.109  0.00  0.00    +0.080 A 
ATOM      7  C   LIG    1       -1.858   1.025   1.986  0.00  0.00    +0.120 A 
ATOM      8  C   LIG    1       -0.950   1.905   1.423  0.00  0.00    -0.650 A 
ATOM      9  C   LIG    1       -0.747   3.153   1.985  0.00  0.00    +0.130 A 
ATOM     10  C   LIG    1       -1.458   3.533   3.104  0.00  0.00    +0.040 A 
BRANCH   8  11
ATOM     11  S   LIG    1       -0.043   1.430  -0.011  0.00  0.00    +2.680 S 
ATOM     12  O   LIG    1        1.134   2.227  -0.023  0.00  0.00    -0.950 OA
ATOM     13  O   LIG    1       -0.019   0.009  -0.019  0.00  0.00    -0.940 OA
BRANCH  11  14
ATOM     14  N   LIG    1       -0.933   1.891  -1.329  0.00  0.00    -0.990 NA
ATOM     15  C   LIG    1       -1.887   0.955  -1.882  0.00  0.00    +0.280 C 
ATOM     16  C   LIG    1       -1.202   0.073  -2.946  0.00  0.00    +0.010 C 
ATOM     17  C   LIG    1       -0.908   0.863  -4.152  0.00  0.00    +0.000 C 
ATOM     18  C   LIG    1        0.068   2.013  -3.927  0.00  0.00    +0.010 C 
ATOM     19  C   LIG    1       -0.689   3.222  -3.433  0.00  0.00    +0.020 C 
ATOM     20  C   LIG    1       -0.716   3.236  -1.894  0.00  0.00    +0.280 C 
ENDBRANCH  11  14
ENDBRANCH   8  11
ENDBRANCH   2   5
BRANCH   3  21
ATOM     21  C   LIG    1       -3.660   4.640   6.556  0.00  0.00    +0.240 A 
ATOM     22  N   LIG    1       -3.546   5.781   7.159  0.00  0.00    -0.490 NA
ATOM     23  C   LIG    1       -4.311   5.975   8.226  0.00  0.00    +0.150 A 
ATOM     24  C   LIG    1       -5.101   4.930   8.535  0.00  0.00    -0.110 A 
ATOM     25  S   LIG    1       -4.810   3.658   7.352  0.00  0.00    +0.270 S 
BRANCH  23  26
ATOM     26  C   LIG    1       -4.292   7.233   9.013  0.00  0.00    -0.020 A 
ATOM     27  C   LIG    1       -3.428   8.234   8.765  0.00  0.00    -0.120 A 
ATOM     28  S   LIG    1       -3.710   9.549   9.899  0.00  0.00    +0.220 S 
ATOM     29  C   LIG    1       -5.013   8.655  10.668  0.00  0.00    -0.150 A 
ATOM     30 CL   LIG    1       -5.957   9.225  12.008  0.00  0.00    +0.000 Cl
ATOM     31 CL   LIG    1       -2.220   8.229   7.519  0.00  0.00    +0.020 Cl
ATOM     32  C   LIG    1       -5.171   7.476  10.068  0.00  0.00    +0.060 A 
ENDBRANCH  23  26
ENDBRANCH   3  21
TORSDOF 5
