REMARK  Name = ZINCtV000002FLys.0
REMARK                            x       y       z     vdW  Elec       q    Type
REMARK                         _______ _______ _______ _____ _____    ______ ____
ROOT
ATOM      1  C   LIG    1        0.028   1.202  -0.499  0.00  0.00    +0.120 C 
ATOM      2  C   LIG    1        1.446   0.842  -0.139  0.00  0.00    +0.020 A 
ATOM      3  C   LIG    1        1.985  -0.386  -0.231  0.00  0.00    -0.010 A 
ATOM      4  C   LIG    1        3.379  -0.260   0.215  0.00  0.00    -0.260 A 
ATOM      5  C   LIG    1        3.552   1.071   0.544  0.00  0.00    +0.120 A 
ATOM      6  C   LIG    1        4.823   1.697   1.058  0.00  0.00    +0.150 C 
ATOM      7  N   LIG    1        2.390   1.711   0.326  0.00  0.00    -0.430 N 
ENDROOT
BRANCH   4   8
ATOM      8  C   LIG    1        4.379  -1.327   0.296  0.00  0.00    +0.430 C 
ATOM      9  O   LIG    1        5.501  -1.078   0.687  0.00  0.00    -0.450 OA
BRANCH   8  10
ATOM     10  C   LIG    1        4.016  -2.733  -0.106  0.00  0.00    +0.220 C 
BRANCH  10  11
ATOM     11  O   LIG    1        5.152  -3.584   0.060  0.00  0.00    -0.290 OA
BRANCH  11  12
ATOM     12  C   LIG    1        4.992  -4.894  -0.260  0.00  0.00    +0.150 A 
ATOM     13  C   LIG    1        3.788  -5.349  -0.718  0.00  0.00    -0.100 A 
ATOM     14  C   LIG    1        3.608  -6.689  -1.052  0.00  0.00    +0.060 A 
ATOM     15  C   LIG    1        4.626  -7.585  -0.931  0.00  0.00    -0.020 A 
ATOM     16  C   LIG    1        5.880  -7.158  -0.462  0.00  0.00    -0.020 A 
ATOM     17  C   LIG    1        6.952  -8.056  -0.324  0.00  0.00    +0.010 A 
ATOM     18  C   LIG    1        8.152  -7.607   0.134  0.00  0.00    +0.020 A 
ATOM     19  C   LIG    1        8.336  -6.267   0.469  0.00  0.00    -0.010 A 
ATOM     20  C   LIG    1        7.320  -5.369   0.347  0.00  0.00    +0.050 A 
ATOM     21  C   LIG    1        6.070  -5.794  -0.128  0.00  0.00    -0.070 A 
ENDBRANCH  11  12
ENDBRANCH  10  11
ENDBRANCH   8  10
ENDBRANCH   4   8
BRANCH   7  22
ATOM     22  C   LIG    1        2.167   3.141   0.555  0.00  0.00    +0.350 C 
BRANCH  22  23
ATOM     23  C   LIG    1        2.561   3.915  -0.676  0.00  0.00    -0.110 A 
ATOM     24  C   LIG    1        3.871   3.892  -1.117  0.00  0.00    +0.040 A 
ATOM     25  C   LIG    1        4.231   4.598  -2.250  0.00  0.00    +0.020 A 
ATOM     26  C   LIG    1        3.284   5.335  -2.936  0.00  0.00    +0.040 A 
ATOM     27  C   LIG    1        1.975   5.363  -2.493  0.00  0.00    +0.030 A 
ATOM     28  C   LIG    1        1.613   4.652  -1.363  0.00  0.00    -0.020 A 
ATOM     29 CL   LIG    1       -0.031   4.686  -0.806  0.00  0.00    -0.060 Cl
ENDBRANCH  22  23
ENDBRANCH   7  22
TORSDOF 6
