REMARK  Name = ZINCkj000005fZwq.1
REMARK                            x       y       z     vdW  Elec       q    Type
REMARK                         _______ _______ _______ _____ _____    ______ ____
ROOT
ATOM      1  N   LIG    1        2.940  -1.709  -2.312  0.00  0.00    -0.580 N 
ATOM      2  C   LIG    1        2.687  -0.443  -1.925  0.00  0.00    +0.500 C 
ATOM      3  O   LIG    1        2.937   0.480  -2.670  0.00  0.00    -0.500 OA
ENDROOT
BRANCH   2   4
ATOM      4  C   LIG    1        2.092  -0.176  -0.566  0.00  0.00    +0.140 C 
ATOM      5  C   LIG    1        0.569  -0.309  -0.640  0.00  0.00    +0.280 C 
ATOM      6  O   LIG    1        0.007   0.000   0.639  0.00  0.00    -0.350 OA
ATOM      7  C   LIG    1        0.340   1.309   1.111  0.00  0.00    +0.270 C 
ATOM      8  C   LIG    1        1.863   1.445   1.188  0.00  0.00    +0.250 C 
ATOM      9  N   LIG    1        2.443   1.185  -0.137  0.00  0.00    -0.490 N 
ATOM     10  H   LIG    1        2.077   1.852  -0.801  0.00  0.00    +0.440 HD
ATOM     11  H   LIG    1        3.446   1.275  -0.088  0.00  0.00    +0.440 HD
ENDBRANCH   2   4
BRANCH   1  13
ATOM     12  C   LIG    1        1.188  -3.381  -1.970  0.00  0.00    +0.040 C 
ATOM     13  C   LIG    1        2.524  -2.831  -1.467  0.00  0.00    +0.260 C 
ENDBRANCH   1  13
BRANCH   1  14
ATOM     14  C   LIG    1        3.631  -1.963  -3.579  0.00  0.00    +0.380 C 
BRANCH  14  15
ATOM     15  C   LIG    1        5.118  -2.006  -3.340  0.00  0.00    -0.200 A 
ATOM     16  C   LIG    1        5.869  -0.847  -3.436  0.00  0.00    +0.150 A 
ATOM     17  C   LIG    1        7.235  -0.887  -3.210  0.00  0.00    -0.020 A 
ATOM     18  C   LIG    1        7.850  -2.085  -2.901  0.00  0.00    +0.100 A 
ATOM     19  C   LIG    1        7.102  -3.244  -2.810  0.00  0.00    -0.010 A 
ATOM     20  F   LIG    1        5.269   0.323  -3.744  0.00  0.00    -0.120 F 
ATOM     21  C   LIG    1        5.736  -3.205  -3.029  0.00  0.00    +0.140 A 
ATOM     22  F   LIG    1        5.005  -4.338  -2.941  0.00  0.00    -0.130 F 
ENDBRANCH  14  15
ENDBRANCH   1  14
TORSDOF 4
