REMARK  Name = ZINCrD0000075QDE.0
REMARK                            x       y       z     vdW  Elec       q    Type
REMARK                         _______ _______ _______ _____ _____    ______ ____
ROOT
ATOM      1  O   LIG    1       -0.228   4.058   0.026  0.00  0.00    -0.360 OA
ENDROOT
BRANCH   1   3
ATOM      2  O   LIG    1        0.524   6.136   0.030  0.00  0.00    -0.500 OA
ATOM      3  C   LIG    1       -0.423   5.386   0.035  0.00  0.00    +0.470 C 
BRANCH   3   4
ATOM      4  C   LIG    1       -1.824   5.942   0.052  0.00  0.00    +0.030 C 
ATOM      5  C   LIG    1       -2.576   5.465  -1.193  0.00  0.00    +0.040 C 
ATOM      6  C   LIG    1       -4.010   6.004  -1.155  0.00  0.00    +0.290 C 
ATOM      7  N   LIG    1       -3.962   7.464  -1.002  0.00  0.00    -0.610 N 
ATOM      8  C   LIG    1       -3.189   8.033   0.111  0.00  0.00    +0.280 C 
ATOM      9  C   LIG    1       -4.615   8.267  -1.865  0.00  0.00    +0.550 C 
ATOM     10  O   LIG    1       -4.568   9.471  -1.728  0.00  0.00    -0.540 OA
ATOM     11  C   LIG    1       -1.765   7.472   0.059  0.00  0.00    +0.050 C 
BRANCH   9  12
ATOM     12  C   LIG    1       -5.404   7.669  -3.001  0.00  0.00    -0.070 C 
ATOM     13  C   LIG    1       -4.873   7.883  -4.420  0.00  0.00    +0.060 C 
ATOM     14  C   LIG    1       -6.121   8.633  -3.949  0.00  0.00    +0.060 C 
ENDBRANCH   9  12
ENDBRANCH   3   4
ENDBRANCH   1   3
BRANCH   1  15
ATOM     15  C   LIG    1        1.147   3.594   0.011  0.00  0.00    +0.310 C 
BRANCH  15  16
ATOM     16  C   LIG    1        1.169   2.087   0.002  0.00  0.00    -0.070 A 
ATOM     17  C   LIG    1       -0.017   1.379   0.010  0.00  0.00    +0.040 A 
ATOM     18  C   LIG    1        0.002  -0.004   0.002  0.00  0.00    +0.010 A 
ATOM     19  C   LIG    1        1.207  -0.682  -0.013  0.00  0.00    +0.010 A 
ATOM     20  C   LIG    1        2.396   0.020  -0.020  0.00  0.00    -0.030 A 
ATOM     21  C   LIG    1        2.381   1.409  -0.013  0.00  0.00    +0.100 A 
BRANCH  21  22
ATOM     22  N   LIG    1        3.582   2.122  -0.020  0.00  0.00    -0.510 N 
ATOM     23  C   LIG    1        4.328   1.884  -1.263  0.00  0.00    +0.180 C 
ATOM     24  C   LIG    1        5.561   2.789  -1.300  0.00  0.00    +0.020 C 
ATOM     25  C   LIG    1        6.446   2.489  -0.086  0.00  0.00    +0.010 C 
ATOM     26  C   LIG    1        5.631   2.698   1.193  0.00  0.00    +0.020 C 
ATOM     27  C   LIG    1        4.395   1.795   1.158  0.00  0.00    +0.180 C 
ENDBRANCH  21  22
ENDBRANCH  15  16
ENDBRANCH   1  15
TORSDOF 6
