REMARK  Name = ZINCvU00000008yl.0
REMARK                            x       y       z     vdW  Elec       q    Type
REMARK                         _______ _______ _______ _____ _____    ______ ____
ROOT
ATOM      1  O   LIG    1        2.481   4.045   0.274  0.00  0.00    -0.520 OA
ATOM      2  C   LIG    1        3.534   3.472   0.085  0.00  0.00    +0.520 C 
ATOM      3  N   LIG    1        3.561   2.128  -0.018  0.00  0.00    -0.660 N 
ATOM      4  H   LIG    1        4.409   1.664  -0.090  0.00  0.00    +0.430 HD
ENDROOT
BRANCH   3   5
ATOM      5  C   LIG    1        2.367   1.405  -0.020  0.00  0.00    +0.200 A 
ATOM      6  C   LIG    1        1.232   1.935  -0.616  0.00  0.00    +0.020 A 
ATOM      7  C   LIG    1        0.052   1.216  -0.617  0.00  0.00    +0.050 A 
ATOM      8  C   LIG    1       -0.007  -0.034  -0.026  0.00  0.00    +0.000 A 
ATOM      9  C   LIG    1        1.112  -0.576   0.571  0.00  0.00    +0.040 A 
ATOM     10  C   LIG    1        2.311   0.139   0.580  0.00  0.00    -0.070 A 
BRANCH  10  11
ATOM     11  C   LIG    1        3.513  -0.436   1.218  0.00  0.00    +0.340 A 
ATOM     12  N   LIG    1        4.707   0.106   1.202  0.00  0.00    -0.500 NA
ATOM     13  C   LIG    1        5.574  -0.683   1.882  0.00  0.00    +0.050 A 
ATOM     14  C   LIG    1        6.939  -0.584   2.170  0.00  0.00    +0.060 A 
ATOM     15  C   LIG    1        7.556  -1.572   2.903  0.00  0.00    +0.010 A 
ATOM     16  C   LIG    1        6.835  -2.666   3.359  0.00  0.00    +0.030 A 
ATOM     17  C   LIG    1        5.488  -2.780   3.085  0.00  0.00    +0.010 A 
ATOM     18  C   LIG    1        4.848  -1.794   2.348  0.00  0.00    +0.050 A 
ATOM     19  N   LIG    1        3.547  -1.611   1.919  0.00  0.00    -0.590 N 
ATOM     20  H   LIG    1        2.798  -2.206   2.082  0.00  0.00    +0.420 HD
ENDBRANCH  10  11
ENDBRANCH   3   5
BRANCH   2  21
ATOM     21  C   LIG    1        4.811   4.263  -0.034  0.00  0.00    +0.060 C 
BRANCH  21  22
ATOM     22  C   LIG    1        4.504   5.754   0.119  0.00  0.00    +0.040 C 
BRANCH  22  23
ATOM     23  C   LIG    1        5.801   6.556  -0.002  0.00  0.00    +0.260 C 
BRANCH  23  24
ATOM     24  N   LIG    1        5.507   7.984   0.144  0.00  0.00    -0.730 N 
ATOM     25  H   LIG    1        4.595   8.279   0.293  0.00  0.00    +0.400 HD
ATOM     26  C   LIG    1        6.504   8.888   0.073  0.00  0.00    +0.560 C 
ATOM     27  O   LIG    1        7.647   8.519  -0.113  0.00  0.00    -0.530 OA
BRANCH  26  28
ATOM     28  C   LIG    1        6.207  10.328   0.220  0.00  0.00    -0.130 A 
ATOM     29  C   LIG    1        4.895  10.756   0.428  0.00  0.00    +0.070 A 
ATOM     30  C   LIG    1        4.625  12.101   0.569  0.00  0.00    +0.020 A 
ATOM     31  C   LIG    1        5.652  13.027   0.495  0.00  0.00    -0.010 A 
ATOM     32  C   LIG    1        6.955  12.610   0.285  0.00  0.00    +0.020 A 
ATOM     33 CL   LIG    1        5.303  14.720   0.668  0.00  0.00    -0.060 Cl
ATOM     34  C   LIG    1        7.238  11.267   0.147  0.00  0.00    +0.100 A 
ENDBRANCH  26  28
ENDBRANCH  23  24
ENDBRANCH  22  23
ENDBRANCH  21  22
ENDBRANCH   2  21
TORSDOF 7
