REMARK  Name = ZINCpe000000Wopk.0
REMARK                            x       y       z     vdW  Elec       q    Type
REMARK                         _______ _______ _______ _____ _____    ______ ____
ROOT
ATOM      1  N   LIG    1       -2.434  -0.123   0.056  0.00  0.00    -0.740 N 
ATOM      2  H   LIG    1       -2.459   0.847   0.061  0.00  0.00    +0.390 HD
ATOM      3  C   LIG    1       -1.253  -0.766  -0.027  0.00  0.00    +0.560 C 
ATOM      4  O   LIG    1       -1.226  -1.979  -0.127  0.00  0.00    -0.480 OA
ENDROOT
BRANCH   3   5
ATOM      5  C   LIG    1        0.002  -0.004   0.004  0.00  0.00    -0.170 A 
ATOM      6  C   LIG    1       -0.016   1.382   0.007  0.00  0.00    +0.170 A 
ATOM      7  C   LIG    1        1.196   2.073   0.039  0.00  0.00    -0.050 A 
ATOM      8  C   LIG    1        2.369   1.410   0.079  0.00  0.00    +0.320 A 
ATOM      9  N   LIG    1        2.449   0.045   0.096  0.00  0.00    -0.510 N 
ATOM     10  C   LIG    1        3.795  -0.525   0.198  0.00  0.00    +0.340 C 
ATOM     11  C   LIG    1        3.897  -1.814  -0.621  0.00  0.00    -0.400 C 
ATOM     12  S   LIG    1        2.618  -2.950   0.003  0.00  0.00    +2.540 S 
ATOM     13  N   LIG    1        1.256  -2.011  -0.018  0.00  0.00    -0.910 NA
ATOM     14  O   LIG    1        2.831  -3.242   1.377  0.00  0.00    -0.960 OA
ATOM     15  O   LIG    1        2.356  -3.981  -0.939  0.00  0.00    -0.930 OA
ATOM     16  C   LIG    1        1.306  -0.705   0.033  0.00  0.00    +0.530 A 
ENDBRANCH   3   5
BRANCH   1  17
ATOM     17  C   LIG    1       -3.681  -0.888   0.138  0.00  0.00    +0.270 C 
BRANCH  17  18
ATOM     18  C   LIG    1       -4.866   0.075   0.222  0.00  0.00    +0.080 C 
BRANCH  18  22
ATOM     19  C   LIG    1       -8.503  -2.156   0.461  0.00  0.00    +0.130 A 
ATOM     20  C   LIG    1       -7.830  -1.798   1.620  0.00  0.00    -0.020 A 
ATOM     21  C   LIG    1       -6.655  -1.077   1.540  0.00  0.00    +0.060 A 
ATOM     22  C   LIG    1       -6.149  -0.712   0.306  0.00  0.00    -0.120 A 
ATOM     23  C   LIG    1       -6.820  -1.063  -0.851  0.00  0.00    +0.060 A 
ATOM     24  C   LIG    1       -7.993  -1.790  -0.776  0.00  0.00    -0.080 A 
BRANCH  19  26
ATOM     25  C   LIG    1      -10.298  -3.200  -0.697  0.00  0.00    +0.250 C 
ATOM     26  O   LIG    1       -9.660  -2.865   0.537  0.00  0.00    -0.320 OA
ENDBRANCH  19  26
ENDBRANCH  18  22
ENDBRANCH  17  18
ENDBRANCH   1  17
TORSDOF 5
