REMARK  Name = ZINCrD0000074NFI.0
REMARK                            x       y       z     vdW  Elec       q    Type
REMARK                         _______ _______ _______ _____ _____    ______ ____
ROOT
ATOM      1  C   LIG    1        2.998   4.100   1.415  0.00  0.00    +0.550 C 
ATOM      2  N   LIG    1        4.191   3.518   1.184  0.00  0.00    -0.710 N 
ATOM      3  H   LIG    1        4.285   2.556   1.268  0.00  0.00    +0.400 HD
ATOM      4  O   LIG    1        2.879   5.305   1.310  0.00  0.00    -0.510 OA
ENDROOT
BRANCH   1  10
ATOM      5  C   LIG    1       -1.823   3.743   2.655  0.00  0.00    +0.110 C 
ATOM      6  C   LIG    1       -0.487   3.096   2.394  0.00  0.00    -0.040 A 
ATOM      7  C   LIG    1       -0.350   1.724   2.507  0.00  0.00    +0.070 A 
ATOM      8  C   LIG    1        0.875   1.124   2.276  0.00  0.00    +0.070 A 
ATOM      9  C   LIG    1        1.966   1.889   1.919  0.00  0.00    +0.070 A 
ATOM     10  C   LIG    1        1.833   3.273   1.797  0.00  0.00    -0.090 A 
ATOM     11  C   LIG    1        0.596   3.874   2.038  0.00  0.00    +0.020 A 
BRANCH  11  12
ATOM     12  N   LIG    1        0.446   5.341   1.910  0.00  0.00    +0.030 N 
ATOM     13  O   LIG    1        0.638   6.058   2.876  0.00  0.00    -0.130 OA
ATOM     14  O   LIG    1        0.131   5.830   0.841  0.00  0.00    -0.130 OA
ENDBRANCH  11  12
ENDBRANCH   1  10
BRANCH   2  15
ATOM     15  C   LIG    1        5.345   4.337   0.805  0.00  0.00    +0.320 C 
BRANCH  15  16
ATOM     16  C   LIG    1        6.547   3.450   0.606  0.00  0.00    -0.110 A 
ATOM     17  C   LIG    1        7.388   3.177   1.668  0.00  0.00    +0.040 A 
ATOM     18  C   LIG    1        8.488   2.359   1.486  0.00  0.00    +0.010 A 
ATOM     19  C   LIG    1        8.752   1.823   0.240  0.00  0.00    +0.040 A 
ATOM     20  C   LIG    1        7.913   2.100  -0.824  0.00  0.00    -0.120 A 
ATOM     21  C   LIG    1        6.811   2.914  -0.641  0.00  0.00    +0.050 A 
BRANCH  20  22
ATOM     22  C   LIG    1        8.201   1.516  -2.183  0.00  0.00    +0.350 C 
BRANCH  22  23
ATOM     23  N   LIG    1        9.165   2.367  -2.886  0.00  0.00    -0.450 N 
ATOM     24  C   LIG    1       10.522   2.190  -2.932  0.00  0.00    +0.110 A 
ATOM     25  C   LIG    1       11.019   3.192  -3.682  0.00  0.00    +0.150 A 
ATOM     26  N   LIG    1        9.995   3.960  -4.082  0.00  0.00    -0.490 NA
ATOM     27  C   LIG    1        8.880   3.468  -3.614  0.00  0.00    +0.210 A 
ATOM     28  C   LIG    1        7.504   4.037  -3.845  0.00  0.00    +0.170 C 
ENDBRANCH  22  23
ENDBRANCH  20  22
ENDBRANCH  15  16
ENDBRANCH   2  15
TORSDOF 6
