REMARK  Name = ZINCrD0000072stm.0
REMARK                            x       y       z     vdW  Elec       q    Type
REMARK                         _______ _______ _______ _____ _____    ______ ____
ROOT
ATOM      1  O   LIG    1        0.081   6.937  -0.315  0.00  0.00    -0.330 OA
ENDROOT
BRANCH   1   2
ATOM      2  C   LIG    1        0.426   8.074  -0.950  0.00  0.00    +0.520 C 
ATOM      3  O   LIG    1        1.592   8.292  -1.214  0.00  0.00    -0.500 OA
BRANCH   2   9
ATOM      4  N   LIG    1       -3.308  11.945  -2.484  0.00  0.00    -0.390 N 
ATOM      5  N   LIG    1       -2.389  12.832  -3.064  0.00  0.00    +0.000 NA
ATOM      6  N   LIG    1       -1.202  12.347  -2.964  0.00  0.00    -0.200 NA
ATOM      7  C   LIG    1       -1.240  11.148  -2.335  0.00  0.00    -0.030 A 
ATOM      8  C   LIG    1       -0.252  10.225  -1.982  0.00  0.00    +0.210 A 
ATOM      9  C   LIG    1       -0.612   9.053  -1.327  0.00  0.00    -0.140 A 
ATOM     10  C   LIG    1       -1.957   8.796  -1.026  0.00  0.00    +0.140 A 
ATOM     11  C   LIG    1       -2.924   9.695  -1.363  0.00  0.00    +0.010 A 
ATOM     12  C   LIG    1       -2.584  10.875  -2.021  0.00  0.00    +0.120 A 
BRANCH   4  14
ATOM     13  C   LIG    1       -5.101  12.849  -1.089  0.00  0.00    +0.050 C 
ATOM     14  C   LIG    1       -4.759  12.125  -2.392  0.00  0.00    +0.330 C 
ENDBRANCH   4  14
ENDBRANCH   2   9
ENDBRANCH   1   2
BRANCH   1  15
ATOM     15  C   LIG    1        1.153   6.019   0.025  0.00  0.00    +0.160 C 
ATOM     16  C   LIG    1        1.693   6.358   1.416  0.00  0.00    +0.070 C 
BRANCH  15  17
ATOM     17  C   LIG    1        0.626   4.607   0.021  0.00  0.00    +0.430 C 
ATOM     18  O   LIG    1       -0.571   4.406   0.030  0.00  0.00    -0.440 OA
BRANCH  17  19
ATOM     19  C   LIG    1        1.529   3.514   0.007  0.00  0.00    -0.270 A 
ATOM     20  C   LIG    1        2.906   3.578  -0.005  0.00  0.00    +0.330 A 
ATOM     21  N   LIG    1        3.416   2.332  -0.017  0.00  0.00    -0.560 N 
ATOM     22  H   LIG    1        4.363   2.123  -0.027  0.00  0.00    +0.420 HD
ATOM     23  C   LIG    1        2.406   1.391  -0.013  0.00  0.00    +0.070 A 
ATOM     24  C   LIG    1        2.404  -0.000  -0.020  0.00  0.00    +0.000 A 
ATOM     25  C   LIG    1        1.209  -0.687  -0.013  0.00  0.00    +0.030 A 
ATOM     26  C   LIG    1        0.002  -0.004   0.002  0.00  0.00    +0.000 A 
ATOM     27  C   LIG    1       -0.017   1.374   0.010  0.00  0.00    +0.060 A 
ATOM     28  C   LIG    1        1.183   2.079   0.002  0.00  0.00    -0.060 A 
ENDBRANCH  17  19
ENDBRANCH  15  17
ENDBRANCH   1  15
TORSDOF 6
