REMARK  Name = ZINCrD000000AXAv.0
REMARK                            x       y       z     vdW  Elec       q    Type
REMARK                         _______ _______ _______ _____ _____    ______ ____
ROOT
ATOM      1  C   LIG    1        0.242   0.917   4.882  0.00  0.00    -0.070 A 
ATOM      2  C   LIG    1        1.317   0.046   4.775  0.00  0.00    +0.020 A 
ATOM      3  C   LIG    1        1.970  -0.388   5.939  0.00  0.00    +0.190 A 
ATOM      4  N   LIG    1        1.593  -0.008   7.140  0.00  0.00    -0.440 NA
ATOM      5  C   LIG    1        0.567   0.821   7.337  0.00  0.00    +0.130 A 
ATOM      6  C   LIG    1        0.187   1.211   8.634  0.00  0.00    +0.050 A 
ATOM      7  C   LIG    1       -0.864   2.059   8.803  0.00  0.00    +0.040 A 
ATOM      8  C   LIG    1       -1.574   2.551   7.710  0.00  0.00    +0.020 A 
ATOM      9  C   LIG    1       -1.234   2.196   6.438  0.00  0.00    +0.060 A 
ATOM     10  C   LIG    1       -0.159   1.326   6.228  0.00  0.00    -0.060 A 
ENDROOT
BRANCH   3  11
ATOM     11  C   LIG    1        3.122  -1.314   5.809  0.00  0.00    -0.010 A 
ATOM     12  C   LIG    1        3.556  -1.750   4.554  0.00  0.00    -0.020 A 
ATOM     13  C   LIG    1        4.635  -2.608   4.479  0.00  0.00    +0.260 A 
ATOM     14  N   LIG    1        5.247  -3.023   5.572  0.00  0.00    -0.480 NA
ATOM     15  C   LIG    1        4.867  -2.639   6.775  0.00  0.00    +0.260 A 
ATOM     16  C   LIG    1        3.800  -1.779   6.940  0.00  0.00    +0.020 A 
ENDBRANCH   3  11
BRANCH   1  18
ATOM     17  O   LIG    1       -1.474   2.085   3.809  0.00  0.00    -0.520 OA
ATOM     18  C   LIG    1       -0.473   1.407   3.684  0.00  0.00    +0.570 C 
ATOM     19  N   LIG    1       -0.016   1.101   2.454  0.00  0.00    -0.720 N 
ATOM     20  H   LIG    1        0.783   0.559   2.354  0.00  0.00    +0.400 HD
BRANCH  19  21
ATOM     21  C   LIG    1       -0.724   1.586   1.267  0.00  0.00    +0.280 C 
BRANCH  21  22
ATOM     22  C   LIG    1       -0.002   1.101   0.008  0.00  0.00    +0.010 C 
BRANCH  22  23
ATOM     23  C   LIG    1       -0.742   1.608  -1.232  0.00  0.00    +0.310 C 
BRANCH  23  24
ATOM     24  N   LIG    1       -0.051   1.143  -2.437  0.00  0.00    -0.460 N 
ATOM     25  C   LIG    1       -0.287  -0.026  -3.108  0.00  0.00    +0.110 A 
ATOM     26  C   LIG    1        0.565  -0.055  -4.151  0.00  0.00    +0.140 A 
ATOM     27  N   LIG    1        1.301   1.066  -4.117  0.00  0.00    -0.490 NA
ATOM     28  C   LIG    1        0.933   1.791  -3.096  0.00  0.00    +0.380 A 
ENDBRANCH  23  24
ENDBRANCH  22  23
ENDBRANCH  21  22
ENDBRANCH  19  21
ENDBRANCH   1  18
TORSDOF 6
