REMARK  Name = ZINCrH000004qKgg.1
REMARK                            x       y       z     vdW  Elec       q    Type
REMARK                         _______ _______ _______ _____ _____    ______ ____
ROOT
ATOM      1  C   LIG    1       -3.671   3.249  -0.151  0.00  0.00    +0.080 C 
ATOM      2  C   LIG    1       -3.597   1.744  -0.158  0.00  0.00    -0.090 A 
ATOM      3  C   LIG    1       -4.755   0.997  -0.254  0.00  0.00    +0.010 A 
ATOM      4  C   LIG    1       -4.688  -0.390  -0.254  0.00  0.00    +0.100 A 
ATOM      5  C   LIG    1       -3.456  -1.026  -0.164  0.00  0.00    -0.020 A 
ATOM      6  C   LIG    1       -2.299  -0.278  -0.073  0.00  0.00    +0.050 A 
ATOM      7  C   LIG    1       -2.366   1.108  -0.073  0.00  0.00    +0.120 A 
ENDROOT
BRANCH   4   8
ATOM      8  N   LIG    1       -5.860  -1.147  -0.345  0.00  0.00    -0.490 N 
ATOM      9  C   LIG    1       -6.800  -0.795   0.728  0.00  0.00    +0.200 C 
ATOM     10  C   LIG    1       -8.098  -1.585   0.546  0.00  0.00    +0.170 C 
ATOM     11  N   LIG    1       -7.799  -3.024   0.563  0.00  0.00    -0.550 NA
ATOM     12  C   LIG    1       -6.859  -3.376  -0.510  0.00  0.00    +0.170 C 
ATOM     13  C   LIG    1       -9.030  -3.819   0.467  0.00  0.00    +0.190 C 
ATOM     14  C   LIG    1       -5.561  -2.586  -0.329  0.00  0.00    +0.200 C 
ENDBRANCH   4   8
BRANCH   7  15
ATOM     15  N   LIG    1       -1.191   1.867   0.018  0.00  0.00    -0.660 N 
ATOM     16  H   LIG    1       -1.169   2.772  -0.331  0.00  0.00    +0.410 HD
ATOM     17  C   LIG    1       -0.091   1.339   0.591  0.00  0.00    +0.530 C 
ATOM     18  O   LIG    1       -0.145   0.247   1.116  0.00  0.00    -0.490 OA
BRANCH  17  19
ATOM     19  C   LIG    1        1.208   2.103   0.573  0.00  0.00    +0.090 C 
BRANCH  19  20
ATOM     20  S   LIG    1        2.492   1.131   1.409  0.00  0.00    -0.160 S 
BRANCH  20  21
ATOM     21  C   LIG    1        3.955   2.197   1.287  0.00  0.00    +0.110 C 
BRANCH  21  22
ATOM     22  C   LIG    1        5.127   1.520   1.948  0.00  0.00    -0.090 A 
ATOM     23  C   LIG    1        5.379   1.729   3.291  0.00  0.00    +0.070 A 
ATOM     24  C   LIG    1        6.450   1.103   3.900  0.00  0.00    -0.010 A 
ATOM     25  C   LIG    1        7.279   0.276   3.160  0.00  0.00    +0.110 A 
ATOM     26  C   LIG    1        7.029   0.071   1.814  0.00  0.00    -0.010 A 
ATOM     27  F   LIG    1        8.331  -0.332   3.753  0.00  0.00    -0.140 F 
ATOM     28  C   LIG    1        5.953   0.693   1.209  0.00  0.00    +0.070 A 
ENDBRANCH  21  22
ENDBRANCH  20  21
ENDBRANCH  19  20
ENDBRANCH  17  19
ENDBRANCH   7  15
TORSDOF 6
