REMARK  Name = ZINCrH000004sQfQ.0
REMARK                            x       y       z     vdW  Elec       q    Type
REMARK                         _______ _______ _______ _____ _____    ______ ____
ROOT
ATOM      1  C   LIG    1       -1.104   1.810   0.656  0.00  0.00    +0.590 C 
ATOM      2  N   LIG    1       -0.003   1.123   0.291  0.00  0.00    -0.580 N 
ATOM      3  H   LIG    1       -0.081   0.198   0.009  0.00  0.00    +0.390 HD
ATOM      4  O   LIG    1       -1.007   2.970   1.009  0.00  0.00    -0.490 OA
ENDROOT
BRANCH   1  12
ATOM      5  C   LIG    1       -6.763   2.801   1.730  0.00  0.00    +0.190 C 
ATOM      6  C   LIG    1       -6.193   1.495   1.240  0.00  0.00    +0.080 A 
ATOM      7  N   LIG    1       -6.841   0.398   0.981  0.00  0.00    -0.310 NA
ATOM      8  O   LIG    1       -6.132  -0.503   0.600  0.00  0.00    +0.090 OA
ATOM      9  C   LIG    1       -4.834  -0.161   0.534  0.00  0.00    +0.240 A 
ATOM     10  N   LIG    1       -3.718  -0.782   0.188  0.00  0.00    -0.460 NA
ATOM     11  C   LIG    1       -2.551  -0.178   0.217  0.00  0.00    +0.370 A 
ATOM     12  C   LIG    1       -2.427   1.155   0.627  0.00  0.00    -0.210 A 
ATOM     13  C   LIG    1       -3.576   1.859   1.004  0.00  0.00    +0.250 A 
ATOM     14  C   LIG    1       -4.788   1.188   0.954  0.00  0.00    -0.230 A 
ENDBRANCH   1  12
BRANCH   2  15
ATOM     15  N   LIG    1        1.251   1.746   0.313  0.00  0.00    -0.220 NA
ATOM     16  C   LIG    1        2.332   1.048   0.084  0.00  0.00    +0.190 C 
BRANCH  16  17
ATOM     17  C   LIG    1        3.640   1.729  -0.042  0.00  0.00    -0.050 A 
ATOM     18  C   LIG    1        4.819   0.983  -0.059  0.00  0.00    +0.040 A 
ATOM     19  C   LIG    1        6.035   1.624  -0.182  0.00  0.00    +0.010 A 
ATOM     20  C   LIG    1        6.087   3.003  -0.277  0.00  0.00    +0.030 A 
ATOM     21  C   LIG    1        4.922   3.748  -0.256  0.00  0.00    +0.010 A 
ATOM     22  C   LIG    1        3.699   3.120  -0.138  0.00  0.00    +0.060 A 
ENDBRANCH  16  17
BRANCH  16  23
ATOM     23  C   LIG    1        2.247  -0.424  -0.049  0.00  0.00    -0.100 A 
ATOM     24  C   LIG    1        1.491  -1.167   0.858  0.00  0.00    +0.010 A 
ATOM     25  C   LIG    1        1.413  -2.538   0.725  0.00  0.00    +0.020 A 
ATOM     26  C   LIG    1        2.090  -3.177  -0.298  0.00  0.00    +0.030 A 
ATOM     27  C   LIG    1        2.845  -2.446  -1.198  0.00  0.00    +0.020 A 
ATOM     28  C   LIG    1        2.928  -1.074  -1.079  0.00  0.00    +0.040 A 
ENDBRANCH  16  23
ENDBRANCH   2  15
TORSDOF 4
