REMARK  Name = ZINCqH0000004OMj.0
REMARK                            x       y       z     vdW  Elec       q    Type
REMARK                         _______ _______ _______ _____ _____    ______ ____
ROOT
ATOM      1  C   LIG    1        7.531   1.912  -3.255  0.00  0.00    +0.060 A 
ATOM      2  N   LIG    1        7.123   1.759  -2.027  0.00  0.00    -0.190 NA
ATOM      3  N   LIG    1        6.348   2.586  -1.427  0.00  0.00    -0.340 N 
ATOM      4  C   LIG    1        5.884   3.696  -2.037  0.00  0.00    +0.500 A 
ATOM      5  C   LIG    1        6.296   3.956  -3.422  0.00  0.00    -0.110 A 
ATOM      6  O   LIG    1        5.144   4.467  -1.451  0.00  0.00    -0.490 OA
ATOM      7  C   LIG    1        7.139   3.019  -4.017  0.00  0.00    +0.040 A 
ENDROOT
BRANCH   1   9
ATOM      8  C   LIG    1        8.722  -0.223  -2.842  0.00  0.00    +0.030 C 
ATOM      9  C   LIG    1        8.442   0.879  -3.866  0.00  0.00    +0.120 C 
ENDBRANCH   1   9
BRANCH   5  10
ATOM     10  C   LIG    1        5.847   5.117  -4.131  0.00  0.00    +0.270 C 
ATOM     11  N   LIG    1        5.491   6.037  -4.694  0.00  0.00    -0.390 NA
ENDBRANCH   5  10
BRANCH   7  12
ATOM     12  C   LIG    1        7.614   3.192  -5.437  0.00  0.00    +0.080 C 
ATOM     13  C   LIG    1        8.984   3.874  -5.437  0.00  0.00    +0.050 C 
ENDBRANCH   7  12
BRANCH   3  14
ATOM     14  C   LIG    1        5.950   2.315  -0.043  0.00  0.00    +0.420 C 
BRANCH  14  15
ATOM     15  C   LIG    1        4.683   1.500  -0.035  0.00  0.00    +0.140 A 
ATOM     16  N   LIG    1        3.527   2.118  -0.021  0.00  0.00    -0.430 NA
ATOM     17  C   LIG    1        2.376   1.439  -0.013  0.00  0.00    +0.130 A 
ATOM     18  C   LIG    1        1.139   2.107   0.003  0.00  0.00    +0.060 A 
ATOM     19  C   LIG    1       -0.017   1.389   0.010  0.00  0.00    +0.040 A 
ATOM     20  C   LIG    1        0.002  -0.004   0.002  0.00  0.00    +0.030 A 
ATOM     21  C   LIG    1        1.180  -0.687  -0.013  0.00  0.00    +0.040 A 
ATOM     22  C   LIG    1        2.392   0.022  -0.020  0.00  0.00    -0.090 A 
ATOM     23  C   LIG    1        3.631  -0.646  -0.036  0.00  0.00    -0.010 A 
ATOM     24  C   LIG    1        3.699  -2.152  -0.045  0.00  0.00    +0.120 C 
ATOM     25  C   LIG    1        4.771   0.108  -0.043  0.00  0.00    -0.080 A 
ATOM     26 CL   LIG    1        6.325  -0.665  -0.063  0.00  0.00    -0.030 Cl
ENDBRANCH  14  15
ENDBRANCH   3  14
TORSDOF 5
