REMARK  Name = ZINCrg00000zqI1T.0
REMARK                            x       y       z     vdW  Elec       q    Type
REMARK                         _______ _______ _______ _____ _____    ______ ____
ROOT
ATOM      1  C   LIG    1       -3.886   4.461   2.488  0.00  0.00    +0.560 C 
ATOM      2  N   LIG    1       -2.791   3.679   2.416  0.00  0.00    -0.610 N 
ATOM      3  C   LIG    1       -1.453   4.274   2.295  0.00  0.00    +0.270 C 
ATOM      4  C   LIG    1       -0.750   3.663   1.078  0.00  0.00    +0.020 C 
ATOM      5  C   LIG    1       -0.750   2.138   1.206  0.00  0.00    -0.010 C 
ATOM      6  C   LIG    1       -2.193   1.628   1.237  0.00  0.00    +0.020 C 
ATOM      7  C   LIG    1       -2.912   2.215   2.456  0.00  0.00    +0.270 C 
ATOM      8  O   LIG    1       -3.773   5.668   2.454  0.00  0.00    -0.540 OA
ENDROOT
BRANCH   1  11
ATOM      9  C   LIG    1       -6.962   3.609   3.919  0.00  0.00    +0.190 C 
ATOM     10  C   LIG    1       -5.579   2.961   3.825  0.00  0.00    +0.090 C 
ATOM     11  C   LIG    1       -5.252   3.835   2.612  0.00  0.00    -0.200 C 
ATOM     12  C   LIG    1       -6.187   3.814   1.402  0.00  0.00    +0.130 C 
ATOM     13  C   LIG    1       -6.635   4.483   2.706  0.00  0.00    -0.020 C 
BRANCH   9  15
ATOM     14  C   LIG    1       -8.062   3.764   6.043  0.00  0.00    +0.210 C 
ATOM     15  O   LIG    1       -7.149   4.361   5.119  0.00  0.00    -0.370 OA
ENDBRANCH   9  15
ENDBRANCH   1  11
BRANCH   5  16
ATOM     16  C   LIG    1       -0.019   1.526   0.010  0.00  0.00    +0.030 C 
BRANCH  16  17
ATOM     17  C   LIG    1        1.460   1.917   0.062  0.00  0.00    +0.240 C 
ATOM     18  C   LIG    1        2.166   1.409  -1.196  0.00  0.00    +0.020 C 
BRANCH  17  19
ATOM     19  N   LIG    1        2.082   1.320   1.246  0.00  0.00    -0.690 N 
ATOM     20  H   LIG    1        1.705   0.517   1.639  0.00  0.00    +0.410 HD
ATOM     21  C   LIG    1        3.178   1.886   1.790  0.00  0.00    +0.510 C 
ATOM     22  O   LIG    1        3.649   2.890   1.298  0.00  0.00    -0.520 OA
BRANCH  21  23
ATOM     23  C   LIG    1        3.812   1.277   2.998  0.00  0.00    +0.510 C 
ATOM     24  N   LIG    1        4.908   1.843   3.541  0.00  0.00    -0.700 N 
ATOM     25  H   LIG    1        5.285   2.645   3.148  0.00  0.00    +0.410 HD
ATOM     26  O   LIG    1        3.341   0.272   3.490  0.00  0.00    -0.520 OA
BRANCH  24  27
ATOM     27  C   LIG    1        5.531   1.245   4.725  0.00  0.00    +0.220 C 
ATOM     28  C   LIG    1        6.300   2.321   5.495  0.00  0.00    +0.040 C 
ATOM     29  C   LIG    1        6.496   0.140   4.292  0.00  0.00    +0.020 C 
ENDBRANCH  24  27
ENDBRANCH  21  23
ENDBRANCH  17  19
ENDBRANCH  16  17
ENDBRANCH   5  16
TORSDOF 7
