REMARK  Name = ZINCpe00000QUa9p.0
REMARK                            x       y       z     vdW  Elec       q    Type
REMARK                         _______ _______ _______ _____ _____    ______ ____
ROOT
ATOM      1  C   LIG    1        2.980  -0.215  -4.130  0.00  0.00    +0.010 A 
ATOM      2  N   LIG    1        2.092  -1.180  -4.302  0.00  0.00    -0.220 NA
ATOM      3  N   LIG    1        1.540  -1.481  -3.177  0.00  0.00    -0.360 N 
ATOM      4  H   LIG    1        0.862  -2.164  -3.055  0.00  0.00    +0.450 HD
ATOM      5  C   LIG    1        2.041  -0.710  -2.199  0.00  0.00    -0.000 A 
ATOM      6  C   LIG    1        1.697  -0.697  -0.730  0.00  0.00    +0.400 C 
ATOM      7  N   LIG    1        2.713   0.131  -0.053  0.00  0.00    -0.610 N 
ATOM      8  C   LIG    1        3.274  -0.276   1.103  0.00  0.00    +0.540 C 
ATOM      9  O   LIG    1        2.879  -1.286   1.646  0.00  0.00    -0.530 OA
ATOM     10  C   LIG    1        3.100   1.410  -0.667  0.00  0.00    +0.290 C 
ATOM     11  C   LIG    1        3.772   1.136  -2.019  0.00  0.00    +0.120 C 
ATOM     12  C   LIG    1        2.962   0.111  -2.762  0.00  0.00    -0.130 A 
ENDROOT
BRANCH   8  13
ATOM     13  C   LIG    1        4.392   0.523   1.720  0.00  0.00    -0.010 C 
ATOM     14  C   LIG    1        3.803   1.612   2.623  0.00  0.00    +0.050 C 
ATOM     15  C   LIG    1        4.921   2.567   3.059  0.00  0.00    +0.160 C 
ATOM     16  C   LIG    1        6.079   1.739   3.564  0.00  0.00    +0.200 A 
ATOM     17  N   LIG    1        7.087   2.144   4.280  0.00  0.00    -0.480 NA
ATOM     18  C   LIG    1        7.901   1.104   4.525  0.00  0.00    +0.140 A 
ATOM     19  C   LIG    1        7.373   0.012   3.936  0.00  0.00    -0.020 A 
ATOM     20  C   LIG    1        7.946  -1.382   3.949  0.00  0.00    +0.130 C 
ATOM     21  N   LIG    1        6.221   0.413   3.328  0.00  0.00    -0.450 N 
ATOM     22  C   LIG    1        5.284  -0.404   2.553  0.00  0.00    +0.310 C 
ENDBRANCH   8  13
BRANCH   1  23
ATOM     23  C   LIG    1        3.823   0.403  -5.172  0.00  0.00    +0.560 C 
ATOM     24  O   LIG    1        4.601   1.288  -4.878  0.00  0.00    -0.490 OA
BRANCH  23  26
ATOM     25  C   LIG    1        4.589   0.637  -7.421  0.00  0.00    +0.290 C 
ATOM     26  O   LIG    1        3.730  -0.016  -6.449  0.00  0.00    -0.340 OA
ENDBRANCH  23  26
ENDBRANCH   1  23
TORSDOF 3
