REMARK  Name = ZINCpk00000y6uc7.0
REMARK                            x       y       z     vdW  Elec       q    Type
REMARK                         _______ _______ _______ _____ _____    ______ ____
ROOT
ATOM      1  C   LIG    1        1.450   1.947  -0.001  0.00  0.00    +0.140 C 
ATOM      2  C   LIG    1        2.220   0.722   0.558  0.00  0.00    +0.070 C 
ATOM      3  C   LIG    1        1.409  -0.456  -0.038  0.00  0.00    +0.140 C 
ATOM      4  N   LIG    1        0.002  -0.004   0.002  0.00  0.00    -0.480 N 
ATOM      5  C   LIG    1       -0.018   1.470   0.010  0.00  0.00    +0.190 C 
ENDROOT
BRANCH   4   6
ATOM      6  C   LIG    1       -0.711  -0.504  -1.075  0.00  0.00    +0.350 A 
ATOM      7  C   LIG    1       -0.343  -0.178  -2.382  0.00  0.00    -0.120 A 
ATOM      8  C   LIG    1       -1.083  -0.706  -3.423  0.00  0.00    +0.190 A 
ATOM      9  N   LIG    1       -2.115  -1.490  -3.149  0.00  0.00    -0.520 NA
ATOM     10  C   LIG    1       -2.440  -1.776  -1.904  0.00  0.00    +0.510 A 
ATOM     11  C   LIG    1       -0.724  -0.388  -4.851  0.00  0.00    +0.150 C 
ATOM     12  N   LIG    1       -1.760  -1.299  -0.881  0.00  0.00    -0.500 NA
ENDBRANCH   4   6
BRANCH   1  14
ATOM     13  C   LIG    1        1.454   4.337   0.186  0.00  0.00    +0.200 C 
ATOM     14  O   LIG    1        1.619   3.082   0.851  0.00  0.00    -0.370 OA
ENDBRANCH   1  14
BRANCH   3  15
ATOM     15  C   LIG    1        1.589  -1.714   0.813  0.00  0.00    +0.300 C 
BRANCH  15  16
ATOM     16  N   LIG    1        0.669  -2.754   0.348  0.00  0.00    -0.720 N 
ATOM     17  H   LIG    1        0.073  -2.577  -0.397  0.00  0.00    +0.400 HD
ATOM     18  C   LIG    1        0.651  -3.958   0.954  0.00  0.00    +0.590 C 
ATOM     19  O   LIG    1        1.398  -4.181   1.887  0.00  0.00    -0.550 OA
BRANCH  18  20
ATOM     20  C   LIG    1       -0.274  -5.004   0.486  0.00  0.00    -0.240 A 
ATOM     21  C   LIG    1       -0.407  -6.269   0.989  0.00  0.00    +0.110 A 
ATOM     22  N   LIG    1       -1.362  -6.908   0.286  0.00  0.00    -0.440 N 
ATOM     23  C   LIG    1       -1.861  -6.090  -0.686  0.00  0.00    +0.150 A 
ATOM     24  C   LIG    1       -1.798  -8.286   0.526  0.00  0.00    +0.330 C 
ATOM     25  C   LIG    1        0.378  -6.848   2.138  0.00  0.00    +0.140 C 
ATOM     26  C   LIG    1       -1.234  -4.902  -0.619  0.00  0.00    -0.030 A 
ENDBRANCH  18  20
ENDBRANCH  15  16
ENDBRANCH   3  15
TORSDOF 5
