REMARK  Name = ZINCnE000000kOF1.1
REMARK                            x       y       z     vdW  Elec       q    Type
REMARK                         _______ _______ _______ _____ _____    ______ ____
ROOT
ATOM      1  N   LIG    1       -1.102  -0.826   0.111  0.00  0.00    -0.490 N 
ATOM      2  C   LIG    1       -0.682  -2.106   0.063  0.00  0.00    +0.400 A 
ATOM      3  N   LIG    1        0.660  -2.091  -0.068  0.00  0.00    -0.380 NA
ATOM      4  N   LIG    1        1.065  -0.750  -0.106  0.00  0.00    -0.300 NA
ATOM      5  S   LIG    1       -1.673  -3.499   0.158  0.00  0.00    -0.760 S 
ATOM      6  C   LIG    1        0.002  -0.004  -0.002  0.00  0.00    +0.200 A 
ENDROOT
BRANCH   6   7
ATOM      7  C   LIG    1       -0.019   1.476   0.002  0.00  0.00    +0.020 A 
ATOM      8  C   LIG    1       -1.188   2.160  -0.330  0.00  0.00    +0.020 A 
ATOM      9  C   LIG    1       -1.203   3.540  -0.321  0.00  0.00    +0.030 A 
ATOM     10  C   LIG    1       -0.057   4.245   0.007  0.00  0.00    -0.040 A 
ATOM     11  C   LIG    1        1.108   3.570   0.333  0.00  0.00    +0.040 A 
ATOM     12 CL   LIG    1       -0.081   5.980   0.011  0.00  0.00    -0.080 Cl
ATOM     13  C   LIG    1        1.133   2.191   0.332  0.00  0.00    +0.080 A 
ENDBRANCH   6   7
BRANCH   1  14
ATOM     14  C   LIG    1       -2.491  -0.383   0.255  0.00  0.00    +0.330 C 
BRANCH  14  21
ATOM     15  C   LIG    1       -7.615   2.396  -1.683  0.00  0.00    +0.010 C 
ATOM     16  C   LIG    1       -6.392   1.942  -1.563  0.00  0.00    -0.120 C 
ATOM     17  C   LIG    1       -5.606   1.502  -2.778  0.00  0.00    +0.060 C 
ATOM     18  C   LIG    1       -5.085   0.080  -2.530  0.00  0.00    +0.290 C 
ATOM     19  N   LIG    1       -4.436   0.038  -1.213  0.00  0.00    -0.610 N 
ATOM     20  C   LIG    1       -5.208   0.410  -0.021  0.00  0.00    +0.280 C 
ATOM     21  C   LIG    1       -3.149  -0.343  -1.100  0.00  0.00    +0.510 C 
ATOM     22  O   LIG    1       -2.519  -0.654  -2.089  0.00  0.00    -0.510 OA
ATOM     23  C   LIG    1       -5.731   1.846  -0.205  0.00  0.00    +0.060 C 
ENDBRANCH  14  21
ENDBRANCH   1  14
TORSDOF 3
