REMARK  Name = ZINCrH000004uxbk.0
REMARK                            x       y       z     vdW  Elec       q    Type
REMARK                         _______ _______ _______ _____ _____    ______ ____
ROOT
ATOM      1  O   LIG    1       -0.560   9.937  -0.216  0.00  0.00    -0.520 OA
ATOM      2  C   LIG    1        0.142   9.293   0.534  0.00  0.00    +0.530 C 
ATOM      3  N   LIG    1       -0.099   7.980   0.722  0.00  0.00    -0.720 N 
ATOM      4  H   LIG    1        0.463   7.465   1.322  0.00  0.00    +0.400 HD
ENDROOT
BRANCH   2   5
ATOM      5  C   LIG    1        1.285   9.960   1.256  0.00  0.00    +0.100 C 
ATOM      6  C   LIG    1        1.052   9.919   2.746  0.00  0.00    -0.090 A 
ATOM      7  C   LIG    1        0.909   8.872   3.632  0.00  0.00    +0.020 A 
ATOM      8  C   LIG    1        0.702   9.126   4.976  0.00  0.00    +0.020 A 
ATOM      9  C   LIG    1        0.638  10.430   5.434  0.00  0.00    +0.020 A 
ATOM     10  C   LIG    1        0.780  11.483   4.555  0.00  0.00    +0.040 A 
ATOM     11  C   LIG    1        0.990  11.235   3.197  0.00  0.00    -0.040 A 
ATOM     12  C   LIG    1        1.174  12.159   2.051  0.00  0.00    -0.060 A 
ATOM     13  C   LIG    1        1.192  13.553   1.989  0.00  0.00    +0.020 A 
ATOM     14  C   LIG    1        1.385  14.186   0.778  0.00  0.00    +0.020 A 
ATOM     15  C   LIG    1        1.560  13.445  -0.376  0.00  0.00    +0.020 A 
ATOM     16  C   LIG    1        1.543  12.062  -0.321  0.00  0.00    +0.040 A 
ATOM     17  C   LIG    1        1.351  11.421   0.884  0.00  0.00    -0.070 A 
ENDBRANCH   2   5
BRANCH   3  18
ATOM     18  C   LIG    1       -1.209   7.331   0.021  0.00  0.00    +0.310 C 
BRANCH  18  19
ATOM     19  C   LIG    1       -1.263   5.852   0.408  0.00  0.00    +0.130 C 
ATOM     20  C   LIG    1       -2.425   5.167  -0.324  0.00  0.00    +0.240 C 
ATOM     21  O   LIG    1       -2.437   3.785   0.050  0.00  0.00    -0.300 OA
ATOM     22  C   LIG    1       -1.241   3.136   0.031  0.00  0.00    +0.050 A 
ATOM     23  C   LIG    1       -1.220   1.750   0.017  0.00  0.00    +0.030 A 
ATOM     24  C   LIG    1       -0.013   1.076   0.008  0.00  0.00    +0.020 A 
ATOM     25  C   LIG    1        1.175   1.782   0.000  0.00  0.00    +0.020 A 
ATOM     26  C   LIG    1        1.161   3.164   0.007  0.00  0.00    +0.020 A 
ATOM     27  C   LIG    1       -0.046   3.846   0.021  0.00  0.00    +0.050 A 
ATOM     28  O   LIG    1       -0.045   5.207   0.019  0.00  0.00    -0.300 OA
ENDBRANCH  18  19
ENDBRANCH   3  18
TORSDOF 3
