REMARK  Name = ZINCrH000004qa77.0
REMARK                            x       y       z     vdW  Elec       q    Type
REMARK                         _______ _______ _______ _____ _____    ______ ____
ROOT
ATOM      1  C   LIG    1       -3.225  -4.621  -5.005  0.00  0.00    +0.200 C 
ATOM      2  C   LIG    1       -1.888  -3.931  -5.088  0.00  0.00    +0.150 A 
ATOM      3  C   LIG    1       -1.426  -2.947  -4.260  0.00  0.00    -0.110 A 
ATOM      4  N   LIG    1       -0.191  -2.599  -4.659  0.00  0.00    -0.190 NA
ATOM      5  N   LIG    1        0.143  -3.301  -5.686  0.00  0.00    -0.040 NA
ATOM      6  N   LIG    1       -0.917  -4.164  -5.996  0.00  0.00    -0.320 N 
ENDROOT
BRANCH   6   7
ATOM      7  C   LIG    1       -0.958  -5.096  -7.045  0.00  0.00    +0.090 A 
ATOM      8  C   LIG    1       -2.069  -5.162  -7.872  0.00  0.00    +0.090 A 
ATOM      9  C   LIG    1       -2.107  -6.080  -8.904  0.00  0.00    +0.060 A 
ATOM     10  C   LIG    1       -1.038  -6.933  -9.114  0.00  0.00    +0.010 A 
ATOM     11  C   LIG    1        0.072  -6.870  -8.291  0.00  0.00    +0.030 A 
ATOM     12 CL   LIG    1       -1.091  -8.085 -10.412  0.00  0.00    -0.030 Cl
ATOM     13  C   LIG    1        0.118  -5.950  -7.260  0.00  0.00    +0.140 A 
ATOM     14  F   LIG    1        1.205  -5.884  -6.460  0.00  0.00    -0.110 F 
ENDBRANCH   6   7
BRANCH   3  15
ATOM     15  C   LIG    1       -2.158  -2.368  -3.117  0.00  0.00    +0.620 C 
ATOM     16  N   LIG    1       -1.587  -1.401  -2.371  0.00  0.00    -0.640 N 
ATOM     17  H   LIG    1       -0.695  -1.086  -2.586  0.00  0.00    +0.420 HD
ATOM     18  O   LIG    1       -3.276  -2.763  -2.848  0.00  0.00    -0.490 OA
BRANCH  16  19
ATOM     19  C   LIG    1       -2.278  -0.854  -1.291  0.00  0.00    +0.300 A 
ATOM     20  C   LIG    1       -3.527  -1.201  -0.877  0.00  0.00    -0.110 A 
ATOM     21  C   LIG    1       -3.845  -0.410   0.231  0.00  0.00    +0.250 A 
ATOM     22  N   LIG    1       -2.830   0.377   0.479  0.00  0.00    -0.280 NA
ATOM     23  N   LIG    1       -1.827   0.116  -0.463  0.00  0.00    -0.380 N 
BRANCH  23  24
ATOM     24  C   LIG    1       -0.524   0.780  -0.542  0.00  0.00    +0.280 C 
ATOM     25  C   LIG    1        0.245   0.550   0.761  0.00  0.00    +0.060 C 
BRANCH  24  26
ATOM     26  C   LIG    1       -0.729   2.281  -0.755  0.00  0.00    -0.050 C 
ATOM     27  C   LIG    1       -0.319   2.865  -2.108  0.00  0.00    +0.020 C 
ATOM     28  C   LIG    1        0.522   3.156  -0.863  0.00  0.00    +0.030 C 
ENDBRANCH  24  26
ENDBRANCH  23  24
ENDBRANCH  16  19
ENDBRANCH   3  15
TORSDOF 5
