REMARK  Name = ZINCtV000002KmPJ.0
REMARK                            x       y       z     vdW  Elec       q    Type
REMARK                         _______ _______ _______ _____ _____    ______ ____
ROOT
ATOM      1  C   LIG    1        5.910   0.658  -1.466  0.00  0.00    +0.270 A 
ATOM      2  N   LIG    1        6.487   0.659  -0.289  0.00  0.00    -0.490 NA
ATOM      3  C   LIG    1        7.837   0.677  -0.443  0.00  0.00    +0.060 A 
ATOM      4  C   LIG    1        8.905   0.687   0.458  0.00  0.00    +0.130 A 
ATOM      5  C   LIG    1       10.198   0.706  -0.016  0.00  0.00    -0.190 A 
ATOM      6  C   LIG    1       10.448   0.717  -1.380  0.00  0.00    +0.090 A 
ATOM      7  C   LIG    1        9.404   0.709  -2.282  0.00  0.00    +0.030 A 
ATOM      8  C   LIG    1        8.096   0.688  -1.823  0.00  0.00    +0.080 A 
ATOM      9  N   LIG    1        6.859   0.670  -2.448  0.00  0.00    -0.470 N 
ENDROOT
BRANCH   5  10
ATOM     10  C   LIG    1       11.350   0.716   0.956  0.00  0.00    +0.510 C 
ATOM     11  F   LIG    1       10.961   1.364   2.133  0.00  0.00    -0.180 F 
ATOM     12  F   LIG    1       12.434   1.393   0.387  0.00  0.00    -0.180 F 
ATOM     13  F   LIG    1       11.724  -0.600   1.249  0.00  0.00    -0.180 F 
ENDBRANCH   5  10
BRANCH   1  14
ATOM     14  S   LIG    1        4.169   0.636  -1.740  0.00  0.00    +0.010 S 
BRANCH  14  15
ATOM     15  C   LIG    1        3.582   0.619  -0.028  0.00  0.00    +0.200 C 
BRANCH  15  22
ATOM     16  C   LIG    1        1.565   3.160   0.003  0.00  0.00    +0.160 C 
ATOM     17  C   LIG    1        1.189   1.701  -0.000  0.00  0.00    +0.040 A 
ATOM     18  N   LIG    1       -0.014   1.205   0.009  0.00  0.00    -0.360 NA
ATOM     19  O   LIG    1        0.002  -0.004   0.002  0.00  0.00    +0.100 OA
ATOM     20  C   LIG    1        1.255  -0.480  -0.013  0.00  0.00    +0.000 A 
ATOM     21  C   LIG    1        1.670  -1.928  -0.024  0.00  0.00    +0.210 C 
ATOM     22  C   LIG    1        2.075   0.599  -0.015  0.00  0.00    -0.210 A 
ENDBRANCH  15  22
ENDBRANCH  14  15
ENDBRANCH   1  14
BRANCH   9  23
ATOM     23  C   LIG    1        6.615   0.668  -3.893  0.00  0.00    +0.370 C 
BRANCH  23  24
ATOM     24  C   LIG    1        6.515   2.088  -4.387  0.00  0.00    -0.130 A 
ATOM     25  C   LIG    1        5.287   2.723  -4.420  0.00  0.00    +0.040 A 
ATOM     26  C   LIG    1        5.196   4.027  -4.869  0.00  0.00    +0.010 A 
ATOM     27  C   LIG    1        6.330   4.693  -5.295  0.00  0.00    +0.020 A 
ATOM     28  C   LIG    1        7.556   4.056  -5.267  0.00  0.00    +0.010 A 
ATOM     29  C   LIG    1        7.649   2.753  -4.813  0.00  0.00    +0.020 A 
ENDBRANCH  23  24
ENDBRANCH   9  23
TORSDOF 6
