REMARK  Name = ZINCrg00000SjSmD.0
REMARK                            x       y       z     vdW  Elec       q    Type
REMARK                         _______ _______ _______ _____ _____    ______ ____
ROOT
ATOM      1  N   LIG    1        0.002  -0.004   0.002  0.00  0.00    -0.600 N 
ATOM      2  C   LIG    1       -0.016   1.340   0.009  0.00  0.00    +0.520 C 
ATOM      3  C   LIG    1        1.397   1.879  -0.001  0.00  0.00    +0.080 C 
ATOM      4  C   LIG    1        2.261   0.673  -0.435  0.00  0.00    +0.010 C 
ATOM      5  O   LIG    1       -1.020   2.021   0.018  0.00  0.00    -0.530 OA
ATOM      6  C   LIG    1        1.377  -0.519  -0.004  0.00  0.00    +0.340 C 
ENDROOT
BRANCH   6   7
ATOM      7  C   LIG    1        1.765  -0.986   1.375  0.00  0.00    -0.260 A 
ATOM      8  C   LIG    1        2.784  -1.824   1.674  0.00  0.00    +0.100 A 
ATOM      9  N   LIG    1        2.800  -1.990   3.013  0.00  0.00    -0.370 N 
ATOM     10  N   LIG    1        1.751  -1.236   3.554  0.00  0.00    -0.290 NA
ATOM     11  C   LIG    1        3.745  -2.818   3.767  0.00  0.00    +0.360 C 
ATOM     12  C   LIG    1        3.733  -2.457   0.689  0.00  0.00    +0.140 C 
ATOM     13  C   LIG    1        1.131  -0.634   2.571  0.00  0.00    +0.250 A 
ENDBRANCH   6   7
BRANCH   4  14
ATOM     14  C   LIG    1        2.476   0.672  -1.927  0.00  0.00    +0.530 C 
ATOM     15  N   LIG    1        3.224   1.635  -2.500  0.00  0.00    -0.700 N 
ATOM     16  H   LIG    1        3.623   2.329  -1.953  0.00  0.00    +0.400 HD
ATOM     17  O   LIG    1        1.977  -0.196  -2.611  0.00  0.00    -0.520 OA
BRANCH  15  18
ATOM     18  C   LIG    1        3.434   1.635  -3.950  0.00  0.00    +0.240 C 
ATOM     19  C   LIG    1        4.849   1.918  -4.459  0.00  0.00    +0.050 C 
ATOM     20  C   LIG    1        3.752   2.974  -4.619  0.00  0.00    +0.020 C 
BRANCH  20  21
ATOM     21  C   LIG    1        3.207   3.207  -6.004  0.00  0.00    +0.000 A 
ATOM     22  C   LIG    1        3.062   2.285  -6.975  0.00  0.00    +0.150 A 
ATOM     23  N   LIG    1        2.542   2.894  -8.051  0.00  0.00    -0.490 NA
ATOM     24  C   LIG    1        2.366   4.160  -7.786  0.00  0.00    +0.390 A 
ATOM     25  N   LIG    1        2.769   4.397  -6.519  0.00  0.00    -0.460 N 
ATOM     26  C   LIG    1        2.741   5.687  -5.825  0.00  0.00    +0.320 C 
ENDBRANCH  20  21
ENDBRANCH  15  18
ENDBRANCH   4  14
BRANCH   1  28
ATOM     27  C   LIG    1       -1.617  -1.133  -1.442  0.00  0.00    +0.020 C 
ATOM     28  C   LIG    1       -1.196  -0.847   0.001  0.00  0.00    +0.280 C 
ENDBRANCH   1  28
TORSDOF 5
