REMARK  Name = ZINCqH0000000orL.0
REMARK                            x       y       z     vdW  Elec       q    Type
REMARK                         _______ _______ _______ _____ _____    ______ ____
ROOT
ATOM      1  C   LIG    1        0.911   3.655  -0.654  0.00  0.00    +0.000 C 
ATOM      2  C   LIG    1       -0.119   4.448   0.155  0.00  0.00    +0.020 C 
ATOM      3  C   LIG    1       -0.427   5.761  -0.567  0.00  0.00    +0.170 C 
ATOM      4  N   LIG    1       -0.950   5.473  -1.909  0.00  0.00    -0.530 NA
ATOM      5  C   LIG    1        0.040   4.753  -2.720  0.00  0.00    +0.180 C 
ATOM      6  C   LIG    1        0.362   3.409  -2.062  0.00  0.00    +0.030 C 
ENDROOT
BRANCH   1  15
ATOM      7  C   LIG    1        2.447   4.023   3.176  0.00  0.00    +0.090 C 
ATOM      8  C   LIG    1        2.183   3.685   1.731  0.00  0.00    +0.510 C 
ATOM      9  N   LIG    1        1.540   2.543   1.413  0.00  0.00    -0.600 N 
ATOM     10  C   LIG    1        1.232   1.582   2.489  0.00  0.00    +0.260 C 
ATOM     11  C   LIG    1        1.491   0.127   2.059  0.00  0.00    +0.020 C 
ATOM     12  C   LIG    1        2.763   0.044   1.251  0.00  0.00    +0.000 C 
ATOM     13  C   LIG    1        2.430   0.191  -0.231  0.00  0.00    +0.000 C 
ATOM     14  C   LIG    1        2.334   1.584  -0.694  0.00  0.00    +0.010 C 
ATOM     15  C   LIG    1        1.177   2.314   0.033  0.00  0.00    +0.240 C 
ATOM     16  O   LIG    1        2.547   4.440   0.855  0.00  0.00    -0.530 OA
ENDBRANCH   1  15
BRANCH   4  17
ATOM     17  C   LIG    1       -1.386   6.704  -2.581  0.00  0.00    +0.230 C 
BRANCH  17  18
ATOM     18  C   LIG    1       -2.568   7.284  -1.847  0.00  0.00    -0.120 A 
ATOM     19  C   LIG    1       -2.403   8.394  -1.047  0.00  0.00    +0.100 A 
ATOM     20  C   LIG    1       -3.500   8.935  -0.372  0.00  0.00    -0.040 A 
ATOM     21  C   LIG    1       -4.757   8.339  -0.504  0.00  0.00    +0.100 A 
ATOM     22  C   LIG    1       -4.909   7.226  -1.303  0.00  0.00    -0.010 A 
ATOM     23  C   LIG    1       -3.817   6.698  -1.974  0.00  0.00    +0.160 A 
ATOM     24  F   LIG    1       -3.972   5.607  -2.756  0.00  0.00    -0.120 F 
BRANCH  20  25
ATOM     25  C   LIG    1       -3.336  10.091   0.457  0.00  0.00    +0.250 C 
ATOM     26  N   LIG    1       -3.206  11.008   1.114  0.00  0.00    -0.410 NA
ENDBRANCH  20  25
ENDBRANCH  17  18
ENDBRANCH   4  17
TORSDOF 4
