REMARK  Name = ZINCrD0000075P5N.0
REMARK                            x       y       z     vdW  Elec       q    Type
REMARK                         _______ _______ _______ _____ _____    ______ ____
ROOT
ATOM      1  C   LIG    1       -0.013   1.086   0.008  0.00  0.00    +0.250 C 
ENDROOT
BRANCH   1   3
ATOM      2  O   LIG    1       -1.738   2.269  -1.088  0.00  0.00    -0.440 OA
ATOM      3  C   LIG    1       -0.742   1.585  -1.213  0.00  0.00    +0.440 C 
BRANCH   3   4
ATOM      4  C   LIG    1       -0.268   1.258  -2.498  0.00  0.00    -0.380 A 
ATOM      5  C   LIG    1        0.838   0.497  -2.784  0.00  0.00    +0.350 A 
ATOM      6  N   LIG    1        1.060   0.343  -4.062  0.00  0.00    -0.530 NA
ATOM      7  C   LIG    1        0.227   0.914  -4.887  0.00  0.00    +0.230 A 
ATOM      8  S   LIG    1       -0.994   1.746  -4.027  0.00  0.00    +0.250 S 
BRANCH   7   9
ATOM      9  N   LIG    1        0.315   0.851  -6.259  0.00  0.00    -0.450 N 
ATOM     10  C   LIG    1       -0.926   0.328  -6.843  0.00  0.00    +0.200 C 
ATOM     11  C   LIG    1       -0.847   0.408  -8.369  0.00  0.00    +0.040 C 
ATOM     12  C   LIG    1        0.352  -0.410  -8.856  0.00  0.00    +0.000 C 
ATOM     13  C   LIG    1        1.626   0.125  -8.196  0.00  0.00    +0.030 C 
ATOM     14  C   LIG    1        1.476   0.053  -6.675  0.00  0.00    +0.220 C 
ENDBRANCH   7   9
ENDBRANCH   3   4
ENDBRANCH   1   3
BRANCH   1  15
ATOM     15  O   LIG    1       -0.682   1.547   1.184  0.00  0.00    -0.330 OA
BRANCH  15  16
ATOM     16  C   LIG    1       -0.153   1.185   2.371  0.00  0.00    +0.520 C 
ATOM     17  O   LIG    1        0.850   0.496   2.406  0.00  0.00    -0.510 OA
BRANCH  16  18
ATOM     18  C   LIG    1       -0.765   1.607   3.578  0.00  0.00    -0.230 C 
ATOM     19  C   LIG    1       -0.235   1.244   4.771  0.00  0.00    +0.190 C 
ATOM     20  C   LIG    1       -0.933   1.659   5.996  0.00  0.00    -0.170 A 
ATOM     21  C   LIG    1       -0.335   1.549   7.250  0.00  0.00    +0.090 A 
ATOM     22  C   LIG    1       -1.022   1.964   8.372  0.00  0.00    -0.020 A 
ATOM     23  C   LIG    1       -2.302   2.482   8.257  0.00  0.00    +0.080 A 
ATOM     24  C   LIG    1       -2.914   2.577   7.020  0.00  0.00    -0.010 A 
ATOM     25  C   LIG    1       -2.244   2.156   5.885  0.00  0.00    +0.150 A 
ATOM     26  O   LIG    1       -2.837   2.193   4.667  0.00  0.00    -0.310 OA
ATOM     27  C   LIG    1       -2.003   2.465   3.537  0.00  0.00    +0.320 C 
ENDBRANCH  16  18
ENDBRANCH  15  16
ENDBRANCH   1  15
TORSDOF 6
