REMARK  Name = ZINCpe00000gN0qS.0
REMARK                            x       y       z     vdW  Elec       q    Type
REMARK                         _______ _______ _______ _____ _____    ______ ____
ROOT
ATOM      1  C   LIG    1        5.710  -0.235  -0.214  0.00  0.00    +0.240 C 
ATOM      2  C   LIG    1        6.220  -0.264   1.229  0.00  0.00    +0.030 C 
ATOM      3  C   LIG    1        7.663   0.247   1.265  0.00  0.00    +0.180 C 
ATOM      4  N   LIG    1        7.712   1.616   0.736  0.00  0.00    -0.510 NA
ATOM      5  C   LIG    1        7.271   1.661  -0.664  0.00  0.00    +0.190 C 
ATOM      6  C   LIG    1        5.817   1.193  -0.757  0.00  0.00    +0.040 C 
ENDROOT
BRANCH   1   8
ATOM      7  C   LIG    1        4.012  -1.980  -0.311  0.00  0.00    +0.600 C 
ATOM      8  N   LIG    1        4.310  -0.667  -0.247  0.00  0.00    -0.720 N 
ATOM      9  H   LIG    1        3.599  -0.009  -0.223  0.00  0.00    +0.400 HD
ATOM     10  O   LIG    1        4.904  -2.806  -0.341  0.00  0.00    -0.550 OA
BRANCH   7  14
ATOM     11  C   LIG    1       -0.085  -4.834  -0.493  0.00  0.00    +0.360 C 
ATOM     12  N   LIG    1        0.808  -3.674  -0.424  0.00  0.00    -0.360 N 
ATOM     13  C   LIG    1        2.149  -3.717  -0.409  0.00  0.00    +0.320 A 
ATOM     14  C   LIG    1        2.603  -2.415  -0.344  0.00  0.00    -0.300 A 
ATOM     15  C   LIG    1        1.466  -1.577  -0.315  0.00  0.00    +0.270 A 
ATOM     16  N   LIG    1        0.405  -2.336  -0.360  0.00  0.00    -0.300 NA
ENDBRANCH   7  14
ENDBRANCH   1   8
BRANCH   4  17
ATOM     17  C   LIG    1        9.057   2.189   0.883  0.00  0.00    +0.180 C 
BRANCH  17  18
ATOM     18  C   LIG    1        9.064   3.598   0.349  0.00  0.00    -0.090 A 
ATOM     19  C   LIG    1        8.043   4.468   0.681  0.00  0.00    +0.050 A 
ATOM     20  C   LIG    1        8.052   5.762   0.195  0.00  0.00    +0.000 A 
ATOM     21  C   LIG    1        9.076   6.182  -0.633  0.00  0.00    +0.010 A 
ATOM     22  C   LIG    1       10.094   5.310  -0.970  0.00  0.00    +0.000 A 
ATOM     23  C   LIG    1       10.088   4.018  -0.479  0.00  0.00    +0.010 A 
ENDBRANCH  17  18
BRANCH  17  24
ATOM     24  C   LIG    1        9.441   2.202   2.340  0.00  0.00    +0.530 C 
ATOM     25  O   LIG    1        8.581   2.273   3.193  0.00  0.00    -0.520 OA
ATOM     26  N   LIG    1       10.739   2.136   2.696  0.00  0.00    -0.860 N 
ATOM     27  H   LIG    1       10.986   2.144   3.634  0.00  0.00    +0.400 HD
ATOM     28  H   LIG    1       11.426   2.079   2.014  0.00  0.00    +0.400 HD
ENDBRANCH  17  24
ENDBRANCH   4  17
TORSDOF 5
