REMARK  Name = ZINCrD0000073nLi.0
REMARK                            x       y       z     vdW  Elec       q    Type
REMARK                         _______ _______ _______ _____ _____    ______ ____
ROOT
ATOM      1  C   LIG    1       -0.014   1.211   0.009  0.00  0.00    +0.520 C 
ATOM      2  O   LIG    1        0.002  -0.004  -0.013  0.00  0.00    -0.510 OA
ENDROOT
BRANCH   1   3
ATOM      3  C   LIG    1        1.252   1.966   0.001  0.00  0.00    -0.160 A 
ATOM      4  C   LIG    1        1.236   3.363   0.020  0.00  0.00    +0.110 A 
ATOM      5  C   LIG    1        2.420   4.064   0.019  0.00  0.00    -0.010 A 
ATOM      6  C   LIG    1        3.633   3.384  -0.014  0.00  0.00    +0.210 A 
ATOM      7  C   LIG    1        3.654   1.992  -0.039  0.00  0.00    -0.030 A 
ATOM      8  C   LIG    1        2.473   1.285  -0.032  0.00  0.00    +0.120 A 
BRANCH   6   9
ATOM      9  N   LIG    1        4.831   4.097  -0.021  0.00  0.00    -0.560 N 
ATOM     10  C   LIG    1        6.161   3.483   0.068  0.00  0.00    +0.270 C 
ATOM     11  C   LIG    1        7.119   4.630   0.459  0.00  0.00    +0.060 C 
ATOM     12  C   LIG    1        6.365   5.868  -0.081  0.00  0.00    +0.070 C 
ATOM     13  C   LIG    1        4.916   5.435  -0.117  0.00  0.00    +0.520 C 
ATOM     14  O   LIG    1        3.969   6.186  -0.216  0.00  0.00    -0.500 OA
ENDBRANCH   6   9
ENDBRANCH   1   3
BRANCH   1  15
ATOM     15  O   LIG    1       -1.190   1.869   0.035  0.00  0.00    -0.350 OA
BRANCH  15  16
ATOM     16  C   LIG    1       -2.397   1.061   0.035  0.00  0.00    +0.300 C 
BRANCH  16  22
ATOM     17  C   LIG    1       -4.881   1.411   0.071  0.00  0.00    +0.170 A 
ATOM     18  C   LIG    1       -6.000   2.236   0.100  0.00  0.00    -0.080 A 
ATOM     19  C   LIG    1       -5.846   3.604   0.122  0.00  0.00    +0.110 A 
ATOM     20  C   LIG    1       -4.561   4.159   0.117  0.00  0.00    -0.210 A 
ATOM     21  C   LIG    1       -3.441   3.319   0.093  0.00  0.00    +0.150 A 
ATOM     22  C   LIG    1       -3.604   1.963   0.065  0.00  0.00    -0.140 A 
BRANCH  20  23
ATOM     23  C   LIG    1       -4.387   5.617   0.141  0.00  0.00    +0.400 C 
ATOM     24  O   LIG    1       -3.273   6.096   0.136  0.00  0.00    -0.460 OA
ATOM     25  C   LIG    1       -5.594   6.519   0.171  0.00  0.00    +0.070 C 
ENDBRANCH  20  23
BRANCH  17  27
ATOM     26  C   LIG    1       -6.374  -0.437   0.056  0.00  0.00    +0.250 C 
ATOM     27  O   LIG    1       -5.035   0.064   0.049  0.00  0.00    -0.310 OA
ENDBRANCH  17  27
ENDBRANCH  16  22
ENDBRANCH  15  16
ENDBRANCH   1  15
TORSDOF 7
