REMARK  Name = ZINCtV00000jVvdF.0
REMARK                            x       y       z     vdW  Elec       q    Type
REMARK                         _______ _______ _______ _____ _____    ______ ____
ROOT
ATOM      1  C   LIG    1        4.483  -0.307  -1.272  0.00  0.00    +0.300 A 
ATOM      2  N   LIG    1        4.856   0.905  -1.588  0.00  0.00    -0.520 NA
ATOM      3  C   LIG    1        5.520   0.886  -2.754  0.00  0.00    +0.290 A 
ATOM      4  N   LIG    1        5.571  -0.355  -3.189  0.00  0.00    -0.290 NA
ATOM      5  N   LIG    1        4.907  -1.144  -2.236  0.00  0.00    -0.370 N 
ENDROOT
BRANCH   3   6
ATOM      6  C   LIG    1        6.097   2.064  -3.437  0.00  0.00    -0.110 A 
ATOM      7  C   LIG    1        6.767   2.034  -4.605  0.00  0.00    +0.060 A 
ATOM      8  C   LIG    1        7.209   3.264  -5.049  0.00  0.00    +0.040 A 
ATOM      9  C   LIG    1        6.915   4.293  -4.247  0.00  0.00    -0.150 A 
ATOM     10 CL   LIG    1        7.348   5.948  -4.545  0.00  0.00    -0.010 Cl
ATOM     11  S   LIG    1        6.022   3.719  -2.845  0.00  0.00    +0.230 S 
ENDBRANCH   3   6
BRANCH   1  12
ATOM     12  C   LIG    1        3.715  -0.699  -0.037  0.00  0.00    +0.130 C 
ATOM     13  C   LIG    1        4.518  -0.313   1.207  0.00  0.00    +0.080 C 
BRANCH  12  20
ATOM     14  C   LIG    1        1.210  -2.202  -0.021  0.00  0.00    +0.110 C 
ATOM     15  C   LIG    1        1.199  -0.695  -0.013  0.00  0.00    -0.130 A 
ATOM     16  C   LIG    1        0.002  -0.004   0.002  0.00  0.00    +0.260 A 
ATOM     17  N   LIG    1       -0.016   1.315   0.009  0.00  0.00    -0.480 NA
ATOM     18  C   LIG    1        1.096   2.023   0.003  0.00  0.00    +0.250 A 
ATOM     19  C   LIG    1        2.331   1.401  -0.013  0.00  0.00    +0.010 A 
ATOM     20  C   LIG    1        2.389   0.017  -0.021  0.00  0.00    -0.040 A 
ENDBRANCH  12  20
ENDBRANCH   1  12
BRANCH   5  21
ATOM     21  C   LIG    1        4.711  -2.596  -2.282  0.00  0.00    +0.330 C 
BRANCH  21  22
ATOM     22  C   LIG    1        3.403  -2.911  -3.010  0.00  0.00    +0.020 C 
BRANCH  22  23
ATOM     23  C   LIG    1        3.198  -4.426  -3.059  0.00  0.00    +0.080 C 
BRANCH  23  24
ATOM     24  C   LIG    1        1.909  -4.736  -3.775  0.00  0.00    -0.090 A 
ATOM     25  C   LIG    1        0.730  -4.838  -3.062  0.00  0.00    +0.000 A 
ATOM     26  C   LIG    1       -0.454  -5.118  -3.720  0.00  0.00    +0.000 A 
ATOM     27  C   LIG    1       -0.455  -5.306  -5.089  0.00  0.00    +0.000 A 
ATOM     28  C   LIG    1        0.725  -5.210  -5.802  0.00  0.00    +0.000 A 
ATOM     29  C   LIG    1        1.908  -4.925  -5.144  0.00  0.00    +0.000 A 
ENDBRANCH  23  24
ENDBRANCH  22  23
ENDBRANCH  21  22
ENDBRANCH   5  21
TORSDOF 7
