REMARK  Name = ZINCrg00001JduP7.0
REMARK                            x       y       z     vdW  Elec       q    Type
REMARK                         _______ _______ _______ _____ _____    ______ ____
ROOT
ATOM      1  C   LIG    1        2.288   0.811   8.130  0.00  0.00    +0.060 C 
ATOM      2  C   LIG    1        0.810   0.438   7.995  0.00  0.00    +0.140 C 
ENDROOT
BRANCH   2   3
ATOM      3  N   LIG    1        0.053   1.028   9.108  0.00  0.00    -0.490 NA
ATOM      4  C   LIG    1        0.566   0.550  10.410  0.00  0.00    +0.170 C 
ATOM      5  C   LIG    1       -0.642   0.445  11.360  0.00  0.00    +0.010 C 
ATOM      6  C   LIG    1       -1.863   0.861  10.508  0.00  0.00    +0.170 C 
ATOM      7  C   LIG    1       -1.373   0.617   9.059  0.00  0.00    +0.210 C 
BRANCH   6   8
ATOM      8  O   LIG    1       -2.992   0.037  10.806  0.00  0.00    -0.300 OA
BRANCH   8   9
ATOM      9  C   LIG    1       -3.761   0.403  11.866  0.00  0.00    +0.110 A 
ATOM     10  C   LIG    1       -3.376   1.466  12.669  0.00  0.00    -0.040 A 
ATOM     11  C   LIG    1       -4.162   1.839  13.743  0.00  0.00    +0.040 A 
ATOM     12  C   LIG    1       -5.326   1.148  14.024  0.00  0.00    +0.000 A 
ATOM     13  C   LIG    1       -5.711   0.085  13.228  0.00  0.00    +0.020 A 
ATOM     14  C   LIG    1       -4.931  -0.290  12.149  0.00  0.00    +0.060 A 
ATOM     15  F   LIG    1       -5.307  -1.330  11.372  0.00  0.00    -0.130 F 
ENDBRANCH   8   9
ENDBRANCH   6   8
ENDBRANCH   2   3
BRANCH   2  16
ATOM     16  C   LIG    1        0.275   0.966   6.689  0.00  0.00    +0.540 C 
ATOM     17  N   LIG    1        0.820   0.560   5.525  0.00  0.00    -1.130 NA
ATOM     18  O   LIG    1       -0.645   1.756   6.685  0.00  0.00    -0.610 OA
BRANCH  17  19
ATOM     19  S   LIG    1        0.233   1.140   4.089  0.00  0.00    +2.550 S 
ATOM     20  O   LIG    1       -1.102   0.657   4.036  0.00  0.00    -1.010 OA
ATOM     21  O   LIG    1        0.507   2.534   4.136  0.00  0.00    -1.010 OA
BRANCH  19  22
ATOM     22  C   LIG    1        1.252   0.333   2.824  0.00  0.00    -0.360 C 
BRANCH  22  23
ATOM     23  C   LIG    1        0.802   0.793   1.436  0.00  0.00    +0.060 C 
BRANCH  23  24
ATOM     24  C   LIG    1        1.662   0.113   0.369  0.00  0.00    +0.260 C 
BRANCH  24  25
ATOM     25  N   LIG    1        1.229   0.554  -0.963  0.00  0.00    -0.390 N 
ATOM     26  C   LIG    1        1.972  -0.188  -1.990  0.00  0.00    +0.310 C 
ATOM     27  C   LIG    1        1.492   1.992  -1.112  0.00  0.00    +0.310 C 
ATOM     28  H   LIG    1        0.241   0.380  -1.071  0.00  0.00    +0.430 HD
ENDBRANCH  24  25
ENDBRANCH  23  24
ENDBRANCH  22  23
ENDBRANCH  19  22
ENDBRANCH  17  19
ENDBRANCH   2  16
TORSDOF 9
