REMARK  Name = ZINCrH000004vAvL.0
REMARK                            x       y       z     vdW  Elec       q    Type
REMARK                         _______ _______ _______ _____ _____    ______ ____
ROOT
ATOM      1  N   LIG    1       -3.186   3.757   6.711  0.00  0.00    -1.060 N 
ATOM      2  H   LIG    1       -4.019   3.373   7.027  0.00  0.00    +0.430 HD
ENDROOT
BRANCH   1   6
ATOM      3  C   LIG    1       -1.064   1.894   3.654  0.00  0.00    -0.120 A 
ATOM      4  C   LIG    1       -2.223   2.619   3.361  0.00  0.00    +0.050 A 
ATOM      5  C   LIG    1       -2.925   3.229   4.375  0.00  0.00    +0.020 A 
ATOM      6  C   LIG    1       -2.477   3.135   5.690  0.00  0.00    +0.140 A 
ATOM      7  C   LIG    1       -1.319   2.419   5.984  0.00  0.00    +0.040 A 
ATOM      8  C   LIG    1       -0.616   1.802   4.975  0.00  0.00    +0.100 A 
BRANCH   3  10
ATOM      9  O   LIG    1        0.610   0.487   2.838  0.00  0.00    -0.530 OA
ATOM     10  C   LIG    1       -0.312   1.233   2.571  0.00  0.00    +0.570 C 
ATOM     11  N   LIG    1       -0.647   1.456   1.284  0.00  0.00    -0.620 N 
ATOM     12  C   LIG    1       -1.801   2.243   0.824  0.00  0.00    +0.250 C 
ATOM     13  C   LIG    1       -1.770   2.246  -0.719  0.00  0.00    +0.030 C 
ATOM     14  C   LIG    1       -0.283   1.939  -1.038  0.00  0.00    +0.040 C 
ATOM     15  C   LIG    1        0.083   0.956   0.102  0.00  0.00    +0.250 C 
ENDBRANCH   3  10
ENDBRANCH   1   6
BRANCH   1  16
ATOM     16  S   LIG    1       -2.608   5.153   7.389  0.00  0.00    +2.690 S 
ATOM     17  O   LIG    1       -1.263   4.891   7.764  0.00  0.00    -0.940 OA
ATOM     18  O   LIG    1       -3.600   5.593   8.307  0.00  0.00    -0.940 OA
BRANCH  16  19
ATOM     19  C   LIG    1       -2.541   6.364   6.111  0.00  0.00    -0.680 A 
ATOM     20  C   LIG    1       -1.434   6.439   5.287  0.00  0.00    +0.170 A 
ATOM     21  C   LIG    1       -1.383   7.387   4.282  0.00  0.00    +0.010 A 
ATOM     22  C   LIG    1       -2.435   8.265   4.106  0.00  0.00    +0.140 A 
ATOM     23  C   LIG    1       -3.541   8.194   4.933  0.00  0.00    -0.200 A 
ATOM     24  C   LIG    1       -3.594   7.244   5.936  0.00  0.00    +0.190 A 
BRANCH  23  25
ATOM     25  C   LIG    1       -4.689   9.152   4.742  0.00  0.00    +0.510 C 
ATOM     26  F   LIG    1       -5.881   8.536   5.139  0.00  0.00    -0.170 F 
ATOM     27  F   LIG    1       -4.776   9.511   3.393  0.00  0.00    -0.170 F 
ATOM     28  F   LIG    1       -4.475  10.296   5.517  0.00  0.00    -0.170 F 
ENDBRANCH  23  25
ENDBRANCH  16  19
ENDBRANCH   1  16
TORSDOF 5
