REMARK  Name = ZINCAx0000000bJp.0
REMARK                            x       y       z     vdW  Elec       q    Type
REMARK                         _______ _______ _______ _____ _____    ______ ____
ROOT
ATOM      1  O   LIG    1       -0.155   1.330   2.470  0.00  0.00    -0.350 OA
ENDROOT
BRANCH   1   2
ATOM      2  C   LIG    1       -0.529   1.775   1.261  0.00  0.00    +0.480 C 
ATOM      3  O   LIG    1       -1.413   2.594   1.166  0.00  0.00    -0.490 OA
BRANCH   2   4
ATOM      4  C   LIG    1        0.152   1.254   0.022  0.00  0.00    +0.260 C 
BRANCH   4   5
ATOM      5  C   LIG    1        1.646   1.576   0.088  0.00  0.00    +0.220 C 
ATOM      6  C   LIG    1        2.316   1.159  -1.223  0.00  0.00    +0.040 C 
BRANCH   5   7
ATOM      7  O   LIG    1        1.823   2.980   0.288  0.00  0.00    -0.550 OA
ATOM      8  H   LIG    1        1.444   3.528  -0.413  0.00  0.00    +0.380 HD
ENDBRANCH   5   7
ENDBRANCH   4   5
BRANCH   4   9
ATOM      9  N   LIG    1       -0.433   1.891  -1.161  0.00  0.00    -1.100 NA
ATOM     10  H   LIG    1       -0.728   2.814  -1.119  0.00  0.00    +0.430 HD
BRANCH   9  11
ATOM     11  S   LIG    1       -0.589   1.034  -2.570  0.00  0.00    +2.690 S 
ATOM     12  O   LIG    1        0.668   0.415  -2.805  0.00  0.00    -0.930 OA
ATOM     13  O   LIG    1       -1.212   1.907  -3.503  0.00  0.00    -0.940 OA
BRANCH  11  14
ATOM     14  C   LIG    1       -1.736  -0.268  -2.264  0.00  0.00    -0.680 A 
ATOM     15  C   LIG    1       -1.284  -1.495  -1.815  0.00  0.00    +0.140 A 
ATOM     16  C   LIG    1       -2.184  -2.515  -1.570  0.00  0.00    +0.020 A 
ATOM     17  C   LIG    1       -3.535  -2.312  -1.785  0.00  0.00    +0.020 A 
ATOM     18  C   LIG    1       -3.986  -1.085  -2.239  0.00  0.00    +0.020 A 
ATOM     19 CL   LIG    1       -4.665  -3.596  -1.485  0.00  0.00    -0.050 Cl
ATOM     20  C   LIG    1       -3.087  -0.064  -2.478  0.00  0.00    +0.150 A 
ENDBRANCH  11  14
ENDBRANCH   9  11
ENDBRANCH   4   9
ENDBRANCH   2   4
ENDBRANCH   1   2
BRANCH   1  21
ATOM     21  C   LIG    1       -0.855   1.875   3.620  0.00  0.00    +0.310 C 
BRANCH  21  26
ATOM     22  C   LIG    1       -1.805   2.320   8.693  0.00  0.00    +0.220 A 
ATOM     23  C   LIG    1       -2.341   2.908   7.547  0.00  0.00    -0.010 A 
ATOM     24  C   LIG    1       -1.865   2.576   6.312  0.00  0.00    +0.110 A 
ATOM     25  C   LIG    1       -0.833   1.638   6.194  0.00  0.00    -0.160 A 
ATOM     26  C   LIG    1       -0.303   1.262   4.881  0.00  0.00    +0.020 A 
ATOM     27  C   LIG    1        0.695   0.342   4.831  0.00  0.00    -0.050 A 
ATOM     28  C   LIG    1        1.198  -0.212   6.026  0.00  0.00    +0.510 A 
ATOM     29  O   LIG    1        0.708   0.136   7.226  0.00  0.00    -0.270 OA
ATOM     30  O   LIG    1        2.096  -1.033   5.967  0.00  0.00    -0.450 OA
ATOM     31  C   LIG    1       -0.288   1.040   7.346  0.00  0.00    +0.180 A 
ATOM     32  C   LIG    1       -0.782   1.388   8.593  0.00  0.00    +0.020 A 
BRANCH  22  34
ATOM     33  C   LIG    1       -1.478   2.703  11.014  0.00  0.00    +0.650 C 
ATOM     34  N   LIG    1       -2.302   2.670   9.948  0.00  0.00    -0.650 N 
ATOM     35  H   LIG    1       -3.241   2.890  10.054  0.00  0.00    +0.430 HD
ATOM     36  O   LIG    1       -0.285   2.523  10.866  0.00  0.00    -0.540 OA
BRANCH  33  37
ATOM     37  O   LIG    1       -1.975   2.936  12.243  0.00  0.00    -0.360 OA
BRANCH  37  39
ATOM     38  C   LIG    1       -1.774   3.234  14.652  0.00  0.00    +0.080 C 
ATOM     39  C   LIG    1       -1.029   2.957  13.344  0.00  0.00    +0.240 C 
ENDBRANCH  37  39
ENDBRANCH  33  37
ENDBRANCH  22  34
ENDBRANCH  21  26
ENDBRANCH   1  21
TORSDOF 12
