REMARK  Name = ZINCqH0000007ZkM.0
REMARK                            x       y       z     vdW  Elec       q    Type
REMARK                         _______ _______ _______ _____ _____    ______ ____
ROOT
ATOM      1  C   LIG    1        6.589   1.383   2.925  0.00  0.00    +0.560 C 
ATOM      2  N   LIG    1        5.426   0.846   2.505  0.00  0.00    -0.650 N 
ATOM      3  H   LIG    1        5.306   0.622   1.569  0.00  0.00    +0.420 HD
ATOM      4  O   LIG    1        6.769   1.595   4.108  0.00  0.00    -0.510 OA
ENDROOT
BRANCH   1   9
ATOM      5  C   LIG    1        9.835   2.575   1.459  0.00  0.00    -0.670 A 
ATOM      6  C   LIG    1        9.628   2.332   0.113  0.00  0.00    +0.150 A 
ATOM      7  C   LIG    1        8.435   1.782  -0.322  0.00  0.00    +0.000 A 
ATOM      8  C   LIG    1        7.446   1.466   0.587  0.00  0.00    +0.110 A 
ATOM      9  C   LIG    1        7.647   1.713   1.946  0.00  0.00    -0.160 A 
ATOM     10  C   LIG    1        8.852   2.269   2.378  0.00  0.00    +0.200 A 
BRANCH   5  12
ATOM     11  C   LIG    1       12.425   1.846   2.328  0.00  0.00    -0.250 C 
ATOM     12  S   LIG    1       11.357   3.277   2.002  0.00  0.00    +2.500 S 
ATOM     13  O   LIG    1       11.026   3.938   3.215  0.00  0.00    -0.930 OA
ATOM     14  O   LIG    1       11.829   4.004   0.875  0.00  0.00    -0.930 OA
ENDBRANCH   5  12
ENDBRANCH   1   9
BRANCH   2  15
ATOM     15  C   LIG    1        4.391   0.614   3.420  0.00  0.00    +0.170 A 
ATOM     16  C   LIG    1        4.682   0.408   4.760  0.00  0.00    +0.030 A 
ATOM     17  C   LIG    1        3.659   0.178   5.661  0.00  0.00    +0.030 A 
ATOM     18  C   LIG    1        2.345   0.152   5.231  0.00  0.00    -0.010 A 
ATOM     19  C   LIG    1        2.046   0.362   3.897  0.00  0.00    +0.000 A 
ATOM     20  C   LIG    1        3.066   0.588   2.986  0.00  0.00    +0.060 A 
BRANCH  20  21
ATOM     21  N   LIG    1        2.766   0.796   1.635  0.00  0.00    -0.520 N 
ATOM     22  C   LIG    1        1.937   2.009   1.456  0.00  0.00    +0.180 C 
ATOM     23  C   LIG    1        1.365   2.126   0.070  0.00  0.00    +0.030 C 
ATOM     24  C   LIG    1       -0.046   1.501   0.069  0.00  0.00    +0.000 C 
ATOM     25  C   LIG    1       -0.003   0.043   0.015  0.00  0.00    +0.000 C 
ATOM     26  C   LIG    1        0.723  -0.563   1.234  0.00  0.00    -0.020 C 
ATOM     27  C   LIG    1        2.207  -0.429   1.021  0.00  0.00    +0.210 C 
ENDBRANCH  20  21
ENDBRANCH   2  15
TORSDOF 4
