REMARK  Name = ZINCqH0000003pFZ.0
REMARK                            x       y       z     vdW  Elec       q    Type
REMARK                         _______ _______ _______ _____ _____    ______ ____
ROOT
ATOM      1  C   LIG    1       -0.981   8.744   0.048  0.00  0.00    -0.190 A 
ATOM      2  C   LIG    1       -0.015   7.775   0.040  0.00  0.00    +0.050 A 
ATOM      3  S   LIG    1        1.538   8.473   0.028  0.00  0.00    +0.310 S 
ATOM      4  C   LIG    1        0.896  10.107   0.041  0.00  0.00    -0.240 A 
ATOM      5  C   LIG    1        1.736  11.370   0.038  0.00  0.00    +0.120 C 
ATOM      6  C   LIG    1        0.849  12.551  -0.361  0.00  0.00    +0.020 C 
ATOM      7  C   LIG    1       -0.422  12.533   0.493  0.00  0.00    +0.020 C 
ATOM      8  C   LIG    1       -1.296  11.350   0.068  0.00  0.00    +0.090 C 
ATOM      9  C   LIG    1       -0.442  10.092   0.054  0.00  0.00    -0.040 A 
ENDROOT
BRANCH   2  10
ATOM     10  N   LIG    1       -0.266   6.413   0.036  0.00  0.00    -0.630 N 
ATOM     11  H   LIG    1       -1.180   6.088   0.043  0.00  0.00    +0.420 HD
ATOM     12  C   LIG    1        0.760   5.539   0.022  0.00  0.00    +0.560 C 
ATOM     13  O   LIG    1        1.906   5.946   0.013  0.00  0.00    -0.490 OA
BRANCH  12  14
ATOM     14  C   LIG    1        0.493   4.088   0.018  0.00  0.00    -0.130 A 
ATOM     15  C   LIG    1       -0.823   3.618   0.028  0.00  0.00    +0.070 A 
ATOM     16  C   LIG    1       -1.071   2.262   0.019  0.00  0.00    +0.040 A 
ATOM     17  C   LIG    1       -0.016   1.359   0.009  0.00  0.00    +0.070 A 
ATOM     18  O   LIG    1        0.002  -0.004   0.002  0.00  0.00    -0.300 OA
ATOM     19  C   LIG    1        1.335  -0.374   0.401  0.00  0.00    +0.440 C 
ATOM     20  O   LIG    1        2.140   0.746  -0.014  0.00  0.00    -0.300 OA
ATOM     21  C   LIG    1        1.300   1.822  -0.001  0.00  0.00    +0.030 A 
ATOM     22  C   LIG    1        1.555   3.179   0.004  0.00  0.00    +0.120 A 
ENDBRANCH  12  14
ENDBRANCH   2  10
BRANCH   1  23
ATOM     23  C   LIG    1       -2.415   8.450   0.054  0.00  0.00    +0.540 C 
ATOM     24  O   LIG    1       -3.006   8.325   1.110  0.00  0.00    -0.490 OA
BRANCH  23  25
ATOM     25  O   LIG    1       -3.081   8.319  -1.111  0.00  0.00    -0.350 OA
BRANCH  25  27
ATOM     26  C   LIG    1       -5.081   7.915  -2.441  0.00  0.00    +0.070 C 
ATOM     27  C   LIG    1       -4.501   8.028  -1.030  0.00  0.00    +0.200 C 
ENDBRANCH  25  27
ENDBRANCH  23  25
ENDBRANCH   1  23
TORSDOF 5
