REMARK  Name = ZINCqH0000005SKK.0
REMARK                            x       y       z     vdW  Elec       q    Type
REMARK                         _______ _______ _______ _____ _____    ______ ____
ROOT
ATOM      1  C   LIG    1       -2.403  -0.431   0.012  0.00  0.00    +0.430 C 
ENDROOT
BRANCH   1   2
ATOM      2  C   LIG    1       -3.815  -0.957   0.016  0.00  0.00    +0.160 A 
ATOM      3  N   LIG    1       -4.550  -1.222  -1.035  0.00  0.00    -0.450 NA
ATOM      4  C   LIG    1       -5.731  -1.666  -0.550  0.00  0.00    +0.220 A 
ATOM      5  N   LIG    1       -5.646  -1.644   0.755  0.00  0.00    -0.370 NA
ATOM      6  O   LIG    1       -4.552  -1.244   1.094  0.00  0.00    +0.090 OA
BRANCH   4   7
ATOM      7  C   LIG    1       -6.905  -2.097  -1.349  0.00  0.00    -0.070 A 
ATOM      8  C   LIG    1       -6.853  -2.061  -2.741  0.00  0.00    +0.110 A 
ATOM      9  C   LIG    1       -7.944  -2.468  -3.481  0.00  0.00    -0.070 A 
ATOM     10  C   LIG    1       -9.096  -2.902  -2.840  0.00  0.00    +0.150 A 
ATOM     11  C   LIG    1       -9.153  -2.933  -1.452  0.00  0.00    -0.010 A 
ATOM     12  C   LIG    1       -8.063  -2.533  -0.708  0.00  0.00    +0.100 A 
BRANCH  10  13
ATOM     13  O   LIG    1      -10.171  -3.297  -3.571  0.00  0.00    -0.310 OA
ATOM     14  C   LIG    1      -10.044  -3.240  -4.993  0.00  0.00    +0.240 C 
ENDBRANCH  10  13
ENDBRANCH   4   7
ENDBRANCH   1   2
BRANCH   1  15
ATOM     15  N   LIG    1       -2.426   1.033   0.020  0.00  0.00    -0.740 N 
ATOM     16  H   LIG    1       -3.274   1.505   0.026  0.00  0.00    +0.410 HD
BRANCH  15  19
ATOM     17  C   LIG    1       -0.050   3.851   0.023  0.00  0.00    -0.070 A 
ATOM     18  C   LIG    1       -1.250   3.138   0.030  0.00  0.00    +0.030 A 
ATOM     19  C   LIG    1       -1.227   1.752   0.017  0.00  0.00    +0.210 A 
ATOM     20  C   LIG    1       -0.013   1.076   0.008  0.00  0.00    -0.010 A 
ATOM     21  C   LIG    1        1.176   1.780   0.000  0.00  0.00    +0.080 A 
ATOM     22  C   LIG    1        1.166   3.162   0.008  0.00  0.00    -0.040 A 
ATOM     23 CL   LIG    1        2.663   4.041  -0.001  0.00  0.00    -0.040 Cl
BRANCH  17  24
ATOM     24  C   LIG    1       -0.066   5.327   0.030  0.00  0.00    +0.500 C 
ATOM     25  O   LIG    1        0.980   5.945   0.024  0.00  0.00    -0.480 OA
BRANCH  24  27
ATOM     26  C   LIG    1       -1.178   7.439   0.051  0.00  0.00    +0.280 C 
ATOM     27  O   LIG    1       -1.239   5.989   0.045  0.00  0.00    -0.360 OA
ENDBRANCH  24  27
ENDBRANCH  17  24
ENDBRANCH  15  19
ENDBRANCH   1  15
TORSDOF 7
