REMARK  Name = ZINCrH000004o1ty.0
REMARK                            x       y       z     vdW  Elec       q    Type
REMARK                         _______ _______ _______ _____ _____    ______ ____
ROOT
ATOM      1  N   LIG    1        1.811  -2.618   1.257  0.00  0.00    -0.500 NA
ATOM      2  C   LIG    1        3.147  -2.195   1.699  0.00  0.00    +0.190 C 
ENDROOT
BRANCH   1   4
ATOM      3  C   LIG    1        2.838  -4.664   0.388  0.00  0.00    +0.020 C 
ATOM      4  C   LIG    1        1.704  -4.083   1.234  0.00  0.00    +0.180 C 
BRANCH   4   5
ATOM      5  C   LIG    1        1.802  -4.617   2.640  0.00  0.00    +0.520 C 
ATOM      6  N   LIG    1        1.728  -5.943   2.864  0.00  0.00    -0.680 N 
ATOM      7  H   LIG    1        1.554  -6.551   2.128  0.00  0.00    +0.410 HD
ATOM      8  O   LIG    1        1.947  -3.852   3.570  0.00  0.00    -0.490 OA
BRANCH   6   9
ATOM      9  C   LIG    1        1.904  -6.445   4.159  0.00  0.00    +0.160 A 
ATOM     10  C   LIG    1        2.535  -7.667   4.351  0.00  0.00    -0.010 A 
ATOM     11  C   LIG    1        2.712  -8.158   5.631  0.00  0.00    +0.070 A 
ATOM     12  C   LIG    1        2.251  -7.438   6.719  0.00  0.00    -0.110 A 
ATOM     13  C   LIG    1        1.617  -6.222   6.529  0.00  0.00    +0.070 A 
ATOM     14 BR   LIG    1        2.487  -8.116   8.468  0.00  0.00    -0.050 Br
ATOM     15  C   LIG    1        1.442  -5.725   5.253  0.00  0.00    +0.030 A 
ENDBRANCH   6   9
ENDBRANCH   4   5
ENDBRANCH   1   4
BRANCH   1  16
ATOM     16  C   LIG    1        1.485  -2.046  -0.055  0.00  0.00    +0.240 C 
BRANCH  16  17
ATOM     17  C   LIG    1        1.462  -0.542   0.044  0.00  0.00    -0.060 A 
ATOM     18  C   LIG    1        2.542   0.196  -0.399  0.00  0.00    +0.010 A 
ATOM     19  C   LIG    1        2.522   1.576  -0.308  0.00  0.00    +0.000 A 
ATOM     20  C   LIG    1        1.422   2.221   0.227  0.00  0.00    +0.010 A 
ATOM     21  C   LIG    1        0.339   1.489   0.672  0.00  0.00    -0.030 A 
ATOM     22  C   LIG    1        0.356   0.103   0.582  0.00  0.00    +0.110 A 
BRANCH  22  23
ATOM     23  N   LIG    1       -0.738  -0.641   1.032  0.00  0.00    -0.490 N 
ATOM     24  C   LIG    1       -1.911  -0.424   0.173  0.00  0.00    +0.160 C 
ATOM     25  C   LIG    1       -3.066  -1.302   0.665  0.00  0.00    +0.230 C 
ATOM     26  O   LIG    1       -3.336  -1.000   2.037  0.00  0.00    -0.390 OA
ATOM     27  C   LIG    1       -2.214  -1.200   2.902  0.00  0.00    +0.230 C 
ATOM     28  C   LIG    1       -1.051  -0.322   2.433  0.00  0.00    +0.160 C 
ENDBRANCH  22  23
ENDBRANCH  16  17
ENDBRANCH   1  16
TORSDOF 6
