REMARK  Name = ZINCAx0000000b3W.0
REMARK                            x       y       z     vdW  Elec       q    Type
REMARK                         _______ _______ _______ _____ _____    ______ ____
ROOT
ATOM      1  C   LIG    1        1.306   7.042  -2.601  0.00  0.00    +0.340 C 
ATOM      2  N   LIG    1        0.831   6.057  -1.626  0.00  0.00    -0.550 N 
ATOM      3  C   LIG    1        0.917   4.742  -1.914  0.00  0.00    +0.590 A 
ATOM      4  C   LIG    1        0.458   3.798  -0.970  0.00  0.00    -0.150 A 
ATOM      5  C   LIG    1       -0.071   4.247   0.234  0.00  0.00    +0.310 A 
ATOM      6  N   LIG    1       -0.133   5.611   0.470  0.00  0.00    -0.510 N 
ATOM      7  C   LIG    1       -0.687   6.111   1.730  0.00  0.00    +0.340 C 
ATOM      8  N   LIG    1       -0.431   3.169   0.935  0.00  0.00    -0.460 NA
ATOM      9  C   LIG    1       -0.154   2.086   0.255  0.00  0.00    +0.290 A 
ATOM     10  N   LIG    1        0.394   2.420  -0.930  0.00  0.00    -0.400 N 
ATOM     11  O   LIG    1        1.385   4.373  -2.976  0.00  0.00    -0.500 OA
ATOM     12  C   LIG    1        0.316   6.478  -0.458  0.00  0.00    +0.710 A 
ATOM     13  O   LIG    1        0.254   7.671  -0.233  0.00  0.00    -0.530 OA
ENDROOT
BRANCH   9  14
ATOM     14  C   LIG    1       -0.414   0.677   0.724  0.00  0.00    +0.310 C 
BRANCH  14  15
ATOM     15  N   LIG    1       -0.407   0.641   2.192  0.00  0.00    -0.520 NA
ATOM     16  C   LIG    1        0.931   0.940   2.720  0.00  0.00    +0.190 C 
ATOM     17  C   LIG    1        0.878   0.970   4.250  0.00  0.00    +0.210 C 
ATOM     18  N   LIG    1        0.397  -0.326   4.747  0.00  0.00    -0.490 N 
ATOM     19  C   LIG    1       -0.942  -0.625   4.218  0.00  0.00    +0.200 C 
ATOM     20  C   LIG    1       -0.889  -0.656   2.689  0.00  0.00    +0.200 C 
BRANCH  18  21
ATOM     21  C   LIG    1        0.403  -0.361   6.144  0.00  0.00    +0.100 A 
ATOM     22  C   LIG    1       -0.765  -0.646   6.838  0.00  0.00    +0.000 A 
ATOM     23  C   LIG    1       -0.755  -0.684   8.219  0.00  0.00    +0.010 A 
ATOM     24  C   LIG    1        0.416  -0.429   8.911  0.00  0.00    +0.070 A 
ATOM     25  C   LIG    1        1.581  -0.139   8.221  0.00  0.00    +0.010 A 
ATOM     26  F   LIG    1        0.423  -0.462  10.262  0.00  0.00    -0.140 F 
ATOM     27  C   LIG    1        1.577  -0.105   6.841  0.00  0.00    +0.020 A 
ENDBRANCH  18  21
ENDBRANCH  14  15
ENDBRANCH   9  14
BRANCH  10  28
ATOM     28  C   LIG    1        0.836   1.496  -1.977  0.00  0.00    +0.390 C 
BRANCH  28  29
ATOM     29  C   LIG    1       -0.341   1.106  -2.833  0.00  0.00    -0.160 A 
ATOM     30  C   LIG    1       -0.757   1.938  -3.858  0.00  0.00    +0.140 A 
ATOM     31  C   LIG    1       -1.839   1.578  -4.645  0.00  0.00    +0.000 A 
ATOM     32  C   LIG    1       -2.502   0.390  -4.406  0.00  0.00    +0.090 A 
ATOM     33  C   LIG    1       -2.087  -0.441  -3.382  0.00  0.00    +0.030 A 
ATOM     34  F   LIG    1       -0.108   3.099  -4.092  0.00  0.00    -0.100 F 
ATOM     35  C   LIG    1       -1.003  -0.086  -2.599  0.00  0.00    +0.000 A 
ATOM     36 CL   LIG    1       -0.478  -1.133  -1.317  0.00  0.00    -0.050 Cl
ENDBRANCH  28  29
ENDBRANCH  10  28
TORSDOF 5
