REMARK  Name = ZINCrH000004m564.0
REMARK                            x       y       z     vdW  Elec       q    Type
REMARK                         _______ _______ _______ _____ _____    ______ ____
ROOT
ATOM      1  N   LIG    1        1.084   6.012   0.124  0.00  0.00    -0.600 N 
ATOM      2  C   LIG    1       -0.069   5.327  -0.011  0.00  0.00    +0.550 C 
ATOM      3  O   LIG    1       -1.125   5.923  -0.080  0.00  0.00    -0.500 OA
ATOM      4  C   LIG    1        2.365   5.301   0.108  0.00  0.00    +0.300 C 
ENDROOT
BRANCH   2   5
ATOM      5  C   LIG    1       -0.048   3.850  -0.074  0.00  0.00    -0.080 A 
ATOM      6  C   LIG    1        0.826   3.198  -0.946  0.00  0.00    +0.060 A 
ATOM      7  C   LIG    1        0.841   1.819  -0.999  0.00  0.00    +0.070 A 
ATOM      8  C   LIG    1       -0.008   1.083  -0.192  0.00  0.00    +0.060 A 
ATOM      9  C   LIG    1       -0.880   1.724   0.671  0.00  0.00    -0.040 A 
ATOM     10  C   LIG    1       -1.804   0.914   1.544  0.00  0.00    +0.110 C 
ATOM     11  C   LIG    1       -0.901   3.101   0.739  0.00  0.00    +0.020 A 
BRANCH  11  12
ATOM     12  N   LIG    1       -1.830   3.784   1.666  0.00  0.00    +0.020 N 
ATOM     13  O   LIG    1       -1.476   4.045   2.802  0.00  0.00    -0.140 OA
ATOM     14  O   LIG    1       -2.950   4.087   1.294  0.00  0.00    -0.110 OA
ENDBRANCH  11  12
ENDBRANCH   2   5
BRANCH   1  15
ATOM     15  C   LIG    1        1.056   7.468   0.285  0.00  0.00    +0.350 C 
BRANCH  15  18
ATOM     16  C   LIG    1        2.064   8.296   3.831  0.00  0.00    +0.110 A 
ATOM     17  C   LIG    1        2.136   7.982   2.484  0.00  0.00    -0.020 A 
ATOM     18  C   LIG    1        0.976   7.809   1.751  0.00  0.00    -0.100 A 
ATOM     19  C   LIG    1       -0.257   7.955   2.358  0.00  0.00    +0.050 A 
ATOM     20  C   LIG    1       -0.336   8.264   3.704  0.00  0.00    -0.010 A 
ATOM     21  C   LIG    1        0.823   8.437   4.444  0.00  0.00    +0.090 A 
BRANCH  16  23
ATOM     22  C   LIG    1        4.442   8.304   3.858  0.00  0.00    +0.240 C 
ATOM     23  O   LIG    1        3.204   8.465   4.553  0.00  0.00    -0.310 OA
ENDBRANCH  16  23
BRANCH  21  24
ATOM     24  O   LIG    1        0.747   8.746   5.766  0.00  0.00    -0.310 OA
BRANCH  24  25
ATOM     25  C   LIG    1       -0.561   8.876   6.328  0.00  0.00    +0.590 C 
ATOM     26  F   LIG    1       -1.252   7.668   6.184  0.00  0.00    -0.200 F 
ATOM     27  F   LIG    1       -1.255   9.893   5.664  0.00  0.00    -0.200 F 
ENDBRANCH  24  25
ENDBRANCH  21  24
ENDBRANCH  15  18
ENDBRANCH   1  15
TORSDOF 7
