REMARK  Name = ZINCrD00000F5LEy.0
REMARK                            x       y       z     vdW  Elec       q    Type
REMARK                         _______ _______ _______ _____ _____    ______ ____
ROOT
ATOM      1  C   LIG    1        1.787   3.104   0.002  0.00  0.00    +0.080 C 
ATOM      2  C   LIG    1        1.548   3.967  -1.254  0.00  0.00    +0.050 C 
ATOM      3  C   LIG    1        2.897   4.696  -1.476  0.00  0.00    +0.010 C 
ATOM      4  C   LIG    1        3.938   3.611  -1.104  0.00  0.00    +0.020 C 
ATOM      5  C   LIG    1        3.306   2.878   0.098  0.00  0.00    +0.040 C 
ENDROOT
BRANCH   1   6
ATOM      6  C   LIG    1        1.295   3.828   1.228  0.00  0.00    -0.060 A 
ATOM      7  C   LIG    1        0.410   3.206   2.088  0.00  0.00    +0.020 A 
ATOM      8  C   LIG    1       -0.044   3.867   3.214  0.00  0.00    +0.030 A 
ATOM      9  C   LIG    1        0.387   5.157   3.483  0.00  0.00    +0.050 A 
ATOM     10  O   LIG    1       -0.072   5.797   4.593  0.00  0.00    -0.310 OA
ATOM     11  C   LIG    1        0.666   6.945   5.026  0.00  0.00    +0.220 C 
ATOM     12  C   LIG    1        0.956   7.821   3.800  0.00  0.00    +0.220 C 
ATOM     13  O   LIG    1        1.717   7.047   2.866  0.00  0.00    -0.310 OA
ATOM     14  C   LIG    1        1.278   5.783   2.618  0.00  0.00    +0.050 A 
ATOM     15  C   LIG    1        1.733   5.112   1.493  0.00  0.00    +0.040 A 
ENDBRANCH   1   6
BRANCH   1  18
ATOM     16  C   LIG    1       -0.423   0.304  -0.351  0.00  0.00    +0.180 A 
ATOM     17  N   LIG    1       -0.251   1.601  -0.259  0.00  0.00    -0.470 NA
ATOM     18  C   LIG    1        1.077   1.782  -0.137  0.00  0.00    +0.190 A 
ATOM     19  N   LIG    1        1.633   0.608  -0.161  0.00  0.00    -0.370 NA
ATOM     20  O   LIG    1        0.789  -0.254  -0.283  0.00  0.00    +0.090 OA
BRANCH  16  21
ATOM     21  C   LIG    1       -1.737  -0.417  -0.505  0.00  0.00    +0.300 C 
BRANCH  21  24
ATOM     22  C   LIG    1       -0.731  -2.704  -2.393  0.00  0.00    +0.130 C 
ATOM     23  C   LIG    1       -1.625  -1.556  -2.785  0.00  0.00    +0.030 A 
ATOM     24  C   LIG    1       -2.056  -0.574  -1.970  0.00  0.00    -0.040 A 
ATOM     25  N   LIG    1       -2.843   0.252  -2.726  0.00  0.00    -0.560 N 
ATOM     26  H   LIG    1       -3.302   1.050  -2.419  0.00  0.00    +0.420 HD
ATOM     27  C   LIG    1       -2.860  -0.250  -3.979  0.00  0.00    +0.410 A 
ATOM     28  N   LIG    1       -2.132  -1.333  -4.006  0.00  0.00    -0.490 NA
ENDBRANCH  21  24
ENDBRANCH  16  21
ENDBRANCH   1  18
TORSDOF 4
