REMARK  Name = ZINCrD00000F5LEy.1
REMARK                            x       y       z     vdW  Elec       q    Type
REMARK                         _______ _______ _______ _____ _____    ______ ____
ROOT
ATOM      1  C   LIG    1        2.489   1.044  -0.017  0.00  0.00    +0.080 C 
ATOM      2  C   LIG    1        3.204   1.269  -1.365  0.00  0.00    +0.050 C 
ATOM      3  C   LIG    1        3.875  -0.093  -1.672  0.00  0.00    +0.010 C 
ATOM      4  C   LIG    1        2.820  -1.113  -1.177  0.00  0.00    +0.020 C 
ATOM      5  C   LIG    1        2.244  -0.471   0.103  0.00  0.00    +0.040 C 
ENDROOT
BRANCH   1   6
ATOM      6  C   LIG    1        1.175   1.782   0.000  0.00  0.00    -0.060 A 
ATOM      7  C   LIG    1        0.870   2.622   1.055  0.00  0.00    +0.020 A 
ATOM      8  C   LIG    1       -0.337   3.295   1.077  0.00  0.00    +0.020 A 
ATOM      9  C   LIG    1       -1.240   3.139   0.037  0.00  0.00    +0.050 A 
ATOM     10  O   LIG    1       -2.423   3.810   0.072  0.00  0.00    -0.310 OA
ATOM     11  C   LIG    1       -3.141   3.914  -1.163  0.00  0.00    +0.220 C 
ATOM     12  C   LIG    1       -3.158   2.531  -1.827  0.00  0.00    +0.220 C 
ATOM     13  O   LIG    1       -1.803   2.127  -2.056  0.00  0.00    -0.310 OA
ATOM     14  C   LIG    1       -0.932   2.295  -1.025  0.00  0.00    +0.050 A 
ATOM     15  C   LIG    1        0.278   1.618  -1.038  0.00  0.00    +0.040 A 
ENDBRANCH   1   6
BRANCH   1  18
ATOM     16  C   LIG    1        4.513   2.730   2.414  0.00  0.00    +0.190 A 
ATOM     17  N   LIG    1        3.788   2.776   1.322  0.00  0.00    -0.470 NA
ATOM     18  C   LIG    1        3.362   1.517   1.117  0.00  0.00    +0.190 A 
ATOM     19  N   LIG    1        3.836   0.784   2.080  0.00  0.00    -0.380 NA
ATOM     20  O   LIG    1        4.504   1.461   2.833  0.00  0.00    +0.080 OA
BRANCH  16  21
ATOM     21  C   LIG    1        5.220   3.887   3.071  0.00  0.00    +0.300 C 
BRANCH  21  24
ATOM     22  C   LIG    1        3.241   6.243   2.494  0.00  0.00    +0.160 C 
ATOM     23  C   LIG    1        3.448   5.552   3.817  0.00  0.00    +0.010 A 
ATOM     24  C   LIG    1        4.298   4.538   4.069  0.00  0.00    -0.010 A 
ATOM     25  N   LIG    1        4.185   4.214   5.366  0.00  0.00    -0.480 NA
ATOM     26  C   LIG    1        3.293   4.985   5.926  0.00  0.00    +0.400 A 
ATOM     27  N   LIG    1        2.806   5.831   4.993  0.00  0.00    -0.570 N 
ATOM     28  H   LIG    1        2.130   6.513   5.132  0.00  0.00    +0.420 HD
ENDBRANCH  21  24
ENDBRANCH  16  21
ENDBRANCH   1  18
TORSDOF 4
