REMARK  Name = ZINCrD000000CHok.0
REMARK                            x       y       z     vdW  Elec       q    Type
REMARK                         _______ _______ _______ _____ _____    ______ ____
ROOT
ATOM      1  C   LIG    1       -1.344   1.858   0.063  0.00  0.00    -0.030 A 
ATOM      2  C   LIG    1       -2.494   1.079   0.176  0.00  0.00    +0.360 A 
ATOM      3  N   LIG    1       -3.680   1.657   0.225  0.00  0.00    -0.500 NA
ATOM      4  C   LIG    1       -3.777   2.978   0.166  0.00  0.00    +0.310 A 
ATOM      5  C   LIG    1       -2.625   3.759   0.053  0.00  0.00    +0.230 A 
ATOM      6  N   LIG    1       -1.442   3.185   0.010  0.00  0.00    -0.370 NA
ENDROOT
BRANCH   1   8
ATOM      7  O   LIG    1        0.088   0.016   0.202  0.00  0.00    -0.530 OA
ATOM      8  C   LIG    1       -0.014   1.211   0.009  0.00  0.00    +0.590 C 
ATOM      9  N   LIG    1        1.082   1.947  -0.260  0.00  0.00    -0.590 N 
ATOM     10  C   LIG    1        2.433   1.367  -0.177  0.00  0.00    +0.290 C 
ATOM     11  C   LIG    1        3.035   1.389  -1.587  0.00  0.00    +0.080 C 
ATOM     12  C   LIG    1        2.845   2.738  -2.229  0.00  0.00    -0.050 A 
ATOM     13  C   LIG    1        3.670   3.063  -3.299  0.00  0.00    +0.000 A 
ATOM     14  C   LIG    1        3.541   4.277  -3.943  0.00  0.00    +0.040 A 
ATOM     15  C   LIG    1        2.584   5.180  -3.521  0.00  0.00    -0.010 A 
ATOM     16  C   LIG    1        1.766   4.863  -2.454  0.00  0.00    +0.110 A 
ATOM     17  F   LIG    1        0.831   5.746  -2.040  0.00  0.00    -0.130 F 
ATOM     18  C   LIG    1        1.897   3.641  -1.804  0.00  0.00    -0.130 A 
ATOM     19  C   LIG    1        0.979   3.360  -0.641  0.00  0.00    +0.360 C 
ENDBRANCH   1   8
BRANCH   4  20
ATOM     20  O   LIG    1       -4.994   3.571   0.217  0.00  0.00    -0.280 OA
BRANCH  20  21
ATOM     21  C   LIG    1       -6.130   2.711   0.333  0.00  0.00    +0.270 C 
BRANCH  21  22
ATOM     22  C   LIG    1       -7.386   3.542   0.374  0.00  0.00    -0.100 A 
ATOM     23  C   LIG    1       -7.888   3.977   1.587  0.00  0.00    +0.030 A 
ATOM     24  C   LIG    1       -9.038   4.743   1.624  0.00  0.00    +0.010 A 
ATOM     25  C   LIG    1       -9.692   5.066   0.450  0.00  0.00    +0.020 A 
ATOM     26  C   LIG    1       -9.194   4.626  -0.762  0.00  0.00    +0.010 A 
ATOM     27  C   LIG    1       -8.041   3.865  -0.800  0.00  0.00    +0.030 A 
ENDBRANCH  21  22
ENDBRANCH  20  21
ENDBRANCH   4  20
TORSDOF 4
