REMARK  Name = ZINCpe00000y4tro.0
REMARK                            x       y       z     vdW  Elec       q    Type
REMARK                         _______ _______ _______ _____ _____    ______ ____
ROOT
ATOM      1  C   LIG    1        1.215   2.527   0.799  0.00  0.00    +0.350 C 
ENDROOT
BRANCH   1   3
ATOM      2  C   LIG    1       -0.889   3.375   1.688  0.00  0.00    +0.600 C 
ATOM      3  N   LIG    1       -0.077   3.196   0.628  0.00  0.00    -0.610 N 
ATOM      4  C   LIG    1       -0.487   3.671  -0.696  0.00  0.00    +0.280 C 
ATOM      5  O   LIG    1       -0.508   3.075   2.803  0.00  0.00    -0.540 OA
BRANCH   2   8
ATOM      6  N   LIG    1       -4.077   4.684   0.558  0.00  0.00    -0.350 N 
ATOM      7  C   LIG    1       -2.864   4.175   0.290  0.00  0.00    +0.270 A 
ATOM      8  C   LIG    1       -2.240   3.935   1.497  0.00  0.00    -0.290 A 
ATOM      9  C   LIG    1       -3.140   4.321   2.516  0.00  0.00    +0.300 A 
ATOM     10  N   LIG    1       -4.225   4.769   1.947  0.00  0.00    -0.300 NA
BRANCH   6  12
ATOM     11  C   LIG    1       -4.794   6.516  -0.895  0.00  0.00    +0.040 C 
ATOM     12  C   LIG    1       -5.076   5.084  -0.435  0.00  0.00    +0.260 C 
ATOM     13  C   LIG    1       -5.007   4.140  -1.637  0.00  0.00    +0.060 C 
ENDBRANCH   6  12
ENDBRANCH   2   8
ENDBRANCH   1   3
BRANCH   1  14
ATOM     14  C   LIG    1        1.075   1.048   0.436  0.00  0.00    +0.080 C 
ATOM     15  C   LIG    1        1.674   0.024   1.402  0.00  0.00    +0.050 C 
ATOM     16  C   LIG    1        0.155   0.190   1.308  0.00  0.00    +0.050 C 
BRANCH  14  17
ATOM     17  N   LIG    1        1.130   0.740  -0.995  0.00  0.00    -0.690 N 
ATOM     18  H   LIG    1        0.345   0.393  -1.447  0.00  0.00    +0.400 HD
ATOM     19  C   LIG    1        2.273   0.934  -1.683  0.00  0.00    +0.510 C 
ATOM     20  O   LIG    1        3.287   1.249  -1.097  0.00  0.00    -0.500 OA
BRANCH  19  21
ATOM     21  C   LIG    1        2.290   0.759  -3.180  0.00  0.00    +0.190 C 
ATOM     22  C   LIG    1        1.395   1.822  -3.848  0.00  0.00    +0.060 C 
ATOM     23  C   LIG    1        2.379   2.583  -4.764  0.00  0.00    +0.050 C 
ATOM     24  C   LIG    1        3.574   1.652  -4.853  0.00  0.00    +0.490 C 
ATOM     25  O   LIG    1        4.329   1.540  -5.790  0.00  0.00    -0.440 OA
ATOM     26  O   LIG    1        3.636   0.975  -3.692  0.00  0.00    -0.320 OA
ENDBRANCH  19  21
ENDBRANCH  14  17
ENDBRANCH   1  14
TORSDOF 6
