REMARK  Name = ZINCpk00000ebOrp.0
REMARK                            x       y       z     vdW  Elec       q    Type
REMARK                         _______ _______ _______ _____ _____    ______ ____
ROOT
ATOM      1  O   LIG    1        0.002  -0.004   0.002  0.00  0.00    -0.510 OA
ATOM      2  C   LIG    1       -0.014   1.213   0.009  0.00  0.00    +0.640 A 
ATOM      3  N   LIG    1        1.063   2.017   0.003  0.00  0.00    -0.550 NA
ATOM      4  C   LIG    1        0.687   3.268   0.013  0.00  0.00    +0.410 A 
ATOM      5  N   LIG    1       -0.664   3.319   0.026  0.00  0.00    -0.500 N 
ATOM      6  H   LIG    1       -1.213   4.119   0.035  0.00  0.00    +0.450 HD
ATOM      7  N   LIG    1       -1.118   1.990   0.018  0.00  0.00    -0.440 N 
ENDROOT
BRANCH   4   8
ATOM      8  C   LIG    1        1.608   4.461   0.010  0.00  0.00    +0.220 C 
BRANCH   8   9
ATOM      9  C   LIG    1        3.039   3.989  -0.006  0.00  0.00    -0.080 A 
ATOM     10  C   LIG    1        3.709   3.772   1.184  0.00  0.00    +0.020 A 
ATOM     11  C   LIG    1        5.021   3.335   1.169  0.00  0.00    +0.000 A 
ATOM     12  C   LIG    1        5.665   3.125  -0.035  0.00  0.00    +0.010 A 
ATOM     13  C   LIG    1        4.997   3.347  -1.225  0.00  0.00    +0.000 A 
ATOM     14  C   LIG    1        3.684   3.779  -1.210  0.00  0.00    +0.020 A 
ENDBRANCH   8   9
ENDBRANCH   4   8
BRANCH   7  15
ATOM     15  C   LIG    1       -2.512   1.538   0.020  0.00  0.00    +0.500 C 
BRANCH  15  16
ATOM     16  C   LIG    1       -2.957   1.272  -1.395  0.00  0.00    +0.140 A 
ATOM     17  N   LIG    1       -3.511   2.128  -2.200  0.00  0.00    -0.370 NA
ATOM     18  O   LIG    1       -3.748   1.607  -3.269  0.00  0.00    +0.090 OA
ATOM     19  C   LIG    1       -3.363   0.327  -3.244  0.00  0.00    +0.190 A 
ATOM     20  N   LIG    1       -2.857   0.104  -2.054  0.00  0.00    -0.450 NA
BRANCH  19  21
ATOM     21  C   LIG    1       -3.486  -0.670  -4.368  0.00  0.00    +0.120 C 
ATOM     22  C   LIG    1       -2.704  -0.168  -5.585  0.00  0.00    +0.010 C 
ATOM     23  C   LIG    1       -2.901  -1.146  -6.747  0.00  0.00    +0.220 C 
ATOM     24  O   LIG    1       -4.295  -1.273  -7.031  0.00  0.00    -0.380 OA
ATOM     25  C   LIG    1       -5.069  -1.784  -5.943  0.00  0.00    +0.220 C 
ATOM     26  C   LIG    1       -4.960  -0.830  -4.750  0.00  0.00    +0.010 C 
ENDBRANCH  19  21
ENDBRANCH  15  16
ENDBRANCH   7  15
TORSDOF 5
