REMARK  Name = ZINCpk00000y6uNz.0
REMARK                            x       y       z     vdW  Elec       q    Type
REMARK                         _______ _______ _______ _____ _____    ______ ____
ROOT
ATOM      1  C   LIG    1        0.163   1.727  -4.536  0.00  0.00    +0.200 C 
ENDROOT
BRANCH   1   4
ATOM      2  N   LIG    1        1.392  -0.382  -4.940  0.00  0.00    -0.730 N 
ATOM      3  H   LIG    1        2.034   0.127  -5.460  0.00  0.00    +0.400 HD
ATOM      4  C   LIG    1        0.374   0.250  -4.323  0.00  0.00    +0.520 C 
ATOM      5  O   LIG    1       -0.373  -0.371  -3.597  0.00  0.00    -0.500 OA
BRANCH   2   7
ATOM      6  C   LIG    1        1.794  -2.196  -3.363  0.00  0.00    +0.060 C 
ATOM      7  C   LIG    1        1.529  -1.836  -4.827  0.00  0.00    +0.190 C 
ATOM      8  C   LIG    1        2.715  -2.288  -5.670  0.00  0.00    +0.080 C 
ATOM      9  C   LIG    1        2.306  -3.298  -6.761  0.00  0.00    -0.300 C 
ATOM     10  S   LIG    1        0.530  -2.909  -7.033  0.00  0.00    +2.370 S 
ATOM     11  O   LIG    1       -0.173  -4.092  -7.389  0.00  0.00    -0.930 OA
ATOM     12  O   LIG    1        0.410  -1.739  -7.830  0.00  0.00    -0.920 OA
ATOM     13  C   LIG    1        0.210  -2.499  -5.274  0.00  0.00    -0.290 C 
ENDBRANCH   2   7
ENDBRANCH   1   4
BRANCH   1  14
ATOM     14  N   LIG    1       -0.916   2.199  -3.658  0.00  0.00    -0.510 NA
BRANCH  14  15
ATOM     15  C   LIG    1       -0.468   2.264  -2.261  0.00  0.00    +0.190 C 
BRANCH  15  16
ATOM     16  C   LIG    1       -1.684   2.247  -1.334  0.00  0.00    +0.180 C 
ATOM     17  C   LIG    1       -1.232   2.154   0.145  0.00  0.00    +0.010 C 
ATOM     18  C   LIG    1       -2.453   2.785   0.868  0.00  0.00    +0.000 C 
ATOM     19  C   LIG    1       -2.914   3.857  -0.144  0.00  0.00    +0.190 C 
ATOM     20  O   LIG    1       -2.401   3.488  -1.429  0.00  0.00    -0.380 OA
ENDBRANCH  15  16
ENDBRANCH  14  15
BRANCH  14  21
ATOM     21  C   LIG    1       -1.428   3.500  -4.108  0.00  0.00    +0.280 C 
BRANCH  21  22
ATOM     22  C   LIG    1       -2.224   3.317  -5.374  0.00  0.00    -0.170 A 
ATOM     23  C   LIG    1       -3.540   3.107  -5.433  0.00  0.00    +0.030 A 
ATOM     24  C   LIG    1       -4.052   2.968  -6.711  0.00  0.00    +0.010 A 
ATOM     25  C   LIG    1       -3.152   3.065  -7.691  0.00  0.00    -0.050 A 
ATOM     26  S   LIG    1       -1.560   3.354  -7.003  0.00  0.00    +0.080 S 
ENDBRANCH  21  22
ENDBRANCH  14  21
ENDBRANCH   1  14
TORSDOF 7
