REMARK  Name = ZINCpe00000MJIXI.0
REMARK                            x       y       z     vdW  Elec       q    Type
REMARK                         _______ _______ _______ _____ _____    ______ ____
ROOT
ATOM      1  C   LIG    1        2.813  -0.493   5.343  0.00  0.00    +0.570 C 
ATOM      2  N   LIG    1        2.727   0.396   4.333  0.00  0.00    -0.720 N 
ATOM      3  H   LIG    1        3.397   1.092   4.242  0.00  0.00    +0.410 HD
ATOM      4  O   LIG    1        1.974  -1.365   5.457  0.00  0.00    -0.510 OA
ENDROOT
BRANCH   1   7
ATOM      5  C   LIG    1        5.934   0.628   7.129  0.00  0.00    +0.330 A 
ATOM      6  C   LIG    1        4.907   0.583   6.195  0.00  0.00    -0.030 A 
ATOM      7  C   LIG    1        3.930  -0.408   6.312  0.00  0.00    -0.050 A 
ATOM      8  C   LIG    1        4.037  -1.321   7.367  0.00  0.00    +0.000 A 
ATOM      9  C   LIG    1        5.093  -1.208   8.249  0.00  0.00    +0.170 A 
ATOM     10  C   LIG    1        5.217  -2.187   9.388  0.00  0.00    +0.140 C 
ATOM     11  N   LIG    1        5.995  -0.256   8.110  0.00  0.00    -0.520 NA
BRANCH   5  13
ATOM     12  C   LIG    1        7.921   1.579   8.018  0.00  0.00    +0.260 C 
ATOM     13  O   LIG    1        6.888   1.588   7.031  0.00  0.00    -0.310 OA
ENDBRANCH   5  13
ENDBRANCH   1   7
BRANCH   2  14
ATOM     14  C   LIG    1        1.623   0.312   3.375  0.00  0.00    +0.280 C 
ATOM     15  C   LIG    1        2.021  -0.538   2.146  0.00  0.00    +0.070 C 
ATOM     16  C   LIG    1        2.532   0.473   1.144  0.00  0.00    +0.520 C 
ATOM     17  N   LIG    1        2.144   1.711   1.498  0.00  0.00    -0.630 N 
ATOM     18  C   LIG    1        2.475   2.926   0.751  0.00  0.00    +0.320 C 
ATOM     19  O   LIG    1        3.195   0.207   0.164  0.00  0.00    -0.510 OA
ATOM     20  C   LIG    1        1.345   1.688   2.729  0.00  0.00    +0.310 C 
BRANCH  20  21
ATOM     21  C   LIG    1       -0.120   1.824   2.403  0.00  0.00    +0.060 A 
ATOM     22  C   LIG    1       -1.091   2.235   3.251  0.00  0.00    -0.100 A 
ATOM     23  C   LIG    1       -2.304   2.220   2.556  0.00  0.00    +0.240 A 
ATOM     24  N   LIG    1       -2.070   1.819   1.333  0.00  0.00    -0.290 NA
ATOM     25  N   LIG    1       -0.698   1.558   1.213  0.00  0.00    -0.350 N 
ATOM     26  C   LIG    1       -0.013   1.086   0.008  0.00  0.00    +0.340 C 
ENDBRANCH  20  21
ENDBRANCH   2  14
TORSDOF 4
