REMARK  Name = ZINCrH00000tj1dr.0
REMARK                            x       y       z     vdW  Elec       q    Type
REMARK                         _______ _______ _______ _____ _____    ______ ____
ROOT
ATOM      1  O   LIG    1       -5.672   3.808   0.051  0.00  0.00    -0.470 OA
ATOM      2  C   LIG    1       -5.881   2.614   0.045  0.00  0.00    +0.520 C 
ATOM      3  N   LIG    1       -4.848   1.748   0.035  0.00  0.00    -0.620 N 
ATOM      4  H   LIG    1       -5.016   0.793   0.031  0.00  0.00    +0.430 HD
ENDROOT
BRANCH   3   5
ATOM      5  C   LIG    1       -3.543   2.224   0.032  0.00  0.00    +0.270 A 
ATOM      6  N   LIG    1       -2.476   1.487   0.022  0.00  0.00    -0.490 NA
ATOM      7  C   LIG    1       -1.310   2.116   0.020  0.00  0.00    +0.130 A 
ATOM      8  C   LIG    1       -1.379   3.460   0.033  0.00  0.00    -0.110 A 
ATOM      9  S   LIG    1       -3.079   3.923   0.039  0.00  0.00    +0.210 S 
BRANCH   7  10
ATOM     10  C   LIG    1       -0.017   1.390   0.010  0.00  0.00    -0.020 A 
ATOM     11  C   LIG    1        1.184   2.098   0.002  0.00  0.00    +0.030 A 
ATOM     12  C   LIG    1        2.384   1.416  -0.013  0.00  0.00    +0.010 A 
ATOM     13  C   LIG    1        2.396   0.033  -0.020  0.00  0.00    +0.010 A 
ATOM     14  C   LIG    1        1.208  -0.675  -0.013  0.00  0.00    +0.010 A 
ATOM     15  C   LIG    1        0.002  -0.004   0.002  0.00  0.00    +0.040 A 
ENDBRANCH   7  10
ENDBRANCH   3   5
BRANCH   2  16
ATOM     16  C   LIG    1       -7.297   2.097   0.050  0.00  0.00    +0.300 C 
BRANCH  16  17
ATOM     17  O   LIG    1       -8.221   3.217   0.060  0.00  0.00    -0.330 OA
BRANCH  17  18
ATOM     18  C   LIG    1       -9.531   2.926   0.065  0.00  0.00    +0.480 C 
ATOM     19  O   LIG    1       -9.894   1.774   0.060  0.00  0.00    -0.500 OA
BRANCH  18  20
ATOM     20  C   LIG    1      -10.550   4.037   0.077  0.00  0.00    +0.130 C 
BRANCH  20  21
ATOM     21  C   LIG    1      -11.957   3.438   0.080  0.00  0.00    +0.230 C 
BRANCH  21  22
ATOM     22  O   LIG    1      -12.923   4.492   0.091  0.00  0.00    -0.310 OA
BRANCH  22  23
ATOM     23  C   LIG    1      -14.233   4.128   0.095  0.00  0.00    +0.130 A 
ATOM     24  C   LIG    1      -14.581   2.785   0.084  0.00  0.00    -0.080 A 
ATOM     25  C   LIG    1      -15.913   2.418   0.093  0.00  0.00    +0.050 A 
ATOM     26  C   LIG    1      -16.898   3.388   0.104  0.00  0.00    -0.040 A 
ATOM     27  C   LIG    1      -16.554   4.727   0.110  0.00  0.00    +0.050 A 
ATOM     28  C   LIG    1      -15.223   5.099   0.106  0.00  0.00    -0.020 A 
ENDBRANCH  22  23
ENDBRANCH  21  22
ENDBRANCH  20  21
ENDBRANCH  18  20
ENDBRANCH  17  18
ENDBRANCH  16  17
ENDBRANCH   2  16
TORSDOF 9
