REMARK  Name = ZINCrD0000072y88.0
REMARK                            x       y       z     vdW  Elec       q    Type
REMARK                         _______ _______ _______ _____ _____    ______ ____
ROOT
ATOM      1  C   LIG    1       -2.353   0.371  -1.684  0.00  0.00    +0.190 C 
ATOM      2  N   LIG    1       -2.413   0.962  -0.341  0.00  0.00    -0.520 NA
ENDROOT
BRANCH   2   3
ATOM      3  C   LIG    1       -3.722   1.583  -0.097  0.00  0.00    +0.240 C 
BRANCH   3   4
ATOM      4  C   LIG    1       -4.787   0.517  -0.068  0.00  0.00    -0.090 A 
ATOM      5  C   LIG    1       -5.576   0.298  -1.180  0.00  0.00    +0.050 A 
ATOM      6  C   LIG    1       -6.554  -0.679  -1.153  0.00  0.00    -0.010 A 
ATOM      7  C   LIG    1       -6.743  -1.440  -0.015  0.00  0.00    +0.060 A 
ATOM      8  C   LIG    1       -5.956  -1.225   1.100  0.00  0.00    -0.060 A 
ATOM      9  C   LIG    1       -4.971  -0.249   1.074  0.00  0.00    +0.130 A 
BRANCH   9  10
ATOM     10  O   LIG    1       -4.191  -0.039   2.168  0.00  0.00    -0.300 OA
BRANCH  10  11
ATOM     11  C   LIG    1       -4.437  -0.865   3.308  0.00  0.00    +0.600 C 
ATOM     12  F   LIG    1       -5.754  -0.679   3.743  0.00  0.00    -0.170 F 
ATOM     13  F   LIG    1       -3.553  -0.517   4.335  0.00  0.00    -0.130 F 
ATOM     14  F   LIG    1       -4.246  -2.207   2.962  0.00  0.00    -0.160 F 
ENDBRANCH  10  11
ENDBRANCH   9  10
ENDBRANCH   3   4
ENDBRANCH   2   3
BRANCH   2  15
ATOM     15  C   LIG    1       -1.326   1.929  -0.142  0.00  0.00    +0.220 C 
BRANCH  15  16
ATOM     16  C   LIG    1       -0.003   1.208  -0.158  0.00  0.00    +0.510 C 
ATOM     17  N   LIG    1        1.143   1.898   0.001  0.00  0.00    -0.670 N 
ATOM     18  H   LIG    1        1.123   2.867   0.053  0.00  0.00    +0.410 HD
ATOM     19  O   LIG    1        0.031   0.006  -0.319  0.00  0.00    -0.490 OA
BRANCH  17  20
ATOM     20  C   LIG    1        2.365   1.218   0.092  0.00  0.00    +0.160 A 
ATOM     21  C   LIG    1        3.520   1.795  -0.417  0.00  0.00    +0.000 A 
ATOM     22  C   LIG    1        4.726   1.125  -0.329  0.00  0.00    +0.060 A 
ATOM     23  C   LIG    1        4.785  -0.124   0.268  0.00  0.00    +0.020 A 
ATOM     24  O   LIG    1        5.830  -0.978   0.477  0.00  0.00    -0.310 OA
ATOM     25  C   LIG    1        5.232  -2.258   0.753  0.00  0.00    +0.430 C 
ATOM     26  O   LIG    1        3.947  -1.922   1.310  0.00  0.00    -0.310 OA
ATOM     27  C   LIG    1        3.627  -0.705   0.780  0.00  0.00    +0.050 A 
ATOM     28  C   LIG    1        2.421  -0.031   0.696  0.00  0.00    +0.050 A 
ENDBRANCH  17  20
ENDBRANCH  15  16
ENDBRANCH   2  15
TORSDOF 7
