REMARK  Name = ZINCvU0000000DMm.0
REMARK                            x       y       z     vdW  Elec       q    Type
REMARK                         _______ _______ _______ _____ _____    ______ ____
ROOT
ATOM      1  C   LIG    1        5.021   6.025  -0.015  0.00  0.00    +0.390 A 
ATOM      2  N   LIG    1        3.776   6.436  -0.006  0.00  0.00    -0.530 NA
ATOM      3  C   LIG    1        3.463   7.747   0.009  0.00  0.00    +0.400 A 
ATOM      4  N   LIG    1        2.198   8.155   0.025  0.00  0.00    -0.450 NA
ATOM      5  C   LIG    1        1.892   9.447   0.036  0.00  0.00    +0.290 A 
ATOM      6  C   LIG    1        2.887  10.433   0.031  0.00  0.00    +0.010 A 
ATOM      7  C   LIG    1        4.206  10.064   0.016  0.00  0.00    -0.040 A 
ATOM      8  C   LIG    1        4.510   8.700   0.005  0.00  0.00    -0.230 A 
ATOM      9  C   LIG    1        5.894   8.216  -0.012  0.00  0.00    +0.560 A 
ATOM     10  O   LIG    1        6.834   8.990  -0.016  0.00  0.00    -0.470 OA
ATOM     11  N   LIG    1        6.088   6.876  -0.021  0.00  0.00    -0.630 N 
ATOM     12  H   LIG    1        6.990   6.519  -0.032  0.00  0.00    +0.430 HD
ENDROOT
BRANCH   5  13
ATOM     13  C   LIG    1        0.475   9.852   0.052  0.00  0.00    -0.190 A 
ATOM     14  C   LIG    1       -0.578   9.007   0.052  0.00  0.00    +0.100 A 
ATOM     15  C   LIG    1       -1.810   9.622   0.074  0.00  0.00    +0.000 A 
ATOM     16  C   LIG    1       -1.776  10.960   0.081  0.00  0.00    -0.020 A 
ATOM     17  S   LIG    1       -0.107  11.512   0.068  0.00  0.00    +0.150 S 
ENDBRANCH   5  13
BRANCH   7  18
ATOM     18  C   LIG    1        5.299  11.101   0.011  0.00  0.00    +0.510 C 
ATOM     19  F   LIG    1        6.080  10.950  -1.141  0.00  0.00    -0.160 F 
ATOM     20  F   LIG    1        6.104  10.937   1.144  0.00  0.00    -0.160 F 
ATOM     21  F   LIG    1        4.730  12.379   0.024  0.00  0.00    -0.170 F 
ENDBRANCH   7  18
BRANCH   1  22
ATOM     22  S   LIG    1        5.332   4.291  -0.028  0.00  0.00    +0.080 S 
BRANCH  22  23
ATOM     23  C   LIG    1        3.632   3.667  -0.014  0.00  0.00    +0.110 C 
BRANCH  23  25
ATOM     24  O   LIG    1        4.708   1.566  -0.036  0.00  0.00    -0.420 OA
ATOM     25  C   LIG    1        3.650   2.160  -0.022  0.00  0.00    +0.410 C 
BRANCH  25  26
ATOM     26  C   LIG    1        2.386   1.410  -0.014  0.00  0.00    -0.210 A 
ATOM     27  C   LIG    1        1.164   2.091   0.002  0.00  0.00    +0.110 A 
ATOM     28  C   LIG    1       -0.017   1.381   0.010  0.00  0.00    +0.000 A 
ATOM     29  C   LIG    1        0.002  -0.004   0.002  0.00  0.00    +0.090 A 
ATOM     30  C   LIG    1        1.204  -0.687  -0.013  0.00  0.00    -0.020 A 
ATOM     31  C   LIG    1        2.398   0.009  -0.021  0.00  0.00    +0.160 A 
ATOM     32  F   LIG    1        3.572  -0.659  -0.037  0.00  0.00    -0.110 F 
ENDBRANCH  25  26
ENDBRANCH  23  25
ENDBRANCH  22  23
ENDBRANCH   1  22
TORSDOF 6
