REMARK  Name = ZINCqH0000005kpF.0
REMARK                            x       y       z     vdW  Elec       q    Type
REMARK                         _______ _______ _______ _____ _____    ______ ____
ROOT
ATOM      1  C   LIG    1       -0.661   2.541   1.448  0.00  0.00    +0.250 C 
ATOM      2  C   LIG    1       -0.634   1.014   1.336  0.00  0.00    +0.000 C 
ATOM      3  C   LIG    1        0.031   0.614   0.016  0.00  0.00    +0.300 C 
ATOM      4  N   LIG    1       -0.660   1.291  -1.090  0.00  0.00    -0.620 N 
ATOM      5  C   LIG    1       -0.818   2.751  -1.037  0.00  0.00    +0.270 C 
ATOM      6  C   LIG    1       -1.142   0.586  -2.133  0.00  0.00    +0.710 C 
ATOM      7  N   LIG    1       -1.862   1.204  -3.089  0.00  0.00    -0.690 N 
ATOM      8  H   LIG    1       -1.967   2.168  -3.070  0.00  0.00    +0.410 HD
ATOM      9  O   LIG    1       -0.926  -0.608  -2.211  0.00  0.00    -0.560 OA
ATOM     10  C   LIG    1       -1.478   3.127   0.294  0.00  0.00    +0.010 C 
ENDROOT
BRANCH   7  11
ATOM     11  C   LIG    1       -2.459   0.456  -4.110  0.00  0.00    +0.220 A 
ATOM     12  C   LIG    1       -2.563   0.983  -5.390  0.00  0.00    +0.000 A 
ATOM     13  C   LIG    1       -3.148   0.240  -6.396  0.00  0.00    +0.130 A 
ATOM     14  C   LIG    1       -3.639  -1.025  -6.128  0.00  0.00    -0.070 A 
ATOM     15  C   LIG    1       -3.542  -1.551  -4.853  0.00  0.00    +0.130 A 
ATOM     16  C   LIG    1       -2.954  -0.814  -3.843  0.00  0.00    +0.040 A 
BRANCH  14  17
ATOM     17  N   LIG    1       -4.271  -1.817  -7.207  0.00  0.00    +0.030 N 
ATOM     18  O   LIG    1       -4.357  -1.355  -8.331  0.00  0.00    -0.160 OA
ATOM     19  O   LIG    1       -4.704  -2.930  -6.972  0.00  0.00    -0.160 OA
ENDBRANCH  14  17
ENDBRANCH   7  11
BRANCH   1  21
ATOM     20  C   LIG    1       -2.679   2.622   2.983  0.00  0.00    +0.280 C 
ATOM     21  N   LIG    1       -1.270   2.927   2.723  0.00  0.00    -0.630 N 
BRANCH  21  22
ATOM     22  C   LIG    1       -0.507   3.584   3.691  0.00  0.00    +0.210 A 
ATOM     23  C   LIG    1        0.797   3.968   3.406  0.00  0.00    -0.080 A 
ATOM     24  C   LIG    1        1.547   4.623   4.364  0.00  0.00    +0.050 A 
ATOM     25  C   LIG    1        1.004   4.887   5.608  0.00  0.00    -0.060 A 
ATOM     26  C   LIG    1       -0.293   4.502   5.896  0.00  0.00    +0.050 A 
ATOM     27  C   LIG    1       -1.050   3.851   4.941  0.00  0.00    -0.080 A 
ENDBRANCH  21  22
ENDBRANCH   1  21
TORSDOF 4
