REMARK  Name = ZINCvU0000000AGt.0
REMARK                            x       y       z     vdW  Elec       q    Type
REMARK                         _______ _______ _______ _____ _____    ______ ____
ROOT
ATOM      1  C   LIG    1       -1.433  -0.534   0.013  0.00  0.00    +0.290 C 
ENDROOT
BRANCH   1   2
ATOM      2  C   LIG    1       -1.414  -2.036   0.129  0.00  0.00    -0.130 A 
ATOM      3  C   LIG    1       -1.631  -2.638   1.353  0.00  0.00    +0.050 A 
ATOM      4  C   LIG    1       -1.618  -4.017   1.458  0.00  0.00    +0.000 A 
ATOM      5  C   LIG    1       -1.377  -4.794   0.341  0.00  0.00    +0.060 A 
ATOM      6  C   LIG    1       -1.154  -4.194  -0.884  0.00  0.00    -0.010 A 
ATOM      7  C   LIG    1       -1.172  -2.814  -0.992  0.00  0.00    +0.110 A 
ATOM      8  F   LIG    1       -0.953  -2.226  -2.188  0.00  0.00    -0.130 F 
ENDBRANCH   1   2
BRANCH   1   9
ATOM      9  N   LIG    1       -2.155   0.035   1.154  0.00  0.00    -0.720 N 
ATOM     10  H   LIG    1       -1.666   0.333   1.937  0.00  0.00    +0.400 HD
ATOM     11  C   LIG    1       -3.498   0.143   1.116  0.00  0.00    +0.560 C 
ATOM     12  O   LIG    1       -4.110  -0.231   0.135  0.00  0.00    -0.500 OA
BRANCH  11  13
ATOM     13  C   LIG    1       -4.225   0.716   2.267  0.00  0.00    -0.170 A 
ATOM     14  C   LIG    1       -3.526   1.141   3.398  0.00  0.00    +0.110 A 
ATOM     15  C   LIG    1       -4.211   1.678   4.468  0.00  0.00    -0.130 A 
ATOM     16  C   LIG    1       -5.590   1.789   4.427  0.00  0.00    +0.120 A 
ATOM     17  C   LIG    1       -6.292   1.367   3.313  0.00  0.00    +0.000 A 
ATOM     18  I   LIG    1       -3.161   2.322   6.163  0.00  0.00    -0.010 I 
ATOM     19  C   LIG    1       -5.619   0.830   2.231  0.00  0.00    +0.180 A 
ATOM     20  F   LIG    1       -6.305   0.417   1.143  0.00  0.00    -0.100 F 
ENDBRANCH  11  13
ENDBRANCH   1   9
BRANCH   1  21
ATOM     21  C   LIG    1        0.002  -0.004   0.002  0.00  0.00    +0.310 C 
BRANCH  21  24
ATOM     22  O   LIG    1        2.203   1.556  -0.011  0.00  0.00    -0.510 OA
ATOM     23  C   LIG    1        1.140   2.151   0.003  0.00  0.00    +0.590 C 
ATOM     24  N   LIG    1       -0.018   1.461   0.010  0.00  0.00    -0.730 N 
ATOM     25  H   LIG    1       -0.864   1.934   0.017  0.00  0.00    +0.400 HD
BRANCH  23  26
ATOM     26  C   LIG    1        1.120   3.615   0.011  0.00  0.00    -0.000 A 
ATOM     27  C   LIG    1        2.224   4.434   0.011  0.00  0.00    +0.100 A 
ATOM     28  C   LIG    1        1.766   5.764   0.017  0.00  0.00    -0.220 A 
ATOM     29  C   LIG    1        0.383   5.740   0.030  0.00  0.00    +0.080 A 
ATOM     30  C   LIG    1       -0.185   7.018   0.042  0.00  0.00    +0.020 A 
ATOM     31  C   LIG    1        0.675   8.030   0.040  0.00  0.00    +0.000 A 
ATOM     32  S   LIG    1        2.326   7.432   0.021  0.00  0.00    +0.140 S 
ATOM     33  N   LIG    1       -0.009   4.406   0.026  0.00  0.00    -0.540 N 
ATOM     34  H   LIG    1       -0.925   4.086   0.032  0.00  0.00    +0.420 HD
ENDBRANCH  23  26
ENDBRANCH  21  24
ENDBRANCH   1  21
TORSDOF 6
