REMARK  Name = ZINCrg00000fSJ4J.0
REMARK                            x       y       z     vdW  Elec       q    Type
REMARK                         _______ _______ _______ _____ _____    ______ ____
ROOT
ATOM      1  N   LIG    1       -3.938   0.310   3.374  0.00  0.00    -0.490 N 
ATOM      2  C   LIG    1       -3.076  -0.786   2.910  0.00  0.00    +0.220 C 
ATOM      3  C   LIG    1       -2.316  -0.350   1.650  0.00  0.00    +0.320 C 
ATOM      4  N   LIG    1       -1.702   0.952   1.915  0.00  0.00    -0.470 N 
ATOM      5  C   LIG    1       -0.722   1.590   1.253  0.00  0.00    +0.200 A 
ATOM      6  N   LIG    1       -0.511   2.722   1.878  0.00  0.00    -0.290 NA
ATOM      7  N   LIG    1       -1.314   2.821   2.883  0.00  0.00    -0.280 NA
ATOM      8  C   LIG    1       -2.060   1.762   2.946  0.00  0.00    +0.170 A 
ATOM      9  C   LIG    1       -3.142   1.415   3.937  0.00  0.00    +0.370 C 
ENDROOT
BRANCH   1  19
ATOM     10  O   LIG    1       -8.108  -0.715   1.003  0.00  0.00    -0.510 OA
ATOM     11  C   LIG    1       -7.803  -0.685   2.177  0.00  0.00    +0.510 C 
ATOM     12  C   LIG    1       -8.875  -0.806   3.230  0.00  0.00    +0.350 C 
ATOM     13  N   LIG    1       -8.302  -1.425   4.434  0.00  0.00    -0.720 N 
ATOM     14  H   LIG    1       -8.791  -2.100   4.930  0.00  0.00    +0.420 HD
ATOM     15  C   LIG    1       -7.038  -1.014   4.841  0.00  0.00    +0.420 A 
ATOM     16  N   LIG    1       -6.671  -1.036   6.115  0.00  0.00    -0.530 NA
ATOM     17  C   LIG    1       -5.465  -0.633   6.470  0.00  0.00    +0.540 A 
ATOM     18  N   LIG    1       -4.582  -0.204   5.592  0.00  0.00    -0.550 NA
ATOM     19  C   LIG    1       -4.874  -0.148   4.293  0.00  0.00    +0.330 A 
ATOM     20  C   LIG    1       -6.135  -0.564   3.876  0.00  0.00    +0.030 A 
ATOM     21  N   LIG    1       -6.509  -0.543   2.527  0.00  0.00    -0.640 N 
ATOM     22  H   LIG    1       -5.834  -0.426   1.841  0.00  0.00    +0.420 HD
ENDBRANCH   1  19
BRANCH   5  23
ATOM     23  C   LIG    1        0.003   1.095   0.028  0.00  0.00    +0.210 C 
BRANCH  23  24
ATOM     24  C   LIG    1       -0.724   1.559  -1.207  0.00  0.00    -0.090 A 
ATOM     25  C   LIG    1       -1.714   0.771  -1.764  0.00  0.00    +0.010 A 
ATOM     26  C   LIG    1       -2.383   1.200  -2.895  0.00  0.00    +0.000 A 
ATOM     27  C   LIG    1       -2.056   2.411  -3.475  0.00  0.00    +0.000 A 
ATOM     28  C   LIG    1       -1.063   3.197  -2.921  0.00  0.00    +0.010 A 
ATOM     29  C   LIG    1       -0.396   2.771  -1.787  0.00  0.00    +0.030 A 
ENDBRANCH  23  24
ENDBRANCH   5  23
TORSDOF 3
