REMARK  Name = ZINCkj00000dE6lc.0
REMARK                            x       y       z     vdW  Elec       q    Type
REMARK                         _______ _______ _______ _____ _____    ______ ____
ROOT
ATOM      1  C   LIG    1       -1.330   1.944   0.019  0.00  0.00    +0.020 C 
ATOM      2  C   LIG    1       -1.486   2.746   1.329  0.00  0.00    +0.290 C 
ATOM      3  N   LIG    1       -2.264   1.851   2.225  0.00  0.00    -0.390 N 
ATOM      4  C   LIG    1       -3.270   1.224   1.329  0.00  0.00    +0.280 C 
ATOM      5  H   LIG    1       -1.664   1.148   2.629  0.00  0.00    +0.430 HD
ATOM      6  C   LIG    1       -2.503   0.943   0.019  0.00  0.00    +0.090 C 
ENDROOT
BRANCH   3   7
ATOM      7  C   LIG    1       -2.928   2.628   3.280  0.00  0.00    +0.170 C 
ATOM      8  C   LIG    1       -1.873   3.255   4.196  0.00  0.00    +0.020 C 
ATOM      9  C   LIG    1       -2.574   3.997   5.337  0.00  0.00    +0.250 C 
ATOM     10  O   LIG    1       -3.415   3.086   6.049  0.00  0.00    -0.370 OA
ATOM     11  C   LIG    1       -4.450   2.505   5.254  0.00  0.00    +0.250 C 
ATOM     12  C   LIG    1       -3.824   1.703   4.110  0.00  0.00    +0.020 C 
ENDBRANCH   3   7
BRANCH   6  13
ATOM     13  C   LIG    1       -3.395   1.182  -1.173  0.00  0.00    -0.100 A 
ATOM     14  C   LIG    1       -4.021   2.404  -1.334  0.00  0.00    +0.000 A 
ATOM     15  C   LIG    1       -4.834   2.624  -2.430  0.00  0.00    +0.020 A 
ATOM     16  C   LIG    1       -5.030   1.619  -3.358  0.00  0.00    +0.030 A 
ATOM     17  C   LIG    1       -4.409   0.395  -3.194  0.00  0.00    +0.020 A 
ATOM     18  C   LIG    1       -3.591   0.177  -2.101  0.00  0.00    +0.030 A 
ENDBRANCH   6  13
BRANCH   1  22
ATOM     19  N   LIG    1        1.143   1.898   0.001  0.00  0.00    -0.850 N 
ATOM     20  H   LIG    1        1.130   2.868   0.007  0.00  0.00    +0.410 HD
ATOM     21  H   LIG    1        1.990   1.425  -0.009  0.00  0.00    +0.420 HD
ATOM     22  C   LIG    1       -0.014   1.209   0.009  0.00  0.00    +0.510 C 
ATOM     23  O   LIG    1        0.002  -0.004   0.002  0.00  0.00    -0.520 OA
ENDBRANCH   1  22
TORSDOF 3
