REMARK  Name = ZINCkj00000dE6lc.1
REMARK                            x       y       z     vdW  Elec       q    Type
REMARK                         _______ _______ _______ _____ _____    ______ ____
ROOT
ATOM      1  C   LIG    1       -0.013   1.086   0.008  0.00  0.00    +0.010 C 
ATOM      2  C   LIG    1        1.429   1.654  -0.003  0.00  0.00    +0.290 C 
ATOM      3  N   LIG    1        1.815   1.574  -1.435  0.00  0.00    -0.390 N 
ATOM      4  C   LIG    1        0.606   1.951  -2.200  0.00  0.00    +0.280 C 
ATOM      5  H   LIG    1        2.096   0.634  -1.668  0.00  0.00    +0.430 HD
ATOM      6  C   LIG    1       -0.609   1.632  -1.309  0.00  0.00    +0.090 C 
ENDROOT
BRANCH   3   7
ATOM      7  C   LIG    1        2.907   2.515  -1.718  0.00  0.00    +0.170 C 
ATOM      8  C   LIG    1        3.272   2.443  -3.204  0.00  0.00    +0.020 C 
ATOM      9  C   LIG    1        4.464   3.366  -3.473  0.00  0.00    +0.250 C 
ATOM     10  O   LIG    1        5.561   2.984  -2.641  0.00  0.00    -0.370 OA
ATOM     11  C   LIG    1        5.291   3.078  -1.241  0.00  0.00    +0.250 C 
ATOM     12  C   LIG    1        4.135   2.142  -0.881  0.00  0.00    +0.020 C 
ENDBRANCH   3   7
BRANCH   6  13
ATOM     13  C   LIG    1       -1.477   0.588  -1.963  0.00  0.00    -0.110 A 
ATOM     14  C   LIG    1       -0.933  -0.625  -2.341  0.00  0.00    -0.020 A 
ATOM     15  C   LIG    1       -1.730  -1.585  -2.937  0.00  0.00    +0.020 A 
ATOM     16  C   LIG    1       -3.069  -1.328  -3.164  0.00  0.00    +0.030 A 
ATOM     17  C   LIG    1       -3.612  -0.113  -2.790  0.00  0.00    +0.020 A 
ATOM     18  C   LIG    1       -2.816   0.845  -2.190  0.00  0.00    +0.040 A 
ENDBRANCH   6  13
BRANCH   1  22
ATOM     19  N   LIG    1       -0.383   1.279   2.446  0.00  0.00    -0.850 N 
ATOM     20  H   LIG    1       -0.877   1.610   3.213  0.00  0.00    +0.420 HD
ATOM     21  H   LIG    1        0.396   0.716   2.577  0.00  0.00    +0.400 HD
ATOM     22  C   LIG    1       -0.780   1.600   1.199  0.00  0.00    +0.530 C 
ATOM     23  O   LIG    1       -1.754   2.304   1.035  0.00  0.00    -0.510 OA
ENDBRANCH   1  22
TORSDOF 3
