REMARK  Name = ZINCvU0000000F8n.0
REMARK                            x       y       z     vdW  Elec       q    Type
REMARK                         _______ _______ _______ _____ _____    ______ ____
ROOT
ATOM      1  C   LIG    1        4.458   0.805  -0.036  0.00  0.00    +0.290 A 
ATOM      2  N   LIG    1        3.668   1.839  -0.023  0.00  0.00    -0.480 NA
ATOM      3  C   LIG    1        2.375   1.426  -0.013  0.00  0.00    +0.050 A 
ATOM      4  C   LIG    1        1.149   2.096   0.002  0.00  0.00    +0.070 A 
ATOM      5  C   LIG    1       -0.017   1.383   0.010  0.00  0.00    +0.000 A 
ATOM      6  C   LIG    1        0.002  -0.004   0.002  0.00  0.00    +0.030 A 
ATOM      7  C   LIG    1        1.200  -0.687  -0.013  0.00  0.00    +0.010 A 
ATOM      8  C   LIG    1        2.394   0.021  -0.021  0.00  0.00    +0.050 A 
ATOM      9  N   LIG    1        3.726  -0.342  -0.035  0.00  0.00    -0.480 N 
ENDROOT
BRANCH   1  13
ATOM     10  O   LIG    1        8.542   2.990   1.231  0.00  0.00    -0.520 OA
ATOM     11  C   LIG    1        7.683   2.446   0.570  0.00  0.00    +0.520 C 
ATOM     12  C   LIG    1        6.493   1.703   1.139  0.00  0.00    +0.090 C 
ATOM     13  C   LIG    1        5.963   0.869  -0.050  0.00  0.00    +0.090 C 
ATOM     14  C   LIG    1        6.471   1.686  -1.260  0.00  0.00    +0.290 C 
ATOM     15  N   LIG    1        7.648   2.416  -0.773  0.00  0.00    -0.610 N 
BRANCH  15  16
ATOM     16  C   LIG    1        8.655   3.031  -1.640  0.00  0.00    +0.350 C 
BRANCH  16  17
ATOM     17  C   LIG    1        8.254   4.452  -1.946  0.00  0.00    -0.110 A 
ATOM     18  C   LIG    1        7.475   4.727  -3.053  0.00  0.00    +0.020 A 
ATOM     19  C   LIG    1        7.104   6.030  -3.331  0.00  0.00    +0.000 A 
ATOM     20  C   LIG    1        7.520   7.058  -2.506  0.00  0.00    +0.010 A 
ATOM     21  C   LIG    1        8.303   6.783  -1.400  0.00  0.00    +0.000 A 
ATOM     22  C   LIG    1        8.671   5.480  -1.121  0.00  0.00    +0.030 A 
ENDBRANCH  16  17
ENDBRANCH  15  16
ENDBRANCH   1  13
BRANCH   9  23
ATOM     23  C   LIG    1        4.255  -1.708  -0.048  0.00  0.00    +0.340 C 
BRANCH  23  24
ATOM     24  C   LIG    1        4.423  -2.169  -1.472  0.00  0.00    -0.060 C 
ATOM     25  C   LIG    1        5.599  -2.613  -1.891  0.00  0.00    +0.040 C 
BRANCH  25  26
ATOM     26  C   LIG    1        5.764  -3.066  -3.288  0.00  0.00    -0.070 A 
ATOM     27  C   LIG    1        4.681  -3.032  -4.168  0.00  0.00    +0.010 A 
ATOM     28  C   LIG    1        4.843  -3.451  -5.473  0.00  0.00    +0.000 A 
ATOM     29  C   LIG    1        6.072  -3.913  -5.907  0.00  0.00    +0.010 A 
ATOM     30  C   LIG    1        7.149  -3.954  -5.038  0.00  0.00    +0.010 A 
ATOM     31  C   LIG    1        7.001  -3.533  -3.732  0.00  0.00    +0.030 A 
ENDBRANCH  25  26
ENDBRANCH  23  24
ENDBRANCH   9  23
TORSDOF 6
