REMARK  Name = ZINCvU0000000DWY.0
REMARK                            x       y       z     vdW  Elec       q    Type
REMARK                         _______ _______ _______ _____ _____    ______ ____
ROOT
ATOM      1  N   LIG    1       -0.638   0.182   6.424  0.00  0.00    -0.510 N 
ATOM      2  C   LIG    1       -0.572   1.108   7.400  0.00  0.00    +0.560 A 
ATOM      3  C   LIG    1       -0.138   2.425   7.072  0.00  0.00    -0.230 A 
ATOM      4  C   LIG    1        0.199   2.693   5.749  0.00  0.00    +0.090 A 
ATOM      5  S   LIG    1        0.702   4.371   5.589  0.00  0.00    +0.210 S 
ATOM      6  C   LIG    1        0.453   4.685   7.295  0.00  0.00    -0.050 A 
ATOM      7  N   LIG    1        0.112   1.713   4.828  0.00  0.00    -0.510 NA
ATOM      8  C   LIG    1        0.021   3.595   7.928  0.00  0.00    +0.010 A 
ATOM      9  O   LIG    1       -0.879   0.823   8.545  0.00  0.00    -0.500 OA
ATOM     10  C   LIG    1       -0.294   0.507   5.144  0.00  0.00    +0.370 A 
ENDROOT
BRANCH   8  11
ATOM     11  C   LIG    1       -0.273   3.574   9.380  0.00  0.00    -0.040 A 
ATOM     12  C   LIG    1       -1.487   3.067   9.841  0.00  0.00    +0.060 A 
ATOM     13  C   LIG    1       -1.753   3.044  11.195  0.00  0.00    +0.000 A 
ATOM     14  C   LIG    1       -0.822   3.533  12.094  0.00  0.00    +0.010 A 
ATOM     15  C   LIG    1        0.382   4.043  11.642  0.00  0.00    -0.010 A 
ATOM     16  C   LIG    1        0.662   4.065  10.291  0.00  0.00    +0.020 A 
ENDBRANCH   8  11
BRANCH   1  18
ATOM     17  C   LIG    1        0.128  -2.035   7.116  0.00  0.00    +0.050 C 
ATOM     18  C   LIG    1       -1.082  -1.179   6.737  0.00  0.00    +0.290 C 
ENDBRANCH   1  18
BRANCH  10  19
ATOM     19  S   LIG    1       -0.392  -0.725   3.887  0.00  0.00    +0.090 S 
BRANCH  19  20
ATOM     20  C   LIG    1        0.161   0.239   2.458  0.00  0.00    +0.010 C 
ATOM     21  C   LIG    1        1.621   0.654   2.657  0.00  0.00    +0.090 C 
BRANCH  20  22
ATOM     22  C   LIG    1        0.042  -0.598   1.211  0.00  0.00    +0.540 C 
ATOM     23  N   LIG    1        0.002  -0.004   0.002  0.00  0.00    -0.570 N 
ATOM     24  C   LIG    1       -0.043   1.457  -0.095  0.00  0.00    +0.300 C 
ATOM     25  O   LIG    1       -0.018  -1.807   1.295  0.00  0.00    -0.510 OA
BRANCH  23  26
ATOM     26  C   LIG    1        0.004  -0.783  -1.161  0.00  0.00    +0.130 A 
ATOM     27  C   LIG    1        1.080  -0.723  -2.036  0.00  0.00    +0.010 A 
ATOM     28  C   LIG    1        1.082  -1.497  -3.180  0.00  0.00    +0.020 A 
ATOM     29  C   LIG    1        0.008  -2.322  -3.459  0.00  0.00    +0.010 A 
ATOM     30  C   LIG    1       -1.067  -2.380  -2.592  0.00  0.00    +0.020 A 
ATOM     31  C   LIG    1       -1.073  -1.613  -1.444  0.00  0.00    +0.020 A 
ENDBRANCH  23  26
ENDBRANCH  20  22
ENDBRANCH  19  20
ENDBRANCH  10  19
TORSDOF 6
