REMARK  Name = ZINCqH000000781G.0
REMARK                            x       y       z     vdW  Elec       q    Type
REMARK                         _______ _______ _______ _____ _____    ______ ____
ROOT
ATOM      1  C   LIG    1       -2.287  -4.394  -2.273  0.00  0.00    +0.520 C 
ATOM      2  N   LIG    1       -2.285  -4.115  -0.955  0.00  0.00    -0.600 N 
ATOM      3  C   LIG    1       -2.037  -5.182   0.019  0.00  0.00    +0.290 C 
ATOM      4  O   LIG    1       -2.491  -3.510  -3.079  0.00  0.00    -0.520 OA
ENDROOT
BRANCH   1   5
ATOM      5  C   LIG    1       -2.035  -5.802  -2.747  0.00  0.00    +0.130 C 
BRANCH   5   9
ATOM      6  C   LIG    1       -2.195  -5.920  -7.017  0.00  0.00    +0.100 A 
ATOM      7  C   LIG    1       -3.346  -6.128  -6.272  0.00  0.00    -0.040 A 
ATOM      8  C   LIG    1       -3.290  -6.095  -4.891  0.00  0.00    +0.060 A 
ATOM      9  C   LIG    1       -2.090  -5.843  -4.252  0.00  0.00    -0.080 A 
ATOM     10  C   LIG    1       -0.940  -5.635  -4.991  0.00  0.00    +0.040 A 
ATOM     11  C   LIG    1       -0.989  -5.673  -6.373  0.00  0.00    +0.070 A 
ATOM     12  F   LIG    1        0.134  -5.469  -7.095  0.00  0.00    -0.130 F 
BRANCH   6  14
ATOM     13  C   LIG    1       -3.521  -6.218  -8.968  0.00  0.00    +0.250 C 
ATOM     14  O   LIG    1       -2.247  -5.959  -8.375  0.00  0.00    -0.310 OA
ENDBRANCH   6  14
ENDBRANCH   5   9
ENDBRANCH   1   5
BRANCH   2  15
ATOM     15  C   LIG    1       -2.530  -2.746  -0.494  0.00  0.00    +0.330 C 
BRANCH  15  16
ATOM     16  C   LIG    1       -1.220  -2.007  -0.396  0.00  0.00    +0.510 C 
ATOM     17  N   LIG    1       -1.200  -0.722   0.010  0.00  0.00    -0.690 N 
ATOM     18  H   LIG    1       -2.018  -0.295   0.308  0.00  0.00    +0.410 HD
ATOM     19  O   LIG    1       -0.184  -2.569  -0.682  0.00  0.00    -0.510 OA
BRANCH  17  20
ATOM     20  C   LIG    1        0.002  -0.004   0.002  0.00  0.00    +0.150 A 
ATOM     21  C   LIG    1        0.387   0.696  -1.135  0.00  0.00    -0.020 A 
ATOM     22  C   LIG    1        1.574   1.404  -1.140  0.00  0.00    +0.050 A 
ATOM     23  C   LIG    1        2.378   1.417  -0.015  0.00  0.00    +0.060 A 
ATOM     24  C   LIG    1        1.998   0.722   1.119  0.00  0.00    +0.050 A 
ATOM     25 CL   LIG    1       -0.618   0.675  -2.551  0.00  0.00    -0.040 Cl
ATOM     26  C   LIG    1        0.812   0.011   1.130  0.00  0.00    -0.020 A 
ATOM     27 CL   LIG    1        0.336  -0.861   2.554  0.00  0.00    -0.050 Cl
ENDBRANCH  17  20
ENDBRANCH  15  16
ENDBRANCH   2  15
TORSDOF 6
