REMARK  Name = ZINCqH0000005zTs.0
REMARK                            x       y       z     vdW  Elec       q    Type
REMARK                         _______ _______ _______ _____ _____    ______ ____
ROOT
ATOM      1  N   LIG    1       -1.208   6.316  -0.860  0.00  0.00    -0.730 N 
ATOM      2  H   LIG    1       -2.107   6.378  -0.501  0.00  0.00    +0.400 HD
ATOM      3  C   LIG    1       -0.992   6.518  -2.175  0.00  0.00    +0.520 C 
ATOM      4  O   LIG    1        0.116   6.355  -2.639  0.00  0.00    -0.520 OA
ENDROOT
BRANCH   1   5
ATOM      5  C   LIG    1       -0.085   6.003   0.027  0.00  0.00    +0.310 C 
BRANCH   5   6
ATOM      6  C   LIG    1        0.132   4.512   0.055  0.00  0.00    -0.090 A 
ATOM      7  C   LIG    1        1.417   4.001   0.057  0.00  0.00    +0.040 A 
ATOM      8  C   LIG    1        1.617   2.634   0.083  0.00  0.00    +0.030 A 
ATOM      9  C   LIG    1        0.531   1.776   0.107  0.00  0.00    -0.030 A 
ATOM     10  C   LIG    1       -0.754   2.288   0.099  0.00  0.00    +0.020 A 
ATOM     11 CL   LIG    1        0.781   0.059   0.140  0.00  0.00    -0.070 Cl
ATOM     12  C   LIG    1       -0.953   3.656   0.080  0.00  0.00    +0.040 A 
ENDBRANCH   5   6
BRANCH   5  13
ATOM     13  C   LIG    1       -0.397   6.500   1.440  0.00  0.00    +0.120 C 
BRANCH  13  14
ATOM     14  C   LIG    1       -0.478   8.005   1.437  0.00  0.00    +0.460 C 
ATOM     15  O   LIG    1       -0.206   8.622   0.435  0.00  0.00    -0.490 OA
BRANCH  14  17
ATOM     16  C   LIG    1       -0.909  10.107   2.472  0.00  0.00    +0.260 C 
ATOM     17  O   LIG    1       -0.853   8.659   2.548  0.00  0.00    -0.360 OA
ENDBRANCH  14  17
ENDBRANCH  13  14
ENDBRANCH   5  13
ENDBRANCH   1   5
BRANCH   3  18
ATOM     18  C   LIG    1       -2.128   6.947  -3.068  0.00  0.00    +0.140 C 
BRANCH  18  19
ATOM     19  C   LIG    1       -1.626   7.103  -4.480  0.00  0.00    -0.160 A 
ATOM     20  C   LIG    1       -1.211   8.241  -5.059  0.00  0.00    +0.240 A 
ATOM     21  N   LIG    1       -0.827   7.995  -6.349  0.00  0.00    -0.590 N 
ATOM     22  H   LIG    1       -0.491   8.662  -6.967  0.00  0.00    +0.420 HD
ATOM     23  C   LIG    1       -0.989   6.658  -6.639  0.00  0.00    +0.090 A 
ATOM     24  C   LIG    1       -0.758   5.890  -7.775  0.00  0.00    -0.010 A 
ATOM     25  C   LIG    1       -1.026   4.539  -7.753  0.00  0.00    +0.020 A 
ATOM     26  C   LIG    1       -1.526   3.934  -6.608  0.00  0.00    -0.030 A 
ATOM     27  C   LIG    1       -1.762   4.671  -5.481  0.00  0.00    +0.050 A 
ATOM     28  C   LIG    1       -1.491   6.040  -5.479  0.00  0.00    -0.090 A 
ENDBRANCH  18  19
ENDBRANCH   3  18
TORSDOF 7
