REMARK  Name = ZINCrH000004tXW4.0
REMARK                            x       y       z     vdW  Elec       q    Type
REMARK                         _______ _______ _______ _____ _____    ______ ____
ROOT
ATOM      1  O   LIG    1       -1.763   0.329   1.939  0.00  0.00    -0.480 OA
ATOM      2  C   LIG    1       -2.084  -0.563   1.183  0.00  0.00    +0.520 C 
ATOM      3  N   LIG    1       -3.227  -1.246   1.391  0.00  0.00    -0.650 N 
ATOM      4  H   LIG    1       -3.483  -1.960   0.786  0.00  0.00    +0.410 HD
ENDROOT
BRANCH   3   5
ATOM      5  C   LIG    1       -4.041  -0.927   2.478  0.00  0.00    +0.310 A 
ATOM      6  C   LIG    1       -3.802   0.041   3.405  0.00  0.00    -0.110 A 
ATOM      7  C   LIG    1       -4.863   0.032   4.315  0.00  0.00    +0.250 A 
ATOM      8  N   LIG    1       -5.702  -0.907   3.960  0.00  0.00    -0.290 NA
ATOM      9  N   LIG    1       -5.208  -1.527   2.805  0.00  0.00    -0.380 N 
BRANCH   9  10
ATOM     10  C   LIG    1       -5.844  -2.629   2.079  0.00  0.00    +0.370 C 
BRANCH  10  11
ATOM     11  C   LIG    1       -5.357  -3.943   2.633  0.00  0.00    -0.120 A 
ATOM     12  C   LIG    1       -4.236  -4.547   2.094  0.00  0.00    +0.020 A 
ATOM     13  C   LIG    1       -3.786  -5.750   2.606  0.00  0.00    +0.010 A 
ATOM     14  C   LIG    1       -4.462  -6.353   3.650  0.00  0.00    +0.020 A 
ATOM     15  C   LIG    1       -5.585  -5.752   4.185  0.00  0.00    +0.010 A 
ATOM     16  C   LIG    1       -6.033  -4.546   3.677  0.00  0.00    +0.040 A 
ENDBRANCH  10  11
ENDBRANCH   9  10
ENDBRANCH   3   5
BRANCH   2  17
ATOM     17  C   LIG    1       -1.204  -0.908   0.009  0.00  0.00    +0.190 C 
BRANCH  17  18
ATOM     18  C   LIG    1        0.002  -0.004   0.002  0.00  0.00    -0.000 A 
ATOM     19  C   LIG    1        1.288  -0.399  -0.012  0.00  0.00    +0.160 A 
ATOM     20  O   LIG    1        2.048   0.714  -0.014  0.00  0.00    -0.190 OA
ATOM     21  C   LIG    1        1.221   1.774  -0.000  0.00  0.00    +0.240 A 
ATOM     22  N   LIG    1       -0.016   1.337   0.009  0.00  0.00    -0.440 NA
BRANCH  21  23
ATOM     23  C   LIG    1        1.636   3.193   0.004  0.00  0.00    -0.020 A 
ATOM     24  C   LIG    1        0.675   4.204   0.012  0.00  0.00    +0.070 A 
ATOM     25  C   LIG    1        1.069   5.526   0.021  0.00  0.00    +0.010 A 
ATOM     26  C   LIG    1        2.414   5.851   0.009  0.00  0.00    +0.030 A 
ATOM     27  C   LIG    1        3.372   4.853  -0.005  0.00  0.00    +0.010 A 
ATOM     28  C   LIG    1        2.991   3.527  -0.008  0.00  0.00    +0.040 A 
ENDBRANCH  21  23
ENDBRANCH  17  18
ENDBRANCH   2  17
TORSDOF 6
