REMARK  Name = ZINCpk00000KfKCr.0
REMARK                            x       y       z     vdW  Elec       q    Type
REMARK                         _______ _______ _______ _____ _____    ______ ____
ROOT
ATOM      1  N   LIG    1        0.064  -2.029   1.968  0.00  0.00    -0.510 N 
ATOM      2  H   LIG    1       -0.031  -2.226   2.913  0.00  0.00    +0.420 HD
ATOM      3  C   LIG    1       -0.575  -0.970   1.434  0.00  0.00    +0.520 C 
ATOM      4  O   LIG    1       -0.458  -0.724   0.252  0.00  0.00    -0.480 OA
ENDROOT
BRANCH   1   9
ATOM      5  C   LIG    1        2.637  -3.867   0.143  0.00  0.00    +0.130 C 
ATOM      6  N   LIG    1        1.360  -4.396  -0.367  0.00  0.00    -0.710 N 
ATOM      7  H   LIG    1        1.246  -5.083  -1.042  0.00  0.00    +0.440 HD
ATOM      8  C   LIG    1        0.384  -3.743   0.289  0.00  0.00    +0.710 C 
ATOM      9  N   LIG    1        0.863  -2.846   1.159  0.00  0.00    -0.370 N 
ATOM     10  O   LIG    1       -0.801  -3.942   0.109  0.00  0.00    -0.520 OA
ATOM     11  C   LIG    1        3.441  -3.214  -0.983  0.00  0.00    +0.100 C 
ATOM     12  C   LIG    1        2.211  -2.830   1.164  0.00  0.00    +0.530 C 
ATOM     13  O   LIG    1        2.932  -2.132   1.844  0.00  0.00    -0.450 OA
BRANCH   5  15
ATOM     14  C   LIG    1        3.868  -6.007  -0.241  0.00  0.00    +0.050 C 
ATOM     15  C   LIG    1        3.451  -4.977   0.811  0.00  0.00    +0.050 C 
ENDBRANCH   5  15
ENDBRANCH   1   9
BRANCH   3  16
ATOM     16  C   LIG    1       -1.436  -0.091   2.304  0.00  0.00    +0.240 C 
BRANCH  16  17
ATOM     17  N   LIG    1       -1.907   1.061   1.524  0.00  0.00    -0.480 NA
BRANCH  17  18
ATOM     18  C   LIG    1       -0.842   2.058   1.361  0.00  0.00    +0.170 C 
ATOM     19  C   LIG    1       -0.241   2.664   2.631  0.00  0.00    -0.030 C 
ATOM     20  C   LIG    1        0.570   1.664   1.803  0.00  0.00    +0.010 C 
ENDBRANCH  17  18
BRANCH  17  21
ATOM     21  C   LIG    1       -3.100   1.660   2.137  0.00  0.00    +0.240 C 
BRANCH  21  22
ATOM     22  C   LIG    1       -3.697   2.671   1.192  0.00  0.00    -0.080 A 
ATOM     23  C   LIG    1       -3.294   3.992   1.249  0.00  0.00    +0.010 A 
ATOM     24  C   LIG    1       -3.838   4.918   0.379  0.00  0.00    +0.000 A 
ATOM     25  C   LIG    1       -4.793   4.526  -0.541  0.00  0.00    +0.000 A 
ATOM     26  C   LIG    1       -5.199   3.206  -0.594  0.00  0.00    +0.000 A 
ATOM     27  C   LIG    1       -4.651   2.278   0.272  0.00  0.00    +0.020 A 
ENDBRANCH  21  22
ENDBRANCH  17  21
ENDBRANCH  16  17
ENDBRANCH   3  16
TORSDOF 7
