REMARK  Name = ZINCrg00000fSoW5.0
REMARK                            x       y       z     vdW  Elec       q    Type
REMARK                         _______ _______ _______ _____ _____    ______ ____
ROOT
ATOM      1  C   LIG    1       -0.014   1.209   0.009  0.00  0.00    +0.500 C 
ATOM      2  N   LIG    1        1.143   1.898   0.001  0.00  0.00    -0.720 N 
ATOM      3  H   LIG    1        1.130   2.868   0.007  0.00  0.00    +0.400 HD
ATOM      4  O   LIG    1        0.002  -0.004   0.002  0.00  0.00    -0.510 OA
ENDROOT
BRANCH   1   5
ATOM      5  C   LIG    1       -1.330   1.944   0.019  0.00  0.00    +0.380 C 
BRANCH   5   9
ATOM      6  C   LIG    1       -4.890  -1.200   1.642  0.00  0.00    +0.170 C 
ATOM      7  C   LIG    1       -3.982  -0.393   0.751  0.00  0.00    +0.140 A 
ATOM      8  N   LIG    1       -3.044   0.427   1.152  0.00  0.00    -0.260 NA
ATOM      9  N   LIG    1       -2.430   0.977   0.019  0.00  0.00    -0.340 N 
ATOM     10  C   LIG    1       -3.035   0.463  -1.072  0.00  0.00    +0.170 A 
ATOM     11  C   LIG    1       -2.700   0.781  -2.507  0.00  0.00    +0.170 C 
ATOM     12  C   LIG    1       -3.994  -0.392  -0.648  0.00  0.00    -0.180 A 
BRANCH  12  13
ATOM     13  N   LIG    1       -4.902  -1.181  -1.511  0.00  0.00    +0.050 N 
ATOM     14  O   LIG    1       -4.579  -2.298  -1.873  0.00  0.00    -0.130 OA
ATOM     15  O   LIG    1       -5.971  -0.713  -1.859  0.00  0.00    -0.140 OA
ENDBRANCH  12  13
ENDBRANCH   5   9
ENDBRANCH   1   5
BRANCH   2  16
ATOM     16  C   LIG    1        2.422   1.183  -0.015  0.00  0.00    +0.280 C 
BRANCH  16  17
ATOM     17  C   LIG    1        3.571   2.193  -0.020  0.00  0.00    +0.020 C 
BRANCH  17  18
ATOM     18  C   LIG    1        4.907   1.446  -0.037  0.00  0.00    +0.280 C 
BRANCH  18  19
ATOM     19  N   LIG    1        6.007   2.413  -0.042  0.00  0.00    -0.730 N 
ATOM     20  H   LIG    1        5.817   3.365  -0.035  0.00  0.00    +0.400 HD
ATOM     21  C   LIG    1        7.284   1.981  -0.057  0.00  0.00    +0.560 C 
ATOM     22  O   LIG    1        7.522   0.789  -0.066  0.00  0.00    -0.530 OA
BRANCH  21  23
ATOM     23  C   LIG    1        8.394   2.957  -0.062  0.00  0.00    -0.120 A 
ATOM     24  C   LIG    1        8.123   4.327  -0.058  0.00  0.00    +0.030 A 
ATOM     25  C   LIG    1        9.162   5.235  -0.058  0.00  0.00    +0.030 A 
ATOM     26  C   LIG    1       10.472   4.793  -0.073  0.00  0.00    +0.020 A 
ATOM     27  C   LIG    1       10.752   3.433  -0.083  0.00  0.00    +0.100 A 
ATOM     28  C   LIG    1        9.717   2.513  -0.077  0.00  0.00    +0.050 A 
BRANCH  27  29
ATOM     29  O   LIG    1       12.041   3.004  -0.098  0.00  0.00    -0.500 OA
ATOM     30  H   LIG    1       12.406   2.885  -0.985  0.00  0.00    +0.400 HD
ENDBRANCH  27  29
ENDBRANCH  21  23
ENDBRANCH  18  19
ENDBRANCH  17  18
ENDBRANCH  16  17
ENDBRANCH   2  16
TORSDOF 9
