REMARK  Name = ZINCrD00000hQ5Q2.0
REMARK                            x       y       z     vdW  Elec       q    Type
REMARK                         _______ _______ _______ _____ _____    ______ ____
ROOT
ATOM      1  N   LIG    1       -0.016   1.300   0.009  0.00  0.00    -0.460 NA
ATOM      2  C   LIG    1        0.002  -0.004   0.002  0.00  0.00    +0.320 C 
ATOM      3  N   LIG    1        1.188  -0.726  -0.019  0.00  0.00    -0.580 N 
ATOM      4  H   LIG    1        1.959  -0.421   0.484  0.00  0.00    +0.430 HD
ATOM      5  N   LIG    1        1.260  -1.897  -0.769  0.00  0.00    -0.240 NA
ATOM      6  C   LIG    1        0.299  -2.472  -1.375  0.00  0.00    +0.150 C 
ATOM      7  C   LIG    1       -1.126  -2.006  -1.432  0.00  0.00    +0.150 C 
ATOM      8  S   LIG    1       -1.487  -0.967   0.011  0.00  0.00    -0.050 S 
ENDROOT
BRANCH   1  16
ATOM      9  C   LIG    1        1.219   2.064  -2.497  0.00  0.00    +0.010 C 
ATOM     10  C   LIG    1        1.300   2.938  -1.244  0.00  0.00    +0.010 C 
ATOM     11  C   LIG    1        0.124   3.916  -1.227  0.00  0.00    +0.000 C 
ATOM     12  C   LIG    1        0.205   4.790   0.026  0.00  0.00    +0.010 C 
ATOM     13  C   LIG    1        0.148   3.902   1.271  0.00  0.00    +0.020 C 
ATOM     14  C   LIG    1        1.324   2.924   1.254  0.00  0.00    +0.020 C 
ATOM     15  C   LIG    1        0.181   4.803  -2.473  0.00  0.00    +0.010 C 
ATOM     16  C   LIG    1        1.243   2.050   0.001  0.00  0.00    +0.120 C 
ENDBRANCH   1  16
BRANCH   6  17
ATOM     17  C   LIG    1        0.619  -3.720  -2.093  0.00  0.00    -0.070 A 
ATOM     18  C   LIG    1       -0.385  -4.411  -2.777  0.00  0.00    +0.080 A 
ATOM     19  C   LIG    1       -0.082  -5.574  -3.450  0.00  0.00    -0.030 A 
ATOM     20  C   LIG    1        1.219  -6.065  -3.441  0.00  0.00    +0.190 A 
ATOM     21  C   LIG    1        2.220  -5.383  -2.757  0.00  0.00    -0.020 A 
ATOM     22  C   LIG    1        1.925  -4.217  -2.086  0.00  0.00    +0.090 A 
BRANCH  20  23
ATOM     23  N   LIG    1        1.522  -7.246  -4.120  0.00  0.00    -0.940 N 
ATOM     24  C   LIG    1        2.888  -7.493  -4.587  0.00  0.00    +0.310 C 
BRANCH  23  25
ATOM     25  S   LIG    1        0.336  -8.369  -4.396  0.00  0.00    +2.600 S 
ATOM     26  O   LIG    1       -0.604  -8.150  -3.353  0.00  0.00    -0.940 OA
ATOM     27  O   LIG    1        1.038  -9.600  -4.504  0.00  0.00    -0.940 OA
ATOM     28  C   LIG    1       -0.370  -7.896  -5.999  0.00  0.00    -0.270 C 
ENDBRANCH  23  25
ENDBRANCH  20  23
ENDBRANCH   6  17
TORSDOF 4
