REMARK  Name = ZINCnE000004Rf6C.0
REMARK                            x       y       z     vdW  Elec       q    Type
REMARK                         _______ _______ _______ _____ _____    ______ ____
ROOT
ATOM      1  O   LIG    1        4.003   2.171  -0.265  0.00  0.00    -0.530 OA
ATOM      2  C   LIG    1        3.586   1.540  -1.213  0.00  0.00    +0.510 C 
ATOM      3  N   LIG    1        4.416   1.213  -2.223  0.00  0.00    -0.730 N 
ATOM      4  H   LIG    1        4.082   0.709  -2.981  0.00  0.00    +0.390 HD
ENDROOT
BRANCH   3   5
ATOM      5  C   LIG    1        5.823   1.620  -2.175  0.00  0.00    +0.180 C 
ATOM      6  C   LIG    1        5.911   3.146  -2.104  0.00  0.00    +0.010 C 
ATOM      7  C   LIG    1        7.380   3.570  -2.054  0.00  0.00    +0.040 C 
ATOM      8  C   LIG    1        8.271   2.327  -2.093  0.00  0.00    -0.130 C 
ATOM      9  C   LIG    1        7.957   1.436  -0.889  0.00  0.00    +0.030 C 
ATOM     10  C   LIG    1        8.008   1.551  -3.385  0.00  0.00    +0.050 C 
ATOM     11  C   LIG    1        6.488   1.012  -0.939  0.00  0.00    +0.010 C 
ATOM     12  C   LIG    1        6.539   1.126  -3.434  0.00  0.00    +0.000 C 
BRANCH   8  13
ATOM     13  C   LIG    1        9.718   2.745  -2.044  0.00  0.00    +0.500 C 
ATOM     14  O   LIG    1       10.569   2.061  -2.587  0.00  0.00    -0.700 OA
ATOM     15  O   LIG    1       10.038   3.768  -1.462  0.00  0.00    -0.700 OA
ENDBRANCH   8  13
ENDBRANCH   3   5
BRANCH   2  16
ATOM     16  C   LIG    1        2.139   1.122  -1.262  0.00  0.00    +0.040 C 
BRANCH  16  17
ATOM     17  C   LIG    1        1.423   1.615  -0.003  0.00  0.00    +0.020 C 
ATOM     18  C   LIG    1        1.402   3.145   0.006  0.00  0.00    +0.030 C 
ATOM     19  C   LIG    1       -0.047   3.635   0.022  0.00  0.00    -0.020 C 
ATOM     20  C   LIG    1       -0.750   3.109   1.275  0.00  0.00    +0.010 C 
ATOM     21  C   LIG    1       -0.729   1.579   1.267  0.00  0.00    +0.010 C 
ATOM     22  C   LIG    1       -0.773   3.123  -1.223  0.00  0.00    +0.010 C 
ATOM     23  C   LIG    1       -0.753   1.593  -1.232  0.00  0.00    +0.010 C 
ATOM     24  C   LIG    1       -0.013   1.086   0.008  0.00  0.00    -0.010 C 
ENDBRANCH  16  17
ENDBRANCH   2  16
TORSDOF 4
