REMARK  Name = ZINCrD00000hQ6Ux.0
REMARK                            x       y       z     vdW  Elec       q    Type
REMARK                         _______ _______ _______ _____ _____    ______ ____
ROOT
ATOM      1  C   LIG    1        1.756   3.170   0.002  0.00  0.00    +0.600 C 
ATOM      2  N   LIG    1        3.075   3.445  -0.009  0.00  0.00    -0.730 N 
ATOM      3  H   LIG    1        3.722   2.722  -0.019  0.00  0.00    +0.400 HD
ATOM      4  O   LIG    1        0.946   4.077   0.014  0.00  0.00    -0.540 OA
ENDROOT
BRANCH   1   7
ATOM      5  C   LIG    1       -1.243   2.214   0.020  0.00  0.00    +0.170 C 
ATOM      6  C   LIG    1       -0.016   1.338   0.009  0.00  0.00    +0.160 A 
ATOM      7  C   LIG    1        1.295   1.770  -0.001  0.00  0.00    -0.310 A 
ATOM      8  C   LIG    1        2.113   0.617  -0.015  0.00  0.00    +0.270 A 
ATOM      9  N   LIG    1        1.335  -0.430  -0.013  0.00  0.00    -0.290 NA
ATOM     10  N   LIG    1        0.002  -0.004   0.002  0.00  0.00    -0.350 N 
BRANCH  10  11
ATOM     11  C   LIG    1       -1.175  -0.876   0.009  0.00  0.00    +0.260 C 
ATOM     12  C   LIG    1       -1.129  -1.816   1.232  0.00  0.00    +0.020 C 
ATOM     13  C   LIG    1       -1.703  -3.155   0.702  0.00  0.00    +0.020 C 
ATOM     14  C   LIG    1       -1.123  -3.232  -0.732  0.00  0.00    +0.020 C 
ATOM     15  C   LIG    1       -1.172  -1.776  -1.239  0.00  0.00    +0.030 C 
ENDBRANCH  10  11
ENDBRANCH   1   7
BRANCH   2  16
ATOM     16  C   LIG    1        3.534   4.837  -0.006  0.00  0.00    +0.290 C 
ATOM     17  C   LIG    1        3.587   5.353   1.433  0.00  0.00    +0.040 C 
BRANCH  16  18
ATOM     18  C   LIG    1        4.908   4.914  -0.620  0.00  0.00    -0.010 A 
ATOM     19  C   LIG    1        5.231   5.962  -1.461  0.00  0.00    +0.010 A 
ATOM     20  C   LIG    1        6.492   6.035  -2.024  0.00  0.00    +0.170 A 
ATOM     21  C   LIG    1        7.431   5.060  -1.746  0.00  0.00    -0.700 A 
ATOM     22  C   LIG    1        7.108   4.009  -0.903  0.00  0.00    +0.190 A 
ATOM     23  F   LIG    1        8.025   3.055  -0.630  0.00  0.00    -0.120 F 
ATOM     24  C   LIG    1        5.847   3.940  -0.336  0.00  0.00    -0.030 A 
BRANCH  21  25
ATOM     25  S   LIG    1        9.037   5.153  -2.463  0.00  0.00    +2.500 S 
ATOM     26  O   LIG    1        8.994   6.322  -3.269  0.00  0.00    -0.930 OA
ATOM     27  O   LIG    1        9.238   3.871  -3.042  0.00  0.00    -0.920 OA
ATOM     28  C   LIG    1       10.150   5.395  -1.050  0.00  0.00    -0.250 C 
ENDBRANCH  21  25
ENDBRANCH  16  18
ENDBRANCH   2  16
TORSDOF 5
