REMARK  Name = ZINCrg00000SjSJI.0
REMARK                            x       y       z     vdW  Elec       q    Type
REMARK                         _______ _______ _______ _____ _____    ______ ____
ROOT
ATOM      1  N   LIG    1       -0.018   1.461   0.010  0.00  0.00    -0.610 N 
ATOM      2  C   LIG    1        1.140   2.151   0.003  0.00  0.00    +0.500 C 
ATOM      3  O   LIG    1        2.199   1.558  -0.011  0.00  0.00    -0.480 OA
ENDROOT
BRANCH   1   4
ATOM      4  C   LIG    1        0.002  -0.004   0.002  0.00  0.00    +0.250 C 
ATOM      5  C   LIG    1        0.805  -0.536   1.207  0.00  0.00    +0.020 C 
ATOM      6  C   LIG    1        1.975  -1.331   0.590  0.00  0.00    +0.160 C 
ATOM      7  N   LIG    1        2.144  -0.756  -0.769  0.00  0.00    -0.450 NA
ATOM      8  C   LIG    1        0.752  -0.523  -1.243  0.00  0.00    +0.180 C 
BRANCH   7   9
ATOM      9  C   LIG    1        2.851  -1.691  -1.653  0.00  0.00    +0.120 C 
ATOM     10  C   LIG    1        4.253  -2.016  -1.087  0.00  0.00    +0.070 C 
ATOM     11  C   LIG    1        5.097  -2.120  -2.377  0.00  0.00    +0.250 C 
ATOM     12  N   LIG    1        4.397  -1.296  -3.370  0.00  0.00    -0.620 N 
ATOM     13  C   LIG    1        5.000  -0.811  -4.614  0.00  0.00    +0.300 C 
ATOM     14  C   LIG    1        3.132  -1.045  -2.992  0.00  0.00    +0.530 C 
ATOM     15  O   LIG    1        2.332  -0.396  -3.631  0.00  0.00    -0.520 OA
ENDBRANCH   7   9
ENDBRANCH   1   4
BRANCH   1  16
ATOM     16  C   LIG    1       -1.296   2.176   0.020  0.00  0.00    +0.260 C 
BRANCH  16  18
ATOM     17  C   LIG    1       -3.070   3.164   1.476  0.00  0.00    +0.030 C 
ATOM     18  C   LIG    1       -1.735   2.417   1.466  0.00  0.00    -0.010 C 
ENDBRANCH  16  18
ENDBRANCH   1  16
BRANCH   2  19
ATOM     19  C   LIG    1        1.120   3.657   0.011  0.00  0.00    +0.280 C 
BRANCH  19  20
ATOM     20  N   LIG    1        2.494   4.164   0.001  0.00  0.00    -0.720 N 
ATOM     21  H   LIG    1        3.240   3.544  -0.010  0.00  0.00    +0.410 HD
ATOM     22  C   LIG    1        2.722   5.493   0.006  0.00  0.00    +0.520 C 
ATOM     23  O   LIG    1        1.790   6.268   0.019  0.00  0.00    -0.530 OA
BRANCH  22  24
ATOM     24  C   LIG    1        4.136   6.014  -0.005  0.00  0.00    +0.050 C 
BRANCH  24  25
ATOM     25  C   LIG    1        4.115   7.544   0.003  0.00  0.00    -0.050 C 
ATOM     26  C   LIG    1        3.375   8.051  -1.236  0.00  0.00    +0.030 C 
ATOM     27  C   LIG    1        5.551   8.074  -0.008  0.00  0.00    +0.020 C 
ATOM     28  C   LIG    1        3.399   8.038   1.262  0.00  0.00    +0.030 C 
ENDBRANCH  24  25
ENDBRANCH  22  24
ENDBRANCH  19  20
ENDBRANCH   2  19
TORSDOF 8
