REMARK  Name = ZINCvS0000000iwH.0
REMARK                            x       y       z     vdW  Elec       q    Type
REMARK                         _______ _______ _______ _____ _____    ______ ____
ROOT
ATOM      1  N   LIG    1        1.385   3.655  -3.327  0.00  0.00    -0.430 N 
ATOM      2  C   LIG    1        1.750   5.072  -3.200  0.00  0.00    +0.330 C 
ATOM      3  H   LIG    1        0.399   3.578  -3.529  0.00  0.00    +0.440 HD
ENDROOT
BRANCH   1   4
ATOM      4  C   LIG    1        1.681   2.958  -2.068  0.00  0.00    +0.190 C 
ATOM      5  C   LIG    1        1.309   1.479  -2.204  0.00  0.00    +0.100 C 
ATOM      6  C   LIG    1       -0.215   1.363  -2.365  0.00  0.00    +0.210 C 
ATOM      7  C   LIG    1       -0.657   2.386  -3.437  0.00  0.00    +0.060 C 
ATOM      8  C   LIG    1       -0.928   3.690  -2.651  0.00  0.00    +0.070 C 
ATOM      9  C   LIG    1       -0.625   3.333  -1.177  0.00  0.00    +0.210 C 
ATOM     10  N   LIG    1       -0.831   1.862  -1.107  0.00  0.00    -0.390 N 
ATOM     11  H   LIG    1       -1.815   1.643  -1.082  0.00  0.00    +0.440 HD
ATOM     12  C   LIG    1        0.874   3.592  -0.932  0.00  0.00    +0.100 C 
BRANCH  10  13
ATOM     13  C   LIG    1       -0.145   1.299   0.063  0.00  0.00    +0.320 C 
BRANCH  13  14
ATOM     14  C   LIG    1       -0.856   1.734   1.319  0.00  0.00    -0.170 A 
ATOM     15  C   LIG    1       -0.481   2.901   1.957  0.00  0.00    +0.030 A 
ATOM     16  C   LIG    1       -1.136   3.302   3.107  0.00  0.00    +0.030 A 
ATOM     17  C   LIG    1       -2.160   2.530   3.623  0.00  0.00    +0.060 A 
ATOM     18  C   LIG    1       -2.532   1.360   2.988  0.00  0.00    +0.030 A 
ATOM     19  C   LIG    1       -1.880   0.962   1.836  0.00  0.00    +0.040 A 
ENDBRANCH  13  14
ENDBRANCH  10  13
ENDBRANCH   1   4
BRANCH   1  20
ATOM     20  C   LIG    1        2.157   3.046  -4.418  0.00  0.00    +0.270 C 
BRANCH  20  21
ATOM     21  C   LIG    1        1.803   3.731  -5.739  0.00  0.00    +0.080 C 
BRANCH  21  24
ATOM     22  N   LIG    1        2.446   3.553  -8.120  0.00  0.00    -0.640 N 
ATOM     23  H   LIG    1        1.766   4.214  -8.324  0.00  0.00    +0.420 HD
ATOM     24  C   LIG    1        2.596   3.106  -6.857  0.00  0.00    +0.520 C 
ATOM     25  O   LIG    1        3.368   2.202  -6.622  0.00  0.00    -0.510 OA
BRANCH  22  32
ATOM     26  C   LIG    1        2.844   3.097 -10.465  0.00  0.00    +0.110 A 
ATOM     27  C   LIG    1        3.664   2.610 -11.469  0.00  0.00    -0.020 A 
ATOM     28  C   LIG    1        4.907   2.090 -11.155  0.00  0.00    +0.080 A 
ATOM     29  C   LIG    1        5.334   2.055  -9.840  0.00  0.00    -0.050 A 
ATOM     30  C   LIG    1        4.522   2.544  -8.833  0.00  0.00    +0.080 A 
ATOM     31 CL   LIG    1        6.895   1.401  -9.454  0.00  0.00    -0.050 Cl
ATOM     32  C   LIG    1        3.272   3.062  -9.140  0.00  0.00    +0.110 A 
BRANCH  26  34
ATOM     33  C   LIG    1        1.248   3.613 -12.151  0.00  0.00    +0.250 C 
ATOM     34  O   LIG    1        1.621   3.609 -10.772  0.00  0.00    -0.320 OA
ENDBRANCH  26  34
ENDBRANCH  22  32
ENDBRANCH  21  24
ENDBRANCH  20  21
ENDBRANCH   1  20
TORSDOF 8
