REMARK  Name = ZINCvS0000000iwH.1
REMARK                            x       y       z     vdW  Elec       q    Type
REMARK                         _______ _______ _______ _____ _____    ______ ____
ROOT
ATOM      1  N   LIG    1       -0.027   1.032  -0.018  0.00  0.00    -0.430 N 
ATOM      2  C   LIG    1       -0.753   1.304  -1.266  0.00  0.00    +0.330 C 
ATOM      3  H   LIG    1        0.051   0.035   0.115  0.00  0.00    +0.440 HD
ENDROOT
BRANCH   1   4
ATOM      4  C   LIG    1       -0.758   1.621   1.111  0.00  0.00    +0.190 C 
ATOM      5  C   LIG    1        0.002   1.341   2.411  0.00  0.00    +0.110 C 
ATOM      6  C   LIG    1       -0.015  -0.172   2.681  0.00  0.00    +0.210 C 
ATOM      7  C   LIG    1        0.379  -0.891   1.371  0.00  0.00    +0.060 C 
ATOM      8  C   LIG    1       -0.952  -1.097   0.618  0.00  0.00    +0.070 C 
ATOM      9  C   LIG    1       -2.029  -0.483   1.542  0.00  0.00    +0.210 C 
ATOM     10  N   LIG    1       -1.433  -0.564   2.902  0.00  0.00    -0.390 N 
ATOM     11  H   LIG    1       -1.887   0.083   3.528  0.00  0.00    +0.440 HD
ATOM     12  C   LIG    1       -2.158   1.007   1.189  0.00  0.00    +0.110 C 
BRANCH  10  13
ATOM     13  C   LIG    1       -1.515  -1.935   3.422  0.00  0.00    +0.330 C 
BRANCH  13  14
ATOM     14  C   LIG    1       -1.017  -1.964   4.844  0.00  0.00    -0.170 A 
ATOM     15  C   LIG    1        0.320  -2.198   5.104  0.00  0.00    +0.030 A 
ATOM     16  C   LIG    1        0.778  -2.219   6.408  0.00  0.00    +0.030 A 
ATOM     17  C   LIG    1       -0.104  -2.016   7.453  0.00  0.00    +0.060 A 
ATOM     18  C   LIG    1       -1.442  -1.788   7.194  0.00  0.00    +0.030 A 
ATOM     19  C   LIG    1       -1.899  -1.761   5.889  0.00  0.00    +0.040 A 
ENDBRANCH  13  14
ENDBRANCH  10  13
ENDBRANCH   1   4
BRANCH   1  20
ATOM     20  C   LIG    1        1.316   1.622  -0.095  0.00  0.00    +0.270 C 
BRANCH  20  21
ATOM     21  C   LIG    1        2.114   0.932  -1.202  0.00  0.00    +0.080 C 
BRANCH  21  24
ATOM     22  N   LIG    1        4.377   1.084  -2.190  0.00  0.00    -0.640 N 
ATOM     23  H   LIG    1        4.107   0.413  -2.837  0.00  0.00    +0.420 HD
ATOM     24  C   LIG    1        3.492   1.538  -1.280  0.00  0.00    +0.520 C 
ATOM     25  O   LIG    1        3.804   2.433  -0.525  0.00  0.00    -0.510 OA
BRANCH  22  32
ATOM     26  C   LIG    1        6.747   0.747  -2.549  0.00  0.00    +0.120 A 
ATOM     27  C   LIG    1        8.040   1.244  -2.559  0.00  0.00    -0.030 A 
ATOM     28  C   LIG    1        8.277   2.564  -2.226  0.00  0.00    +0.080 A 
ATOM     29  C   LIG    1        7.225   3.394  -1.881  0.00  0.00    -0.060 A 
ATOM     30  C   LIG    1        5.930   2.906  -1.874  0.00  0.00    +0.090 A 
ATOM     31 CL   LIG    1        7.529   5.051  -1.464  0.00  0.00    -0.050 Cl
ATOM     32  C   LIG    1        5.687   1.581  -2.202  0.00  0.00    +0.100 A 
BRANCH  26  34
ATOM     33  C   LIG    1        7.649  -1.348  -3.223  0.00  0.00    +0.250 C 
ATOM     34  O   LIG    1        6.514  -0.552  -2.877  0.00  0.00    -0.320 OA
ENDBRANCH  26  34
ENDBRANCH  22  32
ENDBRANCH  21  24
ENDBRANCH  20  21
ENDBRANCH   1  20
TORSDOF 8
