REMARK  Name = ZINCpk00000y6x7x.0
REMARK                            x       y       z     vdW  Elec       q    Type
REMARK                         _______ _______ _______ _____ _____    ______ ____
ROOT
ATOM      1  C   LIG    1        0.777   0.376   1.691  0.00  0.00    +0.280 C 
ATOM      2  C   LIG    1        2.242   0.803   1.575  0.00  0.00    +0.020 C 
ATOM      3  C   LIG    1        2.567   1.104   0.109  0.00  0.00    +0.280 C 
ATOM      4  N   LIG    1        2.215  -0.068  -0.704  0.00  0.00    -0.610 N 
ATOM      5  C   LIG    1        0.856  -0.618  -0.599  0.00  0.00    +0.290 C 
ATOM      6  C   LIG    1        3.121  -0.629  -1.529  0.00  0.00    +0.600 C 
ATOM      7  O   LIG    1        2.856  -1.666  -2.108  0.00  0.00    -0.520 OA
ATOM      8  C   LIG    1        0.550  -0.899   0.875  0.00  0.00    +0.020 C 
ENDROOT
BRANCH   1  16
ATOM      9  C   LIG    1       -1.142   3.720   7.591  0.00  0.00    +0.110 C 
ATOM     10  C   LIG    1       -0.931   3.654   6.100  0.00  0.00    +0.540 C 
ATOM     11  N   LIG    1       -0.423   2.538   5.540  0.00  0.00    -0.630 N 
ATOM     12  C   LIG    1       -0.015   1.286   6.218  0.00  0.00    +0.290 C 
ATOM     13  C   LIG    1       -0.487   0.159   5.276  0.00  0.00    +0.200 C 
ATOM     14  O   LIG    1        0.569  -0.832   5.125  0.00  0.00    -0.320 OA
ATOM     15  C   LIG    1        1.043  -0.797   3.876  0.00  0.00    +0.640 C 
ATOM     16  N   LIG    1        0.453   0.119   3.097  0.00  0.00    -0.620 N 
ATOM     17  O   LIG    1        1.931  -1.528   3.483  0.00  0.00    -0.510 OA
ATOM     18  C   LIG    1       -0.576   0.822   3.877  0.00  0.00    +0.220 C 
ATOM     19  C   LIG    1       -0.132   2.282   4.104  0.00  0.00    +0.280 C 
ATOM     20  O   LIG    1       -1.219   4.605   5.404  0.00  0.00    -0.530 OA
ENDBRANCH   1  16
BRANCH   6  21
ATOM     21  C   LIG    1        4.425   0.009  -1.728  0.00  0.00    -0.270 A 
ATOM     22  C   LIG    1        5.596  -0.645  -1.992  0.00  0.00    +0.100 A 
ATOM     23  C   LIG    1        6.670   0.201  -2.138  0.00  0.00    +0.000 A 
ATOM     24  C   LIG    1        6.393   1.501  -1.988  0.00  0.00    -0.070 A 
ATOM     25  S   LIG    1        4.736   1.738  -1.657  0.00  0.00    +0.210 S 
ENDBRANCH   6  21
TORSDOF 2
