REMARK  Name = ZINCtV00000kVmil.0
REMARK                            x       y       z     vdW  Elec       q    Type
REMARK                         _______ _______ _______ _____ _____    ______ ____
ROOT
ATOM      1  N   LIG    1       -7.118  -2.349   0.165  0.00  0.00    -0.620 N 
ATOM      2  H   LIG    1       -7.011  -3.112   0.756  0.00  0.00    +0.410 HD
ENDROOT
BRANCH   1   8
ATOM      3  N   LIG    1      -11.950   0.374   0.262  0.00  0.00    -0.500 N 
ATOM      4  C   LIG    1      -12.853  -0.674   0.267  0.00  0.00    +0.140 A 
ATOM      5  C   LIG    1      -12.134  -1.878   0.245  0.00  0.00    -0.100 A 
ATOM      6  C   LIG    1      -10.706  -1.513   0.227  0.00  0.00    -0.100 A 
ATOM      7  C   LIG    1       -9.528  -2.256   0.203  0.00  0.00    +0.070 A 
ATOM      8  C   LIG    1       -8.306  -1.606   0.189  0.00  0.00    +0.090 A 
ATOM      9  C   LIG    1       -8.255  -0.215   0.205  0.00  0.00    +0.120 A 
ATOM     10  C   LIG    1       -9.416   0.527   0.224  0.00  0.00    -0.010 A 
ATOM     11  C   LIG    1      -12.812  -3.095   0.246  0.00  0.00    +0.060 A 
ATOM     12  C   LIG    1      -14.190  -3.111   0.267  0.00  0.00    -0.020 A 
ATOM     13  C   LIG    1      -14.902  -1.921   0.288  0.00  0.00    +0.050 A 
ATOM     14  C   LIG    1      -14.244  -0.711   0.288  0.00  0.00    -0.020 A 
ATOM     15  C   LIG    1      -10.652  -0.111   0.238  0.00  0.00    +0.160 A 
BRANCH   3  17
ATOM     16  C   LIG    1      -12.417   2.276   1.727  0.00  0.00    +0.030 C 
ATOM     17  C   LIG    1      -12.313   1.793   0.278  0.00  0.00    +0.290 C 
ENDBRANCH   3  17
ENDBRANCH   1   8
BRANCH   1  18
ATOM     18  C   LIG    1       -6.125  -2.005  -0.678  0.00  0.00    +0.550 C 
ATOM     19  S   LIG    1       -6.269  -0.597  -1.641  0.00  0.00    -0.590 S 
BRANCH  18  20
ATOM     20  N   LIG    1       -5.018  -2.769  -0.762  0.00  0.00    -0.620 N 
ATOM     21  H   LIG    1       -4.962  -3.599  -0.263  0.00  0.00    +0.410 HD
BRANCH  20  22
ATOM     22  C   LIG    1       -3.948  -2.365  -1.571  0.00  0.00    +0.090 A 
ATOM     23  C   LIG    1       -4.188  -1.894  -2.856  0.00  0.00    +0.130 A 
ATOM     24  C   LIG    1       -3.132  -1.497  -3.653  0.00  0.00    +0.010 A 
ATOM     25  C   LIG    1       -1.833  -1.568  -3.171  0.00  0.00    +0.120 A 
ATOM     26  C   LIG    1       -1.593  -2.043  -1.890  0.00  0.00    -0.050 A 
ATOM     27  C   LIG    1       -2.647  -2.436  -1.090  0.00  0.00    +0.050 A 
BRANCH  25  28
ATOM     28  O   LIG    1       -0.795  -1.177  -3.957  0.00  0.00    -0.320 OA
BRANCH  28  29
ATOM     29  C   LIG    1        0.516  -1.277  -3.397  0.00  0.00    +0.590 C 
ATOM     30  F   LIG    1        0.779  -2.610  -3.062  0.00  0.00    -0.200 F 
ATOM     31  F   LIG    1        0.594  -0.483  -2.248  0.00  0.00    -0.200 F 
ENDBRANCH  28  29
ENDBRANCH  25  28
ENDBRANCH  20  22
ENDBRANCH  18  20
ENDBRANCH   1  18
TORSDOF 7
