REMARK  Name = ZINCrH000004q5pc.0
REMARK                            x       y       z     vdW  Elec       q    Type
REMARK                         _______ _______ _______ _____ _____    ______ ____
ROOT
ATOM      1  C   LIG    1       -3.007   5.294  -0.057  0.00  0.00    +0.120 C 
ATOM      2  C   LIG    1       -2.656   3.829  -0.010  0.00  0.00    -0.030 A 
ATOM      3  C   LIG    1       -3.562   2.853  -0.163  0.00  0.00    -0.220 A 
ATOM      4  S   LIG    1       -2.784   1.282  -0.054  0.00  0.00    +0.330 S 
ATOM      5  C   LIG    1       -1.255   1.992   0.205  0.00  0.00    +0.030 A 
ATOM      6  C   LIG    1       -1.356   3.362   0.197  0.00  0.00    -0.200 A 
ENDROOT
BRANCH   6   7
ATOM      7  C   LIG    1       -0.205   4.252   0.390  0.00  0.00    +0.590 C 
ATOM      8  N   LIG    1        0.137   4.652   1.630  0.00  0.00    -0.610 N 
ATOM      9  C   LIG    1       -0.632   4.216   2.806  0.00  0.00    +0.250 C 
ATOM     10  C   LIG    1        0.355   3.661   3.846  0.00  0.00    +0.210 C 
ATOM     11  O   LIG    1        1.380   4.629   4.082  0.00  0.00    -0.380 OA
ATOM     12  C   LIG    1        2.177   4.929   2.934  0.00  0.00    +0.220 C 
ATOM     13  C   LIG    1        1.287   5.545   1.848  0.00  0.00    +0.250 C 
ATOM     14  O   LIG    1        0.441   4.628  -0.571  0.00  0.00    -0.530 OA
ENDBRANCH   6   7
BRANCH   3  15
ATOM     15  C   LIG    1       -5.006   3.067  -0.395  0.00  0.00    -0.010 A 
ATOM     16  C   LIG    1       -5.949   2.355   0.348  0.00  0.00    +0.010 A 
ATOM     17  C   LIG    1       -7.295   2.565   0.130  0.00  0.00    +0.010 A 
ATOM     18  C   LIG    1       -7.711   3.470  -0.830  0.00  0.00    +0.000 A 
ATOM     19  C   LIG    1       -6.782   4.175  -1.574  0.00  0.00    +0.010 A 
ATOM     20  C   LIG    1       -5.433   3.979  -1.362  0.00  0.00    +0.020 A 
ENDBRANCH   3  15
BRANCH   5  21
ATOM     21  N   LIG    1       -0.077   1.287   0.390  0.00  0.00    -0.630 N 
ATOM     22  H   LIG    1        0.757   1.764   0.524  0.00  0.00    +0.420 HD
ATOM     23  C   LIG    1       -0.090  -0.060   0.380  0.00  0.00    +0.540 C 
ATOM     24  O   LIG    1       -1.133  -0.656   0.213  0.00  0.00    -0.490 OA
BRANCH  23  25
ATOM     25  C   LIG    1        1.193  -0.827   0.575  0.00  0.00    -0.070 C 
ATOM     26  C   LIG    1        1.740  -1.605  -0.623  0.00  0.00    +0.060 C 
ATOM     27  C   LIG    1        1.113  -2.355   0.553  0.00  0.00    +0.010 C 
ATOM     28  C   LIG    1       -0.264  -2.987   0.334  0.00  0.00    +0.070 C 
ENDBRANCH  23  25
ENDBRANCH   5  21
TORSDOF 4
