REMARK  Name = ZINCrH000004rIIM.1
REMARK                            x       y       z     vdW  Elec       q    Type
REMARK                         _______ _______ _______ _____ _____    ______ ____
ROOT
ATOM      1  C   LIG    1       -0.179  -4.064  -1.608  0.00  0.00    +0.090 C 
ATOM      2  C   LIG    1        0.425  -4.952  -0.518  0.00  0.00    +0.040 C 
ATOM      3  C   LIG    1       -0.314  -6.291  -0.479  0.00  0.00    +0.040 C 
ATOM      4  C   LIG    1       -1.788  -6.046  -0.142  0.00  0.00    +0.270 C 
ATOM      5  N   LIG    1       -2.339  -5.080  -1.101  0.00  0.00    -0.600 N 
ATOM      6  C   LIG    1       -3.454  -5.368  -1.801  0.00  0.00    +0.560 C 
ATOM      7  O   LIG    1       -3.940  -4.534  -2.541  0.00  0.00    -0.510 OA
ATOM      8  C   LIG    1       -1.652  -3.794  -1.283  0.00  0.00    +0.290 C 
ENDROOT
BRANCH   1  15
ATOM      9  C   LIG    1        2.696   2.765  -0.920  0.00  0.00    +0.100 C 
ATOM     10  C   LIG    1        2.445   1.355  -1.388  0.00  0.00    -0.060 A 
ATOM     11  C   LIG    1        3.225   0.816  -2.401  0.00  0.00    +0.000 A 
ATOM     12  C   LIG    1        3.013  -0.461  -2.839  0.00  0.00    +0.070 A 
ATOM     13  C   LIG    1        2.001  -1.235  -2.265  0.00  0.00    +0.040 A 
ATOM     14  N   LIG    1        1.556  -2.501  -2.476  0.00  0.00    -0.480 NA
ATOM     15  C   LIG    1        0.570  -2.758  -1.667  0.00  0.00    +0.290 A 
ATOM     16  N   LIG    1        0.315  -1.677  -0.882  0.00  0.00    -0.600 N 
ATOM     17  H   LIG    1       -0.370  -1.612  -0.198  0.00  0.00    +0.420 HD
ATOM     18  C   LIG    1        1.211  -0.689  -1.239  0.00  0.00    +0.050 A 
ATOM     19  C   LIG    1        1.441   0.609  -0.807  0.00  0.00    +0.000 A 
ENDBRANCH   1  15
BRANCH   6  20
ATOM     20  C   LIG    1       -4.088  -6.697  -1.670  0.00  0.00    -0.070 A 
ATOM     21  C   LIG    1       -4.370  -7.217  -0.406  0.00  0.00    +0.070 A 
ATOM     22  C   LIG    1       -4.966  -8.456  -0.291  0.00  0.00    +0.100 A 
ATOM     23  C   LIG    1       -5.274  -9.187  -1.425  0.00  0.00    -0.030 A 
ATOM     24  C   LIG    1       -4.990  -8.680  -2.680  0.00  0.00    +0.110 A 
ATOM     25  C   LIG    1       -4.400  -7.440  -2.810  0.00  0.00    +0.090 A 
BRANCH  23  26
ATOM     26  N   LIG    1       -5.908 -10.518  -1.293  0.00  0.00    +0.020 N 
ATOM     27  O   LIG    1       -6.158 -10.967  -0.189  0.00  0.00    -0.150 OA
ATOM     28  O   LIG    1       -6.179 -11.165  -2.289  0.00  0.00    -0.150 OA
ENDBRANCH  23  26
ENDBRANCH   6  20
TORSDOF 3
