REMARK  Name = ZINCrH000004rIIM.0
REMARK                            x       y       z     vdW  Elec       q    Type
REMARK                         _______ _______ _______ _____ _____    ______ ____
ROOT
ATOM      1  C   LIG    1        1.532   2.038  -0.646  0.00  0.00    +0.090 C 
ATOM      2  C   LIG    1        2.612   1.446   0.262  0.00  0.00    +0.040 C 
ATOM      3  C   LIG    1        2.632  -0.077   0.108  0.00  0.00    +0.040 C 
ATOM      4  C   LIG    1        1.276  -0.647   0.536  0.00  0.00    +0.270 C 
ATOM      5  N   LIG    1        0.218   0.023  -0.232  0.00  0.00    -0.600 N 
ATOM      6  C   LIG    1       -0.685  -0.695  -0.929  0.00  0.00    +0.560 C 
ATOM      7  O   LIG    1       -1.596  -0.132  -1.504  0.00  0.00    -0.510 OA
ATOM      8  C   LIG    1        0.163   1.492  -0.227  0.00  0.00    +0.290 C 
ENDROOT
BRANCH   1  16
ATOM      9  C   LIG    1        2.465   9.356  -1.278  0.00  0.00    +0.100 C 
ATOM     10  C   LIG    1        1.999   8.021  -0.758  0.00  0.00    -0.090 A 
ATOM     11  C   LIG    1        1.178   7.968   0.359  0.00  0.00    +0.030 A 
ATOM     12  C   LIG    1        0.742   6.755   0.849  0.00  0.00    +0.010 A 
ATOM     13  C   LIG    1        1.127   5.580   0.218  0.00  0.00    +0.040 A 
ATOM     14  N   LIG    1        0.877   4.241   0.443  0.00  0.00    -0.600 N 
ATOM     15  H   LIG    1        0.333   3.869   1.155  0.00  0.00    +0.420 HD
ATOM     16  C   LIG    1        1.535   3.539  -0.519  0.00  0.00    +0.290 A 
ATOM     17  N   LIG    1        2.172   4.353  -1.309  0.00  0.00    -0.480 NA
ATOM     18  C   LIG    1        1.959   5.634  -0.914  0.00  0.00    +0.050 A 
ATOM     19  C   LIG    1        2.388   6.874  -1.392  0.00  0.00    +0.060 A 
ENDBRANCH   1  16
BRANCH   6  20
ATOM     20  C   LIG    1       -0.568  -2.167  -0.993  0.00  0.00    -0.070 A 
ATOM     21  C   LIG    1       -0.613  -2.821  -2.225  0.00  0.00    +0.090 A 
ATOM     22  C   LIG    1       -0.497  -4.195  -2.279  0.00  0.00    +0.110 A 
ATOM     23  C   LIG    1       -0.348  -4.925  -1.113  0.00  0.00    -0.030 A 
ATOM     24  C   LIG    1       -0.307  -4.284   0.112  0.00  0.00    +0.100 A 
ATOM     25  C   LIG    1       -0.417  -2.910   0.179  0.00  0.00    +0.070 A 
BRANCH  23  26
ATOM     26  N   LIG    1       -0.231  -6.399  -1.177  0.00  0.00    +0.020 N 
ATOM     27  O   LIG    1       -0.266  -6.967  -2.255  0.00  0.00    -0.150 OA
ATOM     28  O   LIG    1       -0.099  -7.045  -0.153  0.00  0.00    -0.150 OA
ENDBRANCH  23  26
ENDBRANCH   6  20
TORSDOF 3
