REMARK  Name = ZINCpe00000VVGvI.0
REMARK                            x       y       z     vdW  Elec       q    Type
REMARK                         _______ _______ _______ _____ _____    ______ ____
ROOT
ATOM      1  C   LIG    1       -0.815   1.619  -1.197  0.00  0.00    +0.210 C 
ATOM      2  C   LIG    1       -0.005   1.099   0.008  0.00  0.00    +0.130 C 
ATOM      3  C   LIG    1       -0.777   1.593   1.211  0.00  0.00    +0.030 C 
ATOM      4  N   LIG    1       -1.817   2.256   0.809  0.00  0.00    -0.170 NA
ATOM      5  N   LIG    1       -1.939   2.337  -0.577  0.00  0.00    -0.440 N 
ENDROOT
BRANCH   3   6
ATOM      6  C   LIG    1       -0.408   1.356   2.606  0.00  0.00    +0.600 C 
ATOM      7  N   LIG    1       -1.104   1.949   3.597  0.00  0.00    -0.590 N 
ATOM      8  C   LIG    1       -2.308   2.774   3.345  0.00  0.00    +0.260 C 
ATOM      9  C   LIG    1       -2.222   4.104   4.083  0.00  0.00    +0.220 C 
ATOM     10  O   LIG    1       -1.774   3.936   5.441  0.00  0.00    -0.360 OA
ATOM     11  C   LIG    1       -0.521   3.296   5.489  0.00  0.00    +0.130 C 
ATOM     12  C   LIG    1        0.179   3.124   6.827  0.00  0.00    +0.050 C 
ATOM     13  C   LIG    1        0.993   1.811   6.692  0.00  0.00    +0.020 C 
ATOM     14  C   LIG    1        0.646   1.223   5.296  0.00  0.00    +0.060 C 
ATOM     15  C   LIG    1       -0.727   1.833   5.001  0.00  0.00    +0.200 C 
ATOM     16  O   LIG    1        0.527   0.624   2.873  0.00  0.00    -0.520 OA
ENDBRANCH   3   6
BRANCH   5  17
ATOM     17  C   LIG    1       -2.962   2.991  -1.264  0.00  0.00    +0.220 A 
ATOM     18  C   LIG    1       -2.970   3.005  -2.654  0.00  0.00    -0.050 A 
ATOM     19  C   LIG    1       -3.986   3.650  -3.331  0.00  0.00    +0.050 A 
ATOM     20  C   LIG    1       -4.990   4.290  -2.628  0.00  0.00    -0.030 A 
ATOM     21  C   LIG    1       -4.983   4.283  -1.245  0.00  0.00    +0.050 A 
ATOM     22  C   LIG    1       -3.973   3.636  -0.561  0.00  0.00    -0.020 A 
ENDBRANCH   5  17
BRANCH   1  26
ATOM     23  N   LIG    1       -0.491  -0.136  -2.910  0.00  0.00    -0.850 N 
ATOM     24  H   LIG    1       -0.814  -0.876  -3.448  0.00  0.00    +0.410 HD
ATOM     25  H   LIG    1        0.426   0.167  -3.002  0.00  0.00    +0.400 HD
ATOM     26  C   LIG    1       -1.316   0.470  -2.033  0.00  0.00    +0.510 C 
ATOM     27  O   LIG    1       -2.462   0.091  -1.918  0.00  0.00    -0.510 OA
ENDBRANCH   1  26
TORSDOF 3
