REMARK  Name = ZINCqH0000038i9F.1
REMARK                            x       y       z     vdW  Elec       q    Type
REMARK                         _______ _______ _______ _____ _____    ______ ____
ROOT
ATOM      1  C   LIG    1       -1.558  -4.984  -4.237  0.00  0.00    +0.230 C 
ENDROOT
BRANCH   1   2
ATOM      2  C   LIG    1       -0.802  -4.824  -2.942  0.00  0.00    -0.070 A 
ATOM      3  C   LIG    1       -0.152  -5.910  -2.384  0.00  0.00    +0.020 A 
ATOM      4  C   LIG    1        0.542  -5.768  -1.196  0.00  0.00    +0.030 A 
ATOM      5  C   LIG    1        0.588  -4.540  -0.565  0.00  0.00    +0.010 A 
ATOM      6  C   LIG    1       -0.063  -3.449  -1.123  0.00  0.00    +0.150 A 
ATOM      7  C   LIG    1       -0.764  -3.596  -2.312  0.00  0.00    +0.050 A 
BRANCH   6   8
ATOM      8  N   LIG    1       -0.018  -2.202  -0.484  0.00  0.00    -0.330 N 
ATOM      9  N   LIG    1       -1.093  -1.316  -0.327  0.00  0.00    -0.290 NA
ATOM     10  C   LIG    1       -0.662  -0.260   0.315  0.00  0.00    +0.080 A 
ATOM     11  C   LIG    1        0.696  -0.442   0.597  0.00  0.00    -0.110 A 
ATOM     12  C   LIG    1       -1.489   0.942   0.692  0.00  0.00    +0.160 C 
ATOM     13  C   LIG    1        1.068  -1.643   0.095  0.00  0.00    +0.090 A 
ATOM     14  C   LIG    1        2.446  -2.248   0.170  0.00  0.00    +0.140 C 
ENDBRANCH   6   8
ENDBRANCH   1   2
BRANCH   1  15
ATOM     15  N   LIG    1       -2.949  -5.357  -3.949  0.00  0.00    -0.680 NA
ATOM     16  H   LIG    1       -2.990  -6.192  -3.385  0.00  0.00    +0.350 HD
BRANCH  15  17
ATOM     17  C   LIG    1       -3.718  -5.521  -5.190  0.00  0.00    +0.280 C 
BRANCH  17  23
ATOM     18  C   LIG    1      -10.929  -6.029  -3.653  0.00  0.00    +0.120 C 
ATOM     19  C   LIG    1       -9.494  -6.414  -3.903  0.00  0.00    -0.110 A 
ATOM     20  C   LIG    1       -8.584  -5.462  -4.200  0.00  0.00    +0.210 A 
ATOM     21  N   LIG    1       -7.280  -5.794  -4.428  0.00  0.00    -0.360 N 
ATOM     22  C   LIG    1       -6.176  -5.047  -4.736  0.00  0.00    +0.110 A 
ATOM     23  C   LIG    1       -5.136  -5.903  -4.855  0.00  0.00    +0.060 A 
ATOM     24  N   LIG    1       -5.575  -7.142  -4.621  0.00  0.00    -0.490 NA
ATOM     25  C   LIG    1       -6.874  -7.101  -4.359  0.00  0.00    +0.220 A 
ATOM     26  C   LIG    1       -7.811  -8.107  -4.050  0.00  0.00    +0.070 A 
ATOM     27  C   LIG    1       -9.108  -7.763  -3.824  0.00  0.00    +0.040 A 
ENDBRANCH  17  23
ENDBRANCH  15  17
ENDBRANCH   1  15
TORSDOF 5
