REMARK  Name = ZINCAx0000000hpM.0
REMARK                            x       y       z     vdW  Elec       q    Type
REMARK                         _______ _______ _______ _____ _____    ______ ____
ROOT
ATOM      1  C   LIG    1        5.207   1.704   1.504  0.00  0.00    +0.520 C 
ATOM      2  O   LIG    1        5.656   1.129   0.533  0.00  0.00    -0.490 OA
ENDROOT
BRANCH   1   3
ATOM      3  C   LIG    1        5.572   1.255   2.863  0.00  0.00    -0.130 A 
ATOM      4  C   LIG    1        5.061   1.917   3.981  0.00  0.00    +0.090 A 
ATOM      5  C   LIG    1        5.402   1.488   5.248  0.00  0.00    +0.010 A 
ATOM      6  C   LIG    1        6.257   0.412   5.411  0.00  0.00    +0.090 A 
ATOM      7  C   LIG    1        6.771  -0.245   4.307  0.00  0.00    -0.130 A 
ATOM      8  C   LIG    1        6.434   0.169   3.035  0.00  0.00    +0.120 A 
BRANCH   7   9
ATOM      9  C   LIG    1        7.700  -1.416   4.494  0.00  0.00    +0.370 C 
BRANCH   9  10
ATOM     10  N   LIG    1        9.084  -0.938   4.547  0.00  0.00    -0.570 N 
ATOM     11  C   LIG    1        9.886  -0.807   3.475  0.00  0.00    +0.570 C 
ATOM     12  C   LIG    1       11.197  -0.297   3.927  0.00  0.00    -0.140 A 
ATOM     13  C   LIG    1       12.383   0.026   3.288  0.00  0.00    +0.100 A 
ATOM     14  C   LIG    1       13.460   0.486   4.028  0.00  0.00    +0.050 A 
ATOM     15  C   LIG    1       13.360   0.625   5.399  0.00  0.00    +0.050 A 
ATOM     16  C   LIG    1       12.179   0.307   6.053  0.00  0.00    +0.100 A 
ATOM     17  C   LIG    1       11.094  -0.154   5.326  0.00  0.00    -0.140 A 
ATOM     18  O   LIG    1        9.582  -1.062   2.327  0.00  0.00    -0.450 OA
ATOM     19  C   LIG    1        9.722  -0.578   5.676  0.00  0.00    +0.580 C 
ATOM     20  O   LIG    1        9.249  -0.597   6.794  0.00  0.00    -0.460 OA
ENDBRANCH   9  10
ENDBRANCH   7   9
ENDBRANCH   1   3
BRANCH   1  21
ATOM     21  O   LIG    1        4.375   2.752   1.342  0.00  0.00    -0.350 OA
BRANCH  21  22
ATOM     22  C   LIG    1        4.060   3.138  -0.022  0.00  0.00    +0.380 C 
BRANCH  22  29
ATOM     23  C   LIG    1       -0.453   7.258   0.044  0.00  0.00    +0.370 C 
ATOM     24  N   LIG    1       -0.012   5.861   0.033  0.00  0.00    -0.500 N 
ATOM     25  C   LIG    1       -0.923   4.871   0.037  0.00  0.00    +0.590 A 
ATOM     26  C   LIG    1       -0.504   3.514   0.026  0.00  0.00    -0.320 A 
ATOM     27  C   LIG    1        0.845   3.213   0.011  0.00  0.00    +0.170 A 
ATOM     28  N   LIG    1        1.762   4.273   0.008  0.00  0.00    -0.410 N 
ATOM     29  C   LIG    1        3.124   4.319  -0.006  0.00  0.00    +0.170 A 
ATOM     30  N   LIG    1        3.464   5.579  -0.003  0.00  0.00    -0.210 NA
ATOM     31  N   LIG    1        2.413   6.321   0.011  0.00  0.00    -0.280 NA
ATOM     32  C   LIG    1        1.075   1.842   0.002  0.00  0.00    +0.000 A 
ATOM     33  C   LIG    1       -0.013   1.076   0.008  0.00  0.00    -0.020 A 
ATOM     34  S   LIG    1       -1.432   2.019   0.019  0.00  0.00    +0.370 S 
ATOM     35  O   LIG    1       -2.111   5.139   0.050  0.00  0.00    -0.500 OA
ATOM     36  C   LIG    1        1.337   5.567   0.018  0.00  0.00    +0.430 A 
ENDBRANCH  22  29
ENDBRANCH  21  22
ENDBRANCH   1  21
TORSDOF 6
