REMARK  Name = ZINCnE000001CFVm.0
REMARK                            x       y       z     vdW  Elec       q    Type
REMARK                         _______ _______ _______ _____ _____    ______ ____
ROOT
ATOM      1  C   LIG    1        1.415   8.641   0.035  0.00  0.00    +0.210 C 
ENDROOT
BRANCH   1   2
ATOM      2  C   LIG    1        0.553   7.405   0.037  0.00  0.00    +0.210 A 
ATOM      3  N   LIG    1       -0.750   7.391   0.049  0.00  0.00    -0.470 NA
ATOM      4  C   LIG    1       -1.171   6.117   0.046  0.00  0.00    +0.170 A 
ATOM      5  C   LIG    1       -0.070   5.323   0.032  0.00  0.00    -0.010 A 
ATOM      6  O   LIG    1        1.004   6.143   0.032  0.00  0.00    -0.190 OA
BRANCH   5   7
ATOM      7  C   LIG    1       -0.050   3.845   0.024  0.00  0.00    -0.010 A 
ATOM      8  C   LIG    1        1.166   3.160   0.008  0.00  0.00    +0.030 A 
ATOM      9  C   LIG    1        1.178   1.781   0.000  0.00  0.00    +0.010 A 
ATOM     10  C   LIG    1       -0.013   1.076   0.008  0.00  0.00    +0.020 A 
ATOM     11  C   LIG    1       -1.222   1.748   0.017  0.00  0.00    +0.010 A 
ATOM     12  C   LIG    1       -1.247   3.127   0.031  0.00  0.00    +0.030 A 
ENDBRANCH   5   7
ENDBRANCH   1   2
BRANCH   1  13
ATOM     13  C   LIG    1        1.720   9.052   1.477  0.00  0.00    +0.090 C 
BRANCH  13  14
ATOM     14  S   LIG    1        2.757  10.541   1.475  0.00  0.00    -0.020 S 
BRANCH  14  18
ATOM     15  C   LIG    1        3.534  11.584   5.493  0.00  0.00    +0.330 A 
ATOM     16  N   LIG    1        2.794  10.525   5.350  0.00  0.00    -0.350 NA
ATOM     17  N   LIG    1        2.517  10.157   4.176  0.00  0.00    -0.220 NA
ATOM     18  C   LIG    1        2.999  10.857   3.192  0.00  0.00    -0.100 A 
ATOM     19  S   LIG    1        3.933  12.185   3.883  0.00  0.00    +0.010 S 
BRANCH  15  22
ATOM     20  C   LIG    1        3.998  12.187   9.175  0.00  0.00    +0.070 C 
ATOM     21  C   LIG    1        3.560  11.580   7.866  0.00  0.00    +0.460 C 
ATOM     22  N   LIG    1        3.938  12.144   6.702  0.00  0.00    -0.670 NA
ATOM     23  O   LIG    1        2.867  10.585   7.861  0.00  0.00    -0.580 OA
ENDBRANCH  15  22
ENDBRANCH  14  18
ENDBRANCH  13  14
ENDBRANCH   1  13
TORSDOF 6
