REMARK  Name = ZINCpe00000Rh5iq.0
REMARK                            x       y       z     vdW  Elec       q    Type
REMARK                         _______ _______ _______ _____ _____    ______ ____
ROOT
ATOM      1  N   LIG    1       -0.083   1.429  -0.063  0.00  0.00    -0.730 N 
ATOM      2  H   LIG    1        0.766   1.897  -0.041  0.00  0.00    +0.400 HD
ATOM      3  C   LIG    1       -1.237   2.124  -0.036  0.00  0.00    +0.510 C 
ATOM      4  O   LIG    1       -2.299   1.539  -0.068  0.00  0.00    -0.520 OA
ENDROOT
BRANCH   3   5
ATOM      5  C   LIG    1       -1.208   3.630   0.034  0.00  0.00    +0.220 C 
ATOM      6  C   LIG    1       -0.939   4.215  -1.368  0.00  0.00    +0.070 C 
ATOM      7  C   LIG    1       -1.853   5.469  -1.402  0.00  0.00    +0.060 C 
ATOM      8  C   LIG    1       -3.080   4.981  -0.593  0.00  0.00    +0.260 C 
ATOM      9  N   LIG    1       -2.517   4.135   0.475  0.00  0.00    -0.600 N 
ATOM     10  C   LIG    1       -3.104   3.868   1.658  0.00  0.00    +0.610 C 
ATOM     11  O   LIG    1       -2.573   3.104   2.442  0.00  0.00    -0.520 OA
BRANCH  10  12
ATOM     12  C   LIG    1       -4.382   4.499   2.000  0.00  0.00    -0.270 A 
ATOM     13  C   LIG    1       -5.011   4.410   3.211  0.00  0.00    +0.100 A 
ATOM     14  C   LIG    1       -6.197   5.103   3.259  0.00  0.00    -0.010 A 
ATOM     15  C   LIG    1       -6.535   5.729   2.126  0.00  0.00    -0.070 A 
ATOM     16  S   LIG    1       -5.356   5.483   0.917  0.00  0.00    +0.210 S 
ENDBRANCH  10  12
ENDBRANCH   3   5
BRANCH   1  20
ATOM     17  N   LIG    1        0.861  -2.622   0.466  0.00  0.00    -1.000 NA
ATOM     18  C   LIG    1        1.138  -2.068  -0.866  0.00  0.00    +0.300 C 
ATOM     19  C   LIG    1        1.186  -0.540  -0.765  0.00  0.00    +0.010 C 
ATOM     20  C   LIG    1       -0.112  -0.034  -0.131  0.00  0.00    +0.240 C 
ATOM     21  C   LIG    1       -0.249  -0.608   1.281  0.00  0.00    +0.000 C 
ATOM     22  C   LIG    1       -0.313  -2.137   1.203  0.00  0.00    +0.300 C 
BRANCH  17  24
ATOM     23  C   LIG    1        3.106  -2.824   2.033  0.00  0.00    -0.280 C 
ATOM     24  S   LIG    1        1.854  -3.772   1.125  0.00  0.00    +2.610 S 
ATOM     25  O   LIG    1        2.437  -4.418   0.001  0.00  0.00    -0.950 OA
ATOM     26  O   LIG    1        1.017  -4.484   2.025  0.00  0.00    -0.950 OA
ENDBRANCH  17  24
ENDBRANCH   1  20
TORSDOF 4
