REMARK  Name = ZINCrD00000463DD.0
REMARK                            x       y       z     vdW  Elec       q    Type
REMARK                         _______ _______ _______ _____ _____    ______ ____
ROOT
ATOM      1  C   LIG    1       -0.729   1.579   1.267  0.00  0.00    -0.020 C 
ATOM      2  C   LIG    1       -0.743   3.110   1.280  0.00  0.00    +0.050 C 
ATOM      3  C   LIG    1       -1.407   3.598   2.571  0.00  0.00    +0.200 C 
ATOM      4  N   LIG    1       -0.662   3.087   3.728  0.00  0.00    -0.470 N 
ATOM      5  C   LIG    1       -0.674   1.619   3.763  0.00  0.00    +0.210 C 
ATOM      6  C   LIG    1        0.011   1.073   2.508  0.00  0.00    +0.040 C 
ENDROOT
BRANCH   4   7
ATOM      7  C   LIG    1       -1.157   3.616   4.910  0.00  0.00    +0.370 A 
ATOM      8  C   LIG    1       -1.234   4.994   5.090  0.00  0.00    -0.110 A 
ATOM      9  C   LIG    1       -1.739   5.474   6.294  0.00  0.00    +0.370 A 
ATOM     10  N   LIG    1       -2.128   4.605   7.225  0.00  0.00    -0.570 NA
ATOM     11  C   LIG    1       -2.040   3.307   7.016  0.00  0.00    +0.550 A 
ATOM     12  N   LIG    1       -1.572   2.813   5.888  0.00  0.00    -0.570 NA
BRANCH   9  13
ATOM     13  N   LIG    1       -1.837   6.838   6.522  0.00  0.00    -0.470 N 
ATOM     14  C   LIG    1       -0.531   7.494   6.360  0.00  0.00    +0.180 C 
ATOM     15  C   LIG    1       -0.695   9.003   6.561  0.00  0.00    +0.230 C 
ATOM     16  O   LIG    1       -1.268   9.248   7.848  0.00  0.00    -0.380 OA
ATOM     17  C   LIG    1       -2.541   8.624   8.040  0.00  0.00    +0.230 C 
ATOM     18  C   LIG    1       -2.395   7.112   7.854  0.00  0.00    +0.190 C 
ENDBRANCH   9  13
ENDBRANCH   4   7
BRANCH   1  19
ATOM     19  C   LIG    1       -0.013   1.086   0.008  0.00  0.00    +0.250 C 
ATOM     20  F   LIG    1        1.300   1.570  -0.002  0.00  0.00    -0.200 F 
BRANCH  19  27
ATOM     21  F   LIG    1       -2.217  -0.266  -1.111  0.00  0.00    -0.140 F 
ATOM     22  C   LIG    1       -1.819   0.875  -1.715  0.00  0.00    +0.110 A 
ATOM     23  C   LIG    1       -2.492   1.338  -2.833  0.00  0.00    -0.010 A 
ATOM     24  C   LIG    1       -2.080   2.502  -3.453  0.00  0.00    +0.060 A 
ATOM     25  C   LIG    1       -1.000   3.207  -2.955  0.00  0.00    +0.000 A 
ATOM     26  C   LIG    1       -0.331   2.749  -1.835  0.00  0.00    +0.070 A 
ATOM     27  C   LIG    1       -0.742   1.585  -1.213  0.00  0.00    -0.160 A 
ENDBRANCH  19  27
ENDBRANCH   1  19
TORSDOF 4
