REMARK  Name = ZINCpe00000MxAfb.0
REMARK                            x       y       z     vdW  Elec       q    Type
REMARK                         _______ _______ _______ _____ _____    ______ ____
ROOT
ATOM      1  C   LIG    1       -3.395  -1.984  -2.976  0.00  0.00    +0.300 C 
ATOM      2  C   LIG    1       -4.690  -2.794  -2.758  0.00  0.00    +0.050 C 
ATOM      3  C   LIG    1       -4.502  -3.378  -1.333  0.00  0.00    +0.040 C 
ATOM      4  C   LIG    1       -3.748  -2.226  -0.622  0.00  0.00    +0.240 C 
ATOM      5  N   LIG    1       -2.843  -1.678  -1.648  0.00  0.00    -0.610 N 
ATOM      6  C   LIG    1       -1.702  -1.002  -1.409  0.00  0.00    +0.520 C 
ATOM      7  O   LIG    1       -1.033  -0.594  -2.334  0.00  0.00    -0.520 OA
ENDROOT
BRANCH   1  11
ATOM      8  C   LIG    1       -3.850   1.453  -6.595  0.00  0.00    +0.360 C 
ATOM      9  N   LIG    1       -3.900   0.787  -5.291  0.00  0.00    -0.370 N 
ATOM     10  C   LIG    1       -3.490  -0.471  -5.026  0.00  0.00    +0.240 A 
ATOM     11  C   LIG    1       -3.704  -0.705  -3.710  0.00  0.00    -0.240 A 
ATOM     12  C   LIG    1       -4.269   0.447  -3.154  0.00  0.00    +0.240 A 
ATOM     13  N   LIG    1       -4.380   1.345  -4.099  0.00  0.00    -0.300 NA
ENDBRANCH   1  11
BRANCH   6  14
ATOM     14  C   LIG    1       -1.257  -0.753   0.009  0.00  0.00    +0.370 C 
BRANCH  14  15
ATOM     15  N   LIG    1        0.002  -0.004   0.002  0.00  0.00    -0.440 N 
ATOM     16  N   LIG    1        1.220  -0.688  -0.013  0.00  0.00    +0.090 NA
ATOM     17  N   LIG    1        2.357  -0.091  -0.021  0.00  0.00    -0.200 NA
ATOM     18  C   LIG    1        2.457   1.262  -0.015  0.00  0.00    +0.060 A 
ATOM     19  C   LIG    1        3.700   1.898  -0.024  0.00  0.00    +0.080 A 
ATOM     20  C   LIG    1        3.764   3.274  -0.017  0.00  0.00    +0.060 A 
ATOM     21  C   LIG    1        2.605   4.039  -0.002  0.00  0.00    +0.040 A 
ATOM     22  C   LIG    1        1.367   3.434   0.007  0.00  0.00    +0.100 A 
ATOM     23  C   LIG    1        1.281   2.044   0.001  0.00  0.00    -0.150 A 
ATOM     24  C   LIG    1       -0.016   1.350   0.009  0.00  0.00    +0.540 A 
ATOM     25  O   LIG    1       -1.065   1.968   0.018  0.00  0.00    -0.500 OA
ENDBRANCH  14  15
ENDBRANCH   6  14
TORSDOF 3
