REMARK  Name = ZINCtV00000pjdO2.0
REMARK                            x       y       z     vdW  Elec       q    Type
REMARK                         _______ _______ _______ _____ _____    ______ ____
ROOT
ATOM      1  C   LIG    1        0.193  -1.724  -1.675  0.00  0.00    +0.420 A 
ATOM      2  N   LIG    1        0.306  -2.575  -0.665  0.00  0.00    -0.550 NA
ATOM      3  C   LIG    1        0.090  -3.872  -0.826  0.00  0.00    +0.390 A 
ATOM      4  N   LIG    1       -0.237  -4.404  -1.982  0.00  0.00    -0.500 NA
ATOM      5  C   LIG    1       -0.373  -3.633  -3.071  0.00  0.00    +0.180 A 
ATOM      6  C   LIG    1       -0.721  -4.173  -4.318  0.00  0.00    +0.050 A 
ATOM      7  C   LIG    1       -0.849  -3.356  -5.399  0.00  0.00    +0.080 A 
ATOM      8  C   LIG    1       -0.637  -1.974  -5.286  0.00  0.00    -0.040 A 
ATOM      9  C   LIG    1       -0.293  -1.413  -4.067  0.00  0.00    +0.100 A 
ATOM     10 CL   LIG    1        0.253  -4.918   0.550  0.00  0.00    +0.020 Cl
ATOM     11  C   LIG    1       -0.158  -2.238  -2.948  0.00  0.00    -0.150 A 
ENDROOT
BRANCH   1  15
ATOM     12  C   LIG    1       -0.703   2.081  -1.545  0.00  0.00    +0.040 C 
ATOM     13  C   LIG    1       -0.253   1.586  -0.170  0.00  0.00    +0.040 C 
ATOM     14  C   LIG    1       -0.082   0.064  -0.199  0.00  0.00    +0.220 C 
ATOM     15  N   LIG    1        0.415  -0.376  -1.492  0.00  0.00    -0.500 N 
ATOM     16  C   LIG    1        1.788  -0.026  -1.817  0.00  0.00    +0.220 C 
ATOM     17  C   LIG    1        1.925   1.481  -2.054  0.00  0.00    +0.090 C 
ATOM     18  C   LIG    1        2.120   2.158  -0.713  0.00  0.00    -0.080 A 
ATOM     19  C   LIG    1        3.342   2.723  -0.399  0.00  0.00    +0.010 A 
ATOM     20  C   LIG    1        3.515   3.339   0.828  0.00  0.00    +0.000 A 
ATOM     21  C   LIG    1        2.471   3.388   1.732  0.00  0.00    +0.000 A 
ATOM     22  C   LIG    1        1.250   2.822   1.412  0.00  0.00    +0.010 A 
ATOM     23  C   LIG    1        1.082   2.207   0.185  0.00  0.00    -0.080 A 
ENDBRANCH   1  15
BRANCH   8  24
ATOM     24  C   LIG    1       -0.783  -1.107  -6.481  0.00  0.00    -0.050 A 
ATOM     25  C   LIG    1       -0.579   0.267  -6.377  0.00  0.00    +0.020 A 
ATOM     26  C   LIG    1       -0.710   1.068  -7.493  0.00  0.00    +0.010 A 
ATOM     27  C   LIG    1       -1.054   0.510  -8.712  0.00  0.00    +0.010 A 
ATOM     28  C   LIG    1       -1.263  -0.853  -8.820  0.00  0.00    +0.010 A 
ATOM     29  C   LIG    1       -1.129  -1.664  -7.711  0.00  0.00    +0.020 A 
ENDBRANCH   8  24
TORSDOF 2
