REMARK  Name = ZINCc70000002krV.0
REMARK                            x       y       z     vdW  Elec       q    Type
REMARK                         _______ _______ _______ _____ _____    ______ ____
ROOT
ATOM      1  C   LIG    1        1.387   2.871   0.006  0.00  0.00    +0.160 C 
ATOM      2  N   LIG    1        1.131   1.594  -0.009  0.00  0.00    -0.270 NA
ENDROOT
BRANCH   1   6
ATOM      3  C   LIG    1        4.903   6.305   0.534  0.00  0.00    +0.190 C 
ATOM      4  C   LIG    1        4.351   4.911   0.378  0.00  0.00    +0.060 A 
ATOM      5  N   LIG    1        3.101   4.626   0.265  0.00  0.00    -0.480 NA
ATOM      6  C   LIG    1        2.782   3.345   0.139  0.00  0.00    +0.100 A 
ATOM      7  C   LIG    1        3.846   2.511   0.138  0.00  0.00    -0.020 A 
ATOM      8  S   LIG    1        5.299   3.490   0.319  0.00  0.00    +0.180 S 
ENDBRANCH   1   6
BRANCH   1   9
ATOM      9  C   LIG    1        0.280   3.849  -0.110  0.00  0.00    +0.540 C 
ATOM     10  O   LIG    1       -0.873   3.466  -0.113  0.00  0.00    -0.510 OA
ATOM     11  N   LIG    1        0.552   5.165  -0.214  0.00  0.00    -0.840 N 
ATOM     12  H   LIG    1       -0.167   5.799  -0.361  0.00  0.00    +0.400 HD
ATOM     13  H   LIG    1        1.467   5.479  -0.141  0.00  0.00    +0.420 HD
ENDBRANCH   1   9
BRANCH   2  14
ATOM     14  O   LIG    1       -0.210   1.141  -0.028  0.00  0.00    -0.340 OA
ATOM     15  H   LIG    1       -0.300   0.178  -0.038  0.00  0.00    +0.410 HD
ENDBRANCH   2  14
TORSDOF 3
