REMARK  Name = ZINCqH0000006Nf8.0
REMARK                            x       y       z     vdW  Elec       q    Type
REMARK                         _______ _______ _______ _____ _____    ______ ____
ROOT
ATOM      1  C   LIG    1       -0.017   1.388   0.010  0.00  0.00    +0.100 A 
ATOM      2  C   LIG    1        1.175   2.094   0.002  0.00  0.00    -0.010 A 
ATOM      3  C   LIG    1        2.380   1.415  -0.013  0.00  0.00    -0.110 A 
ATOM      4  C   LIG    1        2.399   0.034  -0.021  0.00  0.00    +0.040 A 
ATOM      5  C   LIG    1        1.213  -0.677  -0.013  0.00  0.00    -0.040 A 
ATOM      6  C   LIG    1        0.002  -0.004   0.002  0.00  0.00    +0.110 A 
ENDROOT
BRANCH   1   8
ATOM      7  C   LIG    1       -1.146   3.481   0.026  0.00  0.00    +0.250 C 
ATOM      8  O   LIG    1       -1.203   2.053   0.019  0.00  0.00    -0.300 OA
ENDBRANCH   1   8
BRANCH   3   9
ATOM      9  C   LIG    1        3.676   2.185  -0.022  0.00  0.00    +0.330 C 
BRANCH   9  10
ATOM     10  N   LIG    1        4.082   2.442  -1.406  0.00  0.00    -0.720 N 
ATOM     11  H   LIG    1        3.533   2.124  -2.139  0.00  0.00    +0.410 HD
ATOM     12  C   LIG    1        5.219   3.120  -1.660  0.00  0.00    +0.540 C 
ATOM     13  O   LIG    1        5.906   3.517  -0.743  0.00  0.00    -0.520 OA
BRANCH  12  14
ATOM     14  C   LIG    1        5.637   3.384  -3.083  0.00  0.00    +0.030 C 
ATOM     15  C   LIG    1        6.420   4.692  -3.147  0.00  0.00    +0.160 C 
ATOM     16  S   LIG    1        6.752   5.132  -4.873  0.00  0.00    -0.240 S 
ATOM     17  C   LIG    1        7.784   3.763  -5.460  0.00  0.00    +0.120 C 
ATOM     18  C   LIG    1        7.001   2.455  -5.397  0.00  0.00    +0.130 C 
ATOM     19  S   LIG    1        6.671   2.017  -3.670  0.00  0.00    -0.200 S 
ENDBRANCH  12  14
ENDBRANCH   9  10
ENDBRANCH   3   9
BRANCH   6  20
ATOM     20  O   LIG    1       -1.165  -0.702   0.010  0.00  0.00    -0.300 OA
BRANCH  20  21
ATOM     21  C   LIG    1       -1.069  -2.127   0.001  0.00  0.00    +0.240 C 
BRANCH  21  22
ATOM     22  C   LIG    1       -2.453  -2.724   0.012  0.00  0.00    -0.100 A 
ATOM     23  C   LIG    1       -3.074  -3.009   1.214  0.00  0.00    +0.030 A 
ATOM     24  C   LIG    1       -4.345  -3.552   1.223  0.00  0.00    +0.010 A 
ATOM     25  C   LIG    1       -4.992  -3.819   0.031  0.00  0.00    +0.010 A 
ATOM     26  C   LIG    1       -4.369  -3.539  -1.171  0.00  0.00    +0.010 A 
ATOM     27  C   LIG    1       -3.100  -2.991  -1.180  0.00  0.00    +0.030 A 
ENDBRANCH  21  22
ENDBRANCH  20  21
ENDBRANCH   6  20
TORSDOF 7
