REMARK  Name = ZINCqH00000h3KZm.0
REMARK                            x       y       z     vdW  Elec       q    Type
REMARK                         _______ _______ _______ _____ _____    ______ ____
ROOT
ATOM      1  O   LIG    1       -1.361  -0.501   0.015  0.00  0.00    -0.330 OA
ENDROOT
BRANCH   1   3
ATOM      2  C   LIG    1       -0.018   1.529   0.013  0.00  0.00    +0.070 C 
ATOM      3  C   LIG    1        0.001  -0.001   0.004  0.00  0.00    +0.180 C 
BRANCH   3   4
ATOM      4  C   LIG    1        0.731  -0.502   1.224  0.00  0.00    +0.510 C 
ATOM      5  N   LIG    1        2.045  -0.246   1.375  0.00  0.00    -0.660 N 
ATOM      6  H   LIG    1        2.538   0.196   0.666  0.00  0.00    +0.420 HD
ATOM      7  O   LIG    1        0.135  -1.135   2.069  0.00  0.00    -0.440 OA
BRANCH   5   8
ATOM      8  C   LIG    1        2.696  -0.616   2.552  0.00  0.00    +0.360 A 
ATOM      9  C   LIG    1        4.024  -0.256   2.746  0.00  0.00    -0.040 A 
ATOM     10  C   LIG    1        4.658  -0.626   3.920  0.00  0.00    +0.110 A 
ATOM     11  C   LIG    1        3.940  -1.355   4.858  0.00  0.00    -0.120 A 
ATOM     12  C   LIG    1        2.623  -1.683   4.596  0.00  0.00    +0.320 A 
ATOM     13 CL   LIG    1        4.689  -1.850   6.344  0.00  0.00    -0.050 Cl
ATOM     14  N   LIG    1        2.045  -1.312   3.470  0.00  0.00    -0.460 NA
ENDBRANCH   5   8
ENDBRANCH   3   4
ENDBRANCH   1   3
BRANCH   1  15
ATOM     15  C   LIG    1       -1.946  -0.704  -1.177  0.00  0.00    +0.460 C 
ATOM     16  O   LIG    1       -1.339  -0.471  -2.195  0.00  0.00    -0.510 OA
BRANCH  15  17
ATOM     17  C   LIG    1       -3.359  -1.223  -1.244  0.00  0.00    +0.110 C 
BRANCH  17  18
ATOM     18  C   LIG    1       -3.781  -1.364  -2.708  0.00  0.00    +0.130 C 
BRANCH  18  19
ATOM     19  C   LIG    1       -5.194  -1.882  -2.776  0.00  0.00    -0.180 A 
ATOM     20  C   LIG    1       -5.569  -3.163  -2.921  0.00  0.00    +0.230 A 
ATOM     21  N   LIG    1       -6.934  -3.252  -2.937  0.00  0.00    -0.590 N 
ATOM     22  H   LIG    1       -7.438  -4.075  -3.029  0.00  0.00    +0.420 HD
ATOM     23  C   LIG    1       -7.486  -1.996  -2.808  0.00  0.00    +0.090 A 
ATOM     24  C   LIG    1       -8.794  -1.525  -2.769  0.00  0.00    -0.010 A 
ATOM     25  C   LIG    1       -9.030  -0.175  -2.627  0.00  0.00    +0.030 A 
ATOM     26  C   LIG    1       -7.976   0.722  -2.523  0.00  0.00    -0.020 A 
ATOM     27  C   LIG    1       -6.683   0.280  -2.559  0.00  0.00    +0.050 A 
ATOM     28  C   LIG    1       -6.420  -1.084  -2.701  0.00  0.00    -0.100 A 
ENDBRANCH  18  19
ENDBRANCH  17  18
ENDBRANCH  15  17
ENDBRANCH   1  15
TORSDOF 7
