REMARK  Name = ZINCvU0000000Jex.0
REMARK                            x       y       z     vdW  Elec       q    Type
REMARK                         _______ _______ _______ _____ _____    ______ ____
ROOT
ATOM      1  C   LIG    1        1.569   3.604   0.006  0.00  0.00    +0.600 C 
ATOM      2  N   LIG    1        2.855   4.009  -0.004  0.00  0.00    -0.710 N 
ATOM      3  H   LIG    1        3.570   3.353  -0.014  0.00  0.00    +0.410 HD
ATOM      4  O   LIG    1        0.673   4.426   0.018  0.00  0.00    -0.530 OA
ENDROOT
BRANCH   1   7
ATOM      5  C   LIG    1        1.762   0.002  -0.015  0.00  0.00    +0.080 A 
ATOM      6  N   LIG    1        2.188   1.229  -0.012  0.00  0.00    -0.430 NA
ATOM      7  C   LIG    1        1.250   2.166   0.002  0.00  0.00    +0.010 A 
ATOM      8  C   LIG    1       -0.021   1.706   0.011  0.00  0.00    -0.040 A 
ATOM      9  S   LIG    1        0.002  -0.004   0.002  0.00  0.00    +0.250 S 
BRANCH   5  14
ATOM     10  C   LIG    1        2.861  -3.600  -0.045  0.00  0.00    +0.120 A 
ATOM     11  C   LIG    1        4.239  -3.456  -0.057  0.00  0.00    -0.040 A 
ATOM     12  C   LIG    1        4.809  -2.195  -0.055  0.00  0.00    +0.060 A 
ATOM     13  C   LIG    1        4.011  -1.071  -0.042  0.00  0.00    +0.040 A 
ATOM     14  C   LIG    1        2.621  -1.201  -0.029  0.00  0.00    -0.010 A 
ATOM     15  C   LIG    1        2.044  -2.475  -0.025  0.00  0.00    +0.080 A 
BRANCH  10  17
ATOM     16  C   LIG    1        3.205  -5.954  -0.061  0.00  0.00    +0.240 C 
ATOM     17  O   LIG    1        2.307  -4.843  -0.046  0.00  0.00    -0.300 OA
ENDBRANCH  10  17
BRANCH  15  18
ATOM     18  O   LIG    1        0.693  -2.613  -0.008  0.00  0.00    -0.320 OA
ATOM     19  C   LIG    1        0.030  -2.675  -1.273  0.00  0.00    +0.230 C 
ENDBRANCH  15  18
ENDBRANCH   5  14
ENDBRANCH   1   7
BRANCH   2  20
ATOM     20  C   LIG    1        3.172   5.439   0.000  0.00  0.00    +0.400 C 
BRANCH  20  21
ATOM     21  C   LIG    1        4.668   5.621  -0.013  0.00  0.00    -0.030 A 
ATOM     22  C   LIG    1        5.438   5.721  -1.114  0.00  0.00    -0.010 A 
ATOM     23  C   LIG    1        6.768   5.881  -0.676  0.00  0.00    -0.030 A 
ATOM     24  C   LIG    1        6.736   5.869   0.683  0.00  0.00    +0.040 A 
ATOM     25  O   LIG    1        5.455   5.716   1.071  0.00  0.00    -0.160 OA
BRANCH  24  26
ATOM     26  C   LIG    1        7.903   6.005   1.579  0.00  0.00    -0.030 A 
ATOM     27  C   LIG    1        9.183   6.159   1.044  0.00  0.00    +0.070 A 
ATOM     28  C   LIG    1       10.268   6.291   1.885  0.00  0.00    -0.010 A 
ATOM     29  C   LIG    1       10.091   6.261   3.259  0.00  0.00    +0.110 A 
ATOM     30  C   LIG    1        8.823   6.104   3.796  0.00  0.00    -0.010 A 
ATOM     31  F   LIG    1       11.158   6.385   4.078  0.00  0.00    -0.130 F 
ATOM     32  C   LIG    1        7.731   5.976   2.964  0.00  0.00    +0.070 A 
ENDBRANCH  24  26
ENDBRANCH  20  21
ENDBRANCH   2  20
TORSDOF 7
