REMARK  Name = ZINCtV00000vyAQd.0
REMARK                            x       y       z     vdW  Elec       q    Type
REMARK                         _______ _______ _______ _____ _____    ______ ____
ROOT
ATOM      1  O   LIG    1       -3.337  -0.799   0.179  0.00  0.00    -0.460 OA
ATOM      2  C   LIG    1       -2.306  -0.166   0.095  0.00  0.00    +0.520 C 
ATOM      3  N   LIG    1       -1.126  -0.811   0.008  0.00  0.00    -0.470 N 
ENDROOT
BRANCH   3   4
ATOM      4  C   LIG    1        0.059  -0.091   0.003  0.00  0.00    +0.320 A 
ATOM      5  N   LIG    1        1.237  -0.611   0.041  0.00  0.00    -0.480 NA
ATOM      6  C   LIG    1        2.296   0.221   0.029  0.00  0.00    +0.110 A 
ATOM      7  C   LIG    1        3.670  -0.097   0.064  0.00  0.00    +0.070 A 
ATOM      8  C   LIG    1        4.614   0.899   0.044  0.00  0.00    +0.040 A 
ATOM      9  C   LIG    1        4.234   2.232  -0.009  0.00  0.00    +0.040 A 
ATOM     10  C   LIG    1        2.899   2.566  -0.043  0.00  0.00    +0.060 A 
ATOM     11  C   LIG    1        1.927   1.569  -0.025  0.00  0.00    -0.200 A 
ATOM     12  S   LIG    1        0.167   1.663  -0.057  0.00  0.00    +0.100 S 
ENDBRANCH   3   4
BRANCH   3  13
ATOM     13  C   LIG    1       -1.096  -2.211  -0.078  0.00  0.00    +0.140 A 
ATOM     14  C   LIG    1       -1.699  -2.980   0.909  0.00  0.00    +0.060 A 
ATOM     15  C   LIG    1       -1.674  -4.357   0.822  0.00  0.00    +0.020 A 
ATOM     16  C   LIG    1       -1.036  -4.975  -0.247  0.00  0.00    -0.090 A 
ATOM     17  C   LIG    1       -0.428  -4.205  -1.231  0.00  0.00    +0.060 A 
ATOM     18  C   LIG    1       -0.458  -2.828  -1.146  0.00  0.00    +0.050 A 
BRANCH  16  19
ATOM     19  S   LIG    1       -0.997  -6.733  -0.354  0.00  0.00    -0.090 S 
BRANCH  19  20
ATOM     20  C   LIG    1       -1.904  -7.252   1.129  0.00  0.00    +0.430 C 
ATOM     21  F   LIG    1       -3.204  -6.739   1.084  0.00  0.00    -0.180 F 
ATOM     22  F   LIG    1       -1.251  -6.768   2.268  0.00  0.00    -0.180 F 
ENDBRANCH  19  20
ENDBRANCH  16  19
ENDBRANCH   3  13
BRANCH   2  23
ATOM     23  C   LIG    1       -2.344   1.340   0.090  0.00  0.00    +0.120 C 
BRANCH  23  24
ATOM     24  C   LIG    1       -3.773   1.807   0.197  0.00  0.00    -0.070 A 
ATOM     25  C   LIG    1       -4.518   2.020  -0.947  0.00  0.00    +0.020 A 
ATOM     26  C   LIG    1       -5.830   2.443  -0.848  0.00  0.00    +0.010 A 
ATOM     27  C   LIG    1       -6.394   2.664   0.395  0.00  0.00    +0.010 A 
ATOM     28  C   LIG    1       -5.646   2.457   1.539  0.00  0.00    +0.010 A 
ATOM     29  C   LIG    1       -4.336   2.028   1.440  0.00  0.00    +0.020 A 
ENDBRANCH  23  24
ENDBRANCH   2  23
TORSDOF 6
