REMARK  Name = ZINCrD00000F5LAL.0
REMARK                            x       y       z     vdW  Elec       q    Type
REMARK                         _______ _______ _______ _____ _____    ______ ____
ROOT
ATOM      1  C   LIG    1       -2.499   1.012   0.020  0.00  0.00    +0.180 C 
ATOM      2  C   LIG    1       -3.671   1.670   0.131  0.00  0.00    -0.130 C 
ATOM      3  C   LIG    1       -3.857   3.168   0.160  0.00  0.00    +0.120 C 
ATOM      4  C   LIG    1       -5.372   3.368   0.296  0.00  0.00    +0.290 C 
ATOM      5  N   LIG    1       -5.970   2.027   0.346  0.00  0.00    -0.550 N 
ATOM      6  C   LIG    1       -7.279   1.686   0.465  0.00  0.00    +0.570 A 
ATOM      7  C   LIG    1       -7.620   0.259   0.491  0.00  0.00    -0.220 A 
ATOM      8  C   LIG    1       -8.936  -0.183   0.610  0.00  0.00    +0.210 A 
ATOM      9  C   LIG    1       -9.200  -1.536   0.627  0.00  0.00    -0.080 A 
ATOM     10  C   LIG    1       -8.166  -2.459   0.527  0.00  0.00    +0.160 A 
ATOM     11  C   LIG    1       -6.859  -2.044   0.409  0.00  0.00    +0.060 A 
ATOM     12  C   LIG    1       -6.564  -0.677   0.389  0.00  0.00    +0.230 A 
ATOM     13  N   LIG    1       -5.304  -0.230   0.274  0.00  0.00    -0.530 NA
ATOM     14  O   LIG    1       -8.144   2.539   0.550  0.00  0.00    -0.490 OA
ATOM     15  C   LIG    1       -5.004   1.060   0.252  0.00  0.00    +0.460 A 
ENDROOT
BRANCH   1  19
ATOM     16  C   LIG    1        1.155   3.167   0.117  0.00  0.00    +0.110 A 
ATOM     17  C   LIG    1        0.101   3.554   0.933  0.00  0.00    -0.040 A 
ATOM     18  C   LIG    1       -1.086   2.855   0.908  0.00  0.00    +0.070 A 
ATOM     19  C   LIG    1       -1.232   1.757   0.054  0.00  0.00    -0.090 A 
ATOM     20  C   LIG    1       -0.165   1.367  -0.764  0.00  0.00    +0.060 A 
ATOM     21  C   LIG    1        1.018   2.072  -0.732  0.00  0.00    +0.070 A 
ATOM     22  F   LIG    1        2.047   1.700  -1.525  0.00  0.00    -0.130 F 
BRANCH  16  24
ATOM     23  C   LIG    1        2.396   4.972   1.039  0.00  0.00    +0.250 C 
ATOM     24  O   LIG    1        2.323   3.860   0.145  0.00  0.00    -0.310 OA
ENDBRANCH  16  24
ENDBRANCH   1  19
BRANCH   9  25
ATOM     25  N   LIG    1      -10.597  -2.009   0.753  0.00  0.00    +0.030 N 
ATOM     26  O   LIG    1      -11.507  -1.205   0.841  0.00  0.00    -0.160 OA
ATOM     27  O   LIG    1      -10.836  -3.204   0.769  0.00  0.00    -0.150 OA
ENDBRANCH   9  25
TORSDOF 3
