REMARK  Name = ZINCpe000000SBdd.0
REMARK                            x       y       z     vdW  Elec       q    Type
REMARK                         _______ _______ _______ _____ _____    ______ ____
ROOT
ATOM      1  C   LIG    1       -0.019   1.528   0.010  0.00  0.00    -0.020 C 
ATOM      2  C   LIG    1        1.419   2.053  -0.001  0.00  0.00    +0.050 C 
ATOM      3  C   LIG    1        2.149   1.573   1.256  0.00  0.00    +0.010 C 
ATOM      4  C   LIG    1        2.194   0.042   1.262  0.00  0.00    +0.270 C 
ATOM      5  N   LIG    1        0.824  -0.472   1.126  0.00  0.00    -0.610 N 
ATOM      6  C   LIG    1        0.332  -1.357   2.016  0.00  0.00    +0.520 C 
ATOM      7  O   LIG    1       -0.800  -1.774   1.893  0.00  0.00    -0.530 OA
ATOM      8  C   LIG    1        0.002  -0.004   0.002  0.00  0.00    +0.290 C 
ENDROOT
BRANCH   1  11
ATOM      9  N   LIG    1       -2.034   1.686  -1.415  0.00  0.00    -0.730 N 
ATOM     10  H   LIG    1       -2.493   1.118  -0.776  0.00  0.00    +0.410 HD
ATOM     11  C   LIG    1       -0.746   2.028  -1.211  0.00  0.00    +0.520 C 
ATOM     12  O   LIG    1       -0.173   2.737  -2.010  0.00  0.00    -0.530 OA
BRANCH   9  13
ATOM     13  C   LIG    1       -2.742   2.172  -2.602  0.00  0.00    +0.270 C 
BRANCH  13  14
ATOM     14  C   LIG    1       -4.177   1.643  -2.593  0.00  0.00    +0.270 C 
BRANCH  14  17
ATOM     15  C   LIG    1       -6.900   2.287  -5.205  0.00  0.00    +0.110 C 
ATOM     16  C   LIG    1       -6.172   1.787  -3.984  0.00  0.00    +0.510 C 
ATOM     17  N   LIG    1       -4.885   2.129  -3.780  0.00  0.00    -0.730 N 
ATOM     18  H   LIG    1       -4.426   2.696  -4.419  0.00  0.00    +0.400 HD
ATOM     19  O   LIG    1       -6.745   1.077  -3.185  0.00  0.00    -0.540 OA
ENDBRANCH  14  17
ENDBRANCH  13  14
ENDBRANCH   9  13
ENDBRANCH   1  11
BRANCH   6  20
ATOM     20  C   LIG    1        1.188  -1.827   3.163  0.00  0.00    +0.120 C 
BRANCH  20  21
ATOM     21  C   LIG    1        0.407  -2.804   4.004  0.00  0.00    -0.080 A 
ATOM     22  C   LIG    1       -0.352  -2.349   5.066  0.00  0.00    +0.050 A 
ATOM     23  C   LIG    1       -1.072  -3.244   5.835  0.00  0.00    -0.010 A 
ATOM     24  C   LIG    1       -1.024  -4.598   5.548  0.00  0.00    +0.100 A 
ATOM     25  C   LIG    1       -0.259  -5.053   4.487  0.00  0.00    -0.010 A 
ATOM     26  F   LIG    1       -1.723  -5.474   6.302  0.00  0.00    -0.140 F 
ATOM     27  C   LIG    1        0.456  -4.156   3.716  0.00  0.00    +0.050 A 
ENDBRANCH  20  21
ENDBRANCH   6  20
TORSDOF 6
