REMARK  Name = ZINCrH000004tR8U.0
REMARK                            x       y       z     vdW  Elec       q    Type
REMARK                         _______ _______ _______ _____ _____    ______ ____
ROOT
ATOM      1  O   LIG    1       -6.528   9.593   1.846  0.00  0.00    -0.500 OA
ATOM      2  C   LIG    1       -5.621   9.055   1.247  0.00  0.00    +0.530 C 
ATOM      3  N   LIG    1       -5.224   9.534   0.052  0.00  0.00    -0.670 N 
ATOM      4  H   LIG    1       -4.456   9.146  -0.396  0.00  0.00    +0.410 HD
ENDROOT
BRANCH   3   5
ATOM      5  C   LIG    1       -5.920  10.592  -0.544  0.00  0.00    +0.140 A 
ATOM      6  C   LIG    1       -6.059  10.644  -1.925  0.00  0.00    -0.010 A 
ATOM      7  C   LIG    1       -6.750  11.687  -2.509  0.00  0.00    +0.050 A 
ATOM      8  C   LIG    1       -7.295  12.684  -1.722  0.00  0.00    -0.090 A 
ATOM      9  C   LIG    1       -7.155  12.638  -0.347  0.00  0.00    +0.020 A 
ATOM     10  C   LIG    1       -6.469  11.595   0.244  0.00  0.00    +0.020 A 
BRANCH   8  11
ATOM     11  C   LIG    1       -8.044  13.824  -2.363  0.00  0.00    +0.230 C 
BRANCH  11  12
ATOM     12  N   LIG    1       -7.109  14.915  -2.667  0.00  0.00    -0.530 NA
ATOM     13  C   LIG    1       -6.572  15.508  -1.434  0.00  0.00    +0.140 C 
ATOM     14  C   LIG    1       -5.559  16.598  -1.797  0.00  0.00    +0.220 C 
ATOM     15  O   LIG    1       -6.191  17.569  -2.635  0.00  0.00    -0.390 OA
ATOM     16  C   LIG    1       -6.725  17.026  -3.845  0.00  0.00    +0.220 C 
ATOM     17  C   LIG    1       -7.750  15.941  -3.503  0.00  0.00    +0.150 C 
ENDBRANCH  11  12
ENDBRANCH   8  11
ENDBRANCH   3   5
BRANCH   2  18
ATOM     18  C   LIG    1       -4.938   7.849   1.840  0.00  0.00    +0.090 C 
BRANCH  18  19
ATOM     19  S   LIG    1       -5.693   7.453   3.441  0.00  0.00    -0.030 S 
BRANCH  19  20
ATOM     20  C   LIG    1       -4.780   6.043   3.972  0.00  0.00    -0.100 A 
ATOM     21  C   LIG    1       -3.761   5.532   3.177  0.00  0.00    -0.020 A 
ATOM     22  C   LIG    1       -3.049   4.427   3.598  0.00  0.00    +0.030 A 
ATOM     23  C   LIG    1       -3.345   3.825   4.810  0.00  0.00    -0.100 A 
ATOM     24  C   LIG    1       -2.719   2.617   5.482  0.00  0.00    +0.080 C 
ATOM     25  C   LIG    1       -3.739   2.185   6.557  0.00  0.00    +0.030 C 
ATOM     26  C   LIG    1       -4.482   3.502   6.865  0.00  0.00    +0.080 C 
ATOM     27  C   LIG    1       -4.359   4.331   5.604  0.00  0.00    -0.080 A 
ATOM     28  C   LIG    1       -5.075   5.438   5.187  0.00  0.00    +0.040 A 
ENDBRANCH  19  20
ENDBRANCH  18  19
ENDBRANCH   2  18
TORSDOF 6
