REMARK  Name = ZINCrH000004mH2x.0
REMARK                            x       y       z     vdW  Elec       q    Type
REMARK                         _______ _______ _______ _____ _____    ______ ____
ROOT
ATOM      1  C   LIG    1        0.009   7.649  -1.402  0.00  0.00    +0.520 C 
ATOM      2  N   LIG    1        0.011   8.328  -2.566  0.00  0.00    -0.640 N 
ATOM      3  H   LIG    1       -0.055   7.850  -3.407  0.00  0.00    +0.420 HD
ATOM      4  O   LIG    1        0.091   8.247  -0.350  0.00  0.00    -0.500 OA
ENDROOT
BRANCH   2   5
ATOM      5  C   LIG    1        0.106   9.719  -2.561  0.00  0.00    +0.330 A 
ATOM      6  C   LIG    1        0.204  10.516  -1.462  0.00  0.00    -0.090 A 
ATOM      7  C   LIG    1        0.278  11.842  -1.899  0.00  0.00    +0.110 A 
ATOM      8  N   LIG    1        0.228  11.852  -3.206  0.00  0.00    -0.280 NA
ATOM      9  C   LIG    1        0.396  13.055  -1.012  0.00  0.00    +0.170 C 
ATOM     10  N   LIG    1        0.125  10.530  -3.656  0.00  0.00    -0.340 N 
BRANCH  10  11
ATOM     11  C   LIG    1        0.053  10.116  -4.989  0.00  0.00    +0.370 A 
ATOM     12  C   LIG    1       -0.432  10.989  -5.955  0.00  0.00    -0.010 A 
ATOM     13  C   LIG    1       -0.498  10.566  -7.271  0.00  0.00    -0.010 A 
ATOM     14  C   LIG    1       -0.076   9.280  -7.576  0.00  0.00    -0.050 A 
ATOM     15  C   LIG    1        0.394   8.465  -6.564  0.00  0.00    +0.310 A 
ATOM     16  C   LIG    1       -1.018  11.482  -8.349  0.00  0.00    +0.120 C 
ATOM     17  N   LIG    1        0.451   8.898  -5.319  0.00  0.00    -0.530 NA
ENDBRANCH  10  11
ENDBRANCH   2   5
BRANCH   1  18
ATOM     18  C   LIG    1       -0.094   6.145  -1.408  0.00  0.00    +0.010 C 
ATOM     19  C   LIG    1       -1.402   5.727  -2.082  0.00  0.00    +0.050 C 
BRANCH  18  20
ATOM     20  C   LIG    1       -0.074   5.628   0.032  0.00  0.00    +0.100 C 
BRANCH  20  24
ATOM     21  C   LIG    1       -0.016   1.355   0.009  0.00  0.00    +0.130 A 
ATOM     22  C   LIG    1       -1.226   2.033   0.019  0.00  0.00    -0.080 A 
ATOM     23  C   LIG    1       -1.242   3.414   0.031  0.00  0.00    +0.060 A 
ATOM     24  C   LIG    1       -0.054   4.121   0.024  0.00  0.00    -0.120 A 
ATOM     25  C   LIG    1        1.153   3.447   0.009  0.00  0.00    +0.060 A 
ATOM     26  C   LIG    1        1.175   2.066   0.002  0.00  0.00    -0.020 A 
BRANCH  21  28
ATOM     27  C   LIG    1       -1.262  -0.670   0.011  0.00  0.00    +0.250 C 
ATOM     28  O   LIG    1        0.002  -0.004   0.002  0.00  0.00    -0.320 OA
ENDBRANCH  21  28
ENDBRANCH  20  24
ENDBRANCH  18  20
ENDBRANCH   1  18
TORSDOF 6
