REMARK  Name = ZINCkj000005hSRz.1
REMARK                            x       y       z     vdW  Elec       q    Type
REMARK                         _______ _______ _______ _____ _____    ______ ____
ROOT
ATOM      1  C   LIG    1       -3.304  -1.344   1.093  0.00  0.00    +0.360 C 
ENDROOT
BRANCH   1   4
ATOM      2  C   LIG    1       -6.019   0.215   3.058  0.00  0.00    -0.030 A 
ATOM      3  C   LIG    1       -5.378   0.007   1.854  0.00  0.00    +0.090 A 
ATOM      4  C   LIG    1       -4.295  -0.839   2.110  0.00  0.00    -0.260 A 
ATOM      5  C   LIG    1       -4.298  -1.129   3.433  0.00  0.00    +0.260 A 
ATOM      6  N   LIG    1       -5.333  -0.493   4.020  0.00  0.00    -0.400 N 
ATOM      7  C   LIG    1       -5.675  -0.550   5.444  0.00  0.00    +0.350 C 
BRANCH   2   8
ATOM      8  C   LIG    1       -7.210   1.040   3.274  0.00  0.00    +0.530 C 
ATOM      9  O   LIG    1       -7.727   1.619   2.338  0.00  0.00    -0.480 OA
BRANCH   8  11
ATOM     10  C   LIG    1       -8.916   1.989   4.651  0.00  0.00    +0.290 C 
ATOM     11  O   LIG    1       -7.735   1.156   4.512  0.00  0.00    -0.360 OA
ENDBRANCH   8  11
ENDBRANCH   2   8
ENDBRANCH   1   4
BRANCH   1  12
ATOM     12  N   LIG    1       -2.176  -0.407   1.000  0.00  0.00    -0.500 N 
ATOM     13  H   LIG    1       -2.516   0.500   0.718  0.00  0.00    +0.440 HD
ATOM     14  H   LIG    1       -1.726  -0.332   1.900  0.00  0.00    +0.430 HD
BRANCH  12  15
ATOM     15  C   LIG    1       -1.210  -0.899   0.009  0.00  0.00    +0.280 C 
ATOM     16  C   LIG    1       -1.856  -0.894  -1.378  0.00  0.00    +0.100 C 
BRANCH  15  17
ATOM     17  C   LIG    1        0.002  -0.004   0.002  0.00  0.00    +0.120 A 
ATOM     18  N   LIG    1       -0.016   1.301   0.009  0.00  0.00    -0.470 NA
ATOM     19  C   LIG    1        1.244   1.760  -0.000  0.00  0.00    +0.180 A 
ATOM     20  C   LIG    1        2.075   0.700  -0.014  0.00  0.00    +0.180 A 
ATOM     21  N   LIG    1        1.287  -0.420  -0.013  0.00  0.00    -0.440 N 
ATOM     22  C   LIG    1        1.751  -1.809  -0.024  0.00  0.00    +0.340 C 
ENDBRANCH  15  17
ENDBRANCH  12  15
ENDBRANCH   1  12
TORSDOF 6
