REMARK  Name = ZINCqH0000000k1V.0
REMARK                            x       y       z     vdW  Elec       q    Type
REMARK                         _______ _______ _______ _____ _____    ______ ____
ROOT
ATOM      1  C   LIG    1        0.233   5.726   0.030  0.00  0.00    +0.530 C 
ATOM      2  N   LIG    1       -0.852   6.525   0.045  0.00  0.00    -0.630 N 
ATOM      3  H   LIG    1       -1.741   6.136   0.051  0.00  0.00    +0.420 HD
ATOM      4  O   LIG    1        1.344   6.212   0.021  0.00  0.00    -0.480 OA
ENDROOT
BRANCH   2   5
ATOM      5  C   LIG    1       -0.698   7.904   0.050  0.00  0.00    +0.050 A 
ATOM      6  C   LIG    1       -1.727   8.800   0.060  0.00  0.00    -0.110 A 
ATOM      7  C   LIG    1       -1.289  10.186   0.071  0.00  0.00    -0.040 A 
ATOM      8  C   LIG    1        0.043  10.297   0.054  0.00  0.00    -0.240 A 
ATOM      9  C   LIG    1        0.809  11.604   0.040  0.00  0.00    +0.110 C 
ATOM     10  C   LIG    1        0.251  12.549   1.103  0.00  0.00    +0.020 C 
ATOM     11  C   LIG    1       -0.863  13.393   0.490  0.00  0.00    +0.000 C 
ATOM     12  C   LIG    1       -1.613  12.579  -0.561  0.00  0.00    +0.030 C 
ATOM     13  C   LIG    1       -2.252  11.360   0.097  0.00  0.00    +0.090 C 
ATOM     14  S   LIG    1        0.801   8.710   0.039  0.00  0.00    +0.320 S 
BRANCH   6  15
ATOM     15  C   LIG    1       -3.106   8.412   0.062  0.00  0.00    +0.270 C 
ATOM     16  N   LIG    1       -4.199   8.104   0.064  0.00  0.00    -0.420 NA
ENDBRANCH   6  15
ENDBRANCH   2   5
BRANCH   1  17
ATOM     17  C   LIG    1        0.066   4.228   0.024  0.00  0.00    +0.130 C 
BRANCH  17  18
ATOM     18  S   LIG    1        1.694   3.439   0.004  0.00  0.00    +0.090 S 
BRANCH  18  24
ATOM     19  N   LIG    1        2.047   0.663  -0.014  0.00  0.00    -0.460 N 
ATOM     20  C   LIG    1        1.232  -0.435  -0.012  0.00  0.00    +0.190 A 
ATOM     21  N   LIG    1        0.002  -0.004   0.002  0.00  0.00    -0.280 NA
ATOM     22  N   LIG    1       -0.015   1.281   0.009  0.00  0.00    -0.290 NA
ATOM     23  C   LIG    1        1.673  -1.875  -0.024  0.00  0.00    +0.200 C 
ATOM     24  C   LIG    1        1.213   1.744  -0.000  0.00  0.00    +0.140 A 
BRANCH  19  25
ATOM     25  C   LIG    1        3.512   0.676  -0.027  0.00  0.00    +0.340 C 
BRANCH  25  27
ATOM     26  C   LIG    1        4.821   1.627  -1.856  0.00  0.00    +0.080 C 
ATOM     27  C   LIG    1        4.002   0.688  -1.453  0.00  0.00    -0.070 C 
ENDBRANCH  25  27
ENDBRANCH  19  25
ENDBRANCH  18  24
ENDBRANCH  17  18
ENDBRANCH   1  17
TORSDOF 7
