REMARK  Name = ZINCpk00000y6xAU.0
REMARK                            x       y       z     vdW  Elec       q    Type
REMARK                         _______ _______ _______ _____ _____    ______ ____
ROOT
ATOM      1  C   LIG    1        3.707   2.007  -4.402  0.00  0.00    +0.520 C 
ATOM      2  N   LIG    1        3.412   0.828  -3.818  0.00  0.00    -0.620 N 
ATOM      3  C   LIG    1        3.605  -0.423  -4.556  0.00  0.00    +0.270 C 
ATOM      4  O   LIG    1        3.547   3.043  -3.792  0.00  0.00    -0.510 OA
ENDROOT
BRANCH   1   5
ATOM      5  C   LIG    1        4.234   2.038  -5.814  0.00  0.00    +0.150 C 
BRANCH   5  10
ATOM      6  C   LIG    1        5.666   4.222  -6.077  0.00  0.00    +0.040 A 
ATOM      7  N   LIG    1        5.417   5.398  -6.577  0.00  0.00    -0.360 NA
ATOM      8  O   LIG    1        4.285   5.472  -6.998  0.00  0.00    +0.100 OA
ATOM      9  C   LIG    1        3.622   4.319  -6.832  0.00  0.00    -0.010 A 
ATOM     10  C   LIG    1        4.481   3.466  -6.227  0.00  0.00    -0.180 A 
BRANCH   6  12
ATOM     11  C   LIG    1        7.852   3.149  -6.546  0.00  0.00    +0.040 C 
ATOM     12  C   LIG    1        6.961   3.759  -5.461  0.00  0.00    +0.110 C 
ENDBRANCH   6  12
BRANCH   9  13
ATOM     13  C   LIG    1        2.199   4.031  -7.237  0.00  0.00    +0.140 C 
ATOM     14  C   LIG    1        1.258   4.386  -6.084  0.00  0.00    +0.040 C 
ENDBRANCH   9  13
ENDBRANCH   5  10
ENDBRANCH   1   5
BRANCH   2  15
ATOM     15  C   LIG    1        2.899   0.798  -2.446  0.00  0.00    +0.290 C 
BRANCH  15  16
ATOM     16  C   LIG    1        4.070   0.700  -1.466  0.00  0.00    +0.150 C 
ATOM     17  O   LIG    1        4.843   1.911  -1.505  0.00  0.00    -0.350 OA
ATOM     18  C   LIG    1        5.336   2.139  -0.168  0.00  0.00    +0.220 C 
ATOM     19  C   LIG    1        4.135   1.749   0.735  0.00  0.00    +0.020 C 
ATOM     20  C   LIG    1        3.538   0.542  -0.029  0.00  0.00    +0.090 C 
BRANCH  20  21
ATOM     21  C   LIG    1        2.032   0.600  -0.014  0.00  0.00    +0.190 A 
ATOM     22  N   LIG    1        1.219  -0.420  -0.012  0.00  0.00    -0.290 NA
ATOM     23  N   LIG    1        0.002  -0.004   0.002  0.00  0.00    -0.290 NA
ATOM     24  C   LIG    1       -0.016   1.301   0.009  0.00  0.00    +0.380 A 
ATOM     25  N   LIG    1        1.272   1.722  -0.001  0.00  0.00    -0.580 N 
ATOM     26  H   LIG    1        1.586   2.639   0.001  0.00  0.00    +0.430 HD
ENDBRANCH  20  21
ENDBRANCH  15  16
ENDBRANCH   2  15
TORSDOF 7
