REMARK  Name = ZINCpk00000y6xAU.1
REMARK                            x       y       z     vdW  Elec       q    Type
REMARK                         _______ _______ _______ _____ _____    ______ ____
ROOT
ATOM      1  C   LIG    1        0.606   5.031  -4.397  0.00  0.00    +0.510 C 
ATOM      2  N   LIG    1       -0.141   5.252  -3.298  0.00  0.00    -0.610 N 
ATOM      3  C   LIG    1       -1.188   6.277  -3.317  0.00  0.00    +0.290 C 
ATOM      4  O   LIG    1        1.472   4.182  -4.380  0.00  0.00    -0.530 OA
ENDROOT
BRANCH   1   5
ATOM      5  C   LIG    1        0.367   5.839  -5.646  0.00  0.00    +0.160 C 
BRANCH   5  10
ATOM      6  C   LIG    1        2.618   5.908  -6.996  0.00  0.00    +0.040 A 
ATOM      7  N   LIG    1        3.074   5.226  -8.006  0.00  0.00    -0.360 NA
ATOM      8  O   LIG    1        2.274   4.402  -8.384  0.00  0.00    +0.100 OA
ATOM      9  C   LIG    1        1.153   4.429  -7.650  0.00  0.00    -0.010 A 
ATOM     10  C   LIG    1        1.328   5.399  -6.721  0.00  0.00    -0.180 A 
BRANCH   6  12
ATOM     11  C   LIG    1        4.139   6.431  -5.109  0.00  0.00    +0.030 C 
ATOM     12  C   LIG    1        3.325   7.019  -6.264  0.00  0.00    +0.110 C 
ENDBRANCH   6  12
BRANCH   9  13
ATOM     13  C   LIG    1       -0.061   3.553  -7.823  0.00  0.00    +0.140 C 
ATOM     14  C   LIG    1       -1.041   4.225  -8.786  0.00  0.00    +0.040 C 
ENDBRANCH   9  13
ENDBRANCH   5  10
ENDBRANCH   1   5
BRANCH   2  15
ATOM     15  C   LIG    1        0.092   4.467  -2.083  0.00  0.00    +0.310 C 
BRANCH  15  16
ATOM     16  C   LIG    1        1.127   5.176  -1.208  0.00  0.00    +0.160 C 
ATOM     17  O   LIG    1        0.586   6.410  -0.707  0.00  0.00    -0.360 OA
ATOM     18  C   LIG    1        1.138   6.608   0.612  0.00  0.00    +0.210 C 
ATOM     19  C   LIG    1        1.122   5.184   1.231  0.00  0.00    +0.040 C 
ATOM     20  C   LIG    1        1.473   4.299   0.011  0.00  0.00    +0.080 C 
BRANCH  20  21
ATOM     21  C   LIG    1        0.637   3.045   0.011  0.00  0.00    +0.240 A 
ATOM     22  N   LIG    1        1.102   1.823   0.001  0.00  0.00    -0.310 NA
ATOM     23  N   LIG    1       -0.011   0.966   0.007  0.00  0.00    -0.480 N 
ATOM     24  H   LIG    1        0.002  -0.004   0.002  0.00  0.00    +0.440 HD
ATOM     25  C   LIG    1       -1.098   1.757   0.016  0.00  0.00    +0.480 A 
ATOM     26  N   LIG    1       -0.694   3.001   0.024  0.00  0.00    -0.540 NA
ENDBRANCH  20  21
ENDBRANCH  15  16
ENDBRANCH   2  15
TORSDOF 7
