REMARK  Name = ZINCrH000004qWVL.0
REMARK                            x       y       z     vdW  Elec       q    Type
REMARK                         _______ _______ _______ _____ _____    ______ ____
ROOT
ATOM      1  N   LIG    1        2.179   4.091  -0.891  0.00  0.00    -0.550 NA
ATOM      2  C   LIG    1        2.165   5.524  -1.147  0.00  0.00    +0.180 C 
ATOM      3  C   LIG    1        2.558   6.304   0.109  0.00  0.00    +0.300 C 
ATOM      4  N   LIG    1        1.353   6.510   0.930  0.00  0.00    -0.730 N 
ATOM      5  H   LIG    1        0.967   7.396   1.010  0.00  0.00    +0.400 HD
ATOM      6  C   LIG    1        0.792   5.477   1.566  0.00  0.00    +0.520 C 
ATOM      7  C   LIG    1        1.394   4.093   1.437  0.00  0.00    +0.090 C 
ATOM      8  O   LIG    1       -0.198   5.648   2.246  0.00  0.00    -0.540 OA
ATOM      9  C   LIG    1        1.151   3.592   0.010  0.00  0.00    +0.210 C 
ENDROOT
BRANCH   9  10
ATOM     10  C   LIG    1        1.171   2.086   0.002  0.00  0.00    -0.090 A 
ATOM     11  C   LIG    1       -0.017   1.378   0.010  0.00  0.00    +0.010 A 
ATOM     12  C   LIG    1        0.002  -0.004   0.002  0.00  0.00    +0.000 A 
ATOM     13  C   LIG    1        1.208  -0.679  -0.013  0.00  0.00    +0.010 A 
ATOM     14  C   LIG    1        2.396   0.029  -0.021  0.00  0.00    +0.000 A 
ATOM     15  C   LIG    1        2.377   1.411  -0.015  0.00  0.00    +0.030 A 
ENDBRANCH   9  10
BRANCH   1  16
ATOM     16  C   LIG    1        2.190   3.332  -2.150  0.00  0.00    +0.320 C 
BRANCH  16  20
ATOM     17  C   LIG    1        4.765   4.705  -4.369  0.00  0.00    +0.060 A 
ATOM     18  N   LIG    1        3.663   5.333  -4.698  0.00  0.00    -0.350 NA
ATOM     19  O   LIG    1        2.726   4.960  -4.032  0.00  0.00    +0.100 OA
ATOM     20  C   LIG    1        3.087   4.022  -3.145  0.00  0.00    -0.030 A 
ATOM     21  C   LIG    1        4.411   3.810  -3.321  0.00  0.00    -0.020 A 
BRANCH  17  26
ATOM     22  C   LIG    1        9.986   5.421  -6.693  0.00  0.00    +0.090 C 
ATOM     23  C   LIG    1        8.619   5.234  -6.085  0.00  0.00    -0.070 A 
ATOM     24  C   LIG    1        7.551   5.979  -6.549  0.00  0.00    +0.010 A 
ATOM     25  C   LIG    1        6.297   5.812  -5.995  0.00  0.00    +0.040 A 
ATOM     26  C   LIG    1        6.110   4.889  -4.968  0.00  0.00    -0.030 A 
ATOM     27  C   LIG    1        7.191   4.144  -4.502  0.00  0.00    +0.040 A 
ATOM     28  C   LIG    1        8.439   4.316  -5.066  0.00  0.00    +0.010 A 
ENDBRANCH  17  26
ENDBRANCH  16  20
ENDBRANCH   1  16
TORSDOF 4
