REMARK  Name = ZINCrg00000fSn7N.0
REMARK                            x       y       z     vdW  Elec       q    Type
REMARK                         _______ _______ _______ _____ _____    ______ ____
ROOT
ATOM      1  S   LIG    1       -1.556   2.177   0.021  0.00  0.00    +0.030 S 
ENDROOT
BRANCH   1   5
ATOM      2  C   LIG    1        1.090  -2.189  -0.020  0.00  0.00    +0.140 C 
ATOM      3  C   LIG    1        1.132  -0.683  -0.012  0.00  0.00    +0.170 A 
ATOM      4  N   LIG    1        0.002  -0.004   0.002  0.00  0.00    -0.490 NA
ATOM      5  C   LIG    1       -0.016   1.321   0.009  0.00  0.00    +0.130 A 
ATOM      6  C   LIG    1        1.188   2.047   0.002  0.00  0.00    -0.170 A 
ATOM      7  C   LIG    1        2.399   1.345  -0.014  0.00  0.00    +0.010 A 
ATOM      8  C   LIG    1        3.716   2.077  -0.022  0.00  0.00    +0.130 C 
ATOM      9  C   LIG    1        2.357  -0.038  -0.021  0.00  0.00    -0.140 A 
ATOM     10  C   LIG    1        3.635  -0.836  -0.037  0.00  0.00    +0.120 C 
BRANCH   6  11
ATOM     11  C   LIG    1        1.175   3.521   0.009  0.00  0.00    +0.570 C 
ATOM     12  O   LIG    1        1.180   4.124   1.065  0.00  0.00    -0.520 OA
ATOM     13  N   LIG    1        1.158   4.201  -1.154  0.00  0.00    -0.840 N 
ATOM     14  H   LIG    1        1.150   5.171  -1.149  0.00  0.00    +0.410 HD
ATOM     15  H   LIG    1        1.155   3.720  -1.997  0.00  0.00    +0.400 HD
ENDBRANCH   6  11
ENDBRANCH   1   5
BRANCH   1  16
ATOM     16  C   LIG    1       -2.697   0.771   0.019  0.00  0.00    +0.160 C 
BRANCH  16  17
ATOM     17  C   LIG    1       -4.116   1.276   0.028  0.00  0.00    +0.480 C 
ATOM     18  O   LIG    1       -4.335   2.465   0.036  0.00  0.00    -0.490 OA
BRANCH  17  19
ATOM     19  O   LIG    1       -5.138   0.406   0.029  0.00  0.00    -0.320 OA
BRANCH  19  20
ATOM     20  C   LIG    1       -6.479   0.964   0.038  0.00  0.00    +0.270 C 
BRANCH  20  21
ATOM     21  C   LIG    1       -7.488  -0.155   0.036  0.00  0.00    +0.520 C 
ATOM     22  N   LIG    1       -8.806   0.126   0.044  0.00  0.00    -0.720 N 
ATOM     23  H   LIG    1       -9.105   1.049   0.051  0.00  0.00    +0.410 HD
ATOM     24  O   LIG    1       -7.115  -1.309   0.029  0.00  0.00    -0.520 OA
BRANCH  22  25
ATOM     25  C   LIG    1       -9.788  -0.962   0.043  0.00  0.00    +0.280 C 
BRANCH  25  26
ATOM     26  C   LIG    1      -11.200  -0.374   0.053  0.00  0.00    +0.150 C 
ATOM     27  C   LIG    1      -12.255  -1.509   0.087  0.00  0.00    +0.020 C 
ATOM     28  C   LIG    1      -13.461  -0.770   0.730  0.00  0.00    +0.010 C 
ATOM     29  C   LIG    1      -12.768   0.207   1.704  0.00  0.00    +0.190 C 
ATOM     30  O   LIG    1      -11.419   0.380   1.256  0.00  0.00    -0.380 OA
ENDBRANCH  25  26
ENDBRANCH  22  25
ENDBRANCH  20  21
ENDBRANCH  19  20
ENDBRANCH  17  19
ENDBRANCH  16  17
ENDBRANCH   1  16
TORSDOF 9
