REMARK  Name = ZINCpk000000nFMv.0
REMARK                            x       y       z     vdW  Elec       q    Type
REMARK                         _______ _______ _______ _____ _____    ______ ____
ROOT
ATOM      1  N   LIG    1       -2.513   2.890   4.669  0.00  0.00    -0.690 N 
ATOM      2  H   LIG    1       -3.478   2.845   4.755  0.00  0.00    +0.420 HD
ENDROOT
BRANCH   1   3
ATOM      3  C   LIG    1       -1.923   2.640   3.466  0.00  0.00    +0.540 A 
ATOM      4  C   LIG    1       -0.529   2.575   3.358  0.00  0.00    -0.320 A 
ATOM      5  C   LIG    1        0.040   2.307   2.085  0.00  0.00    +0.590 A 
ATOM      6  N   LIG    1       -0.771   2.134   1.023  0.00  0.00    -0.560 N 
ATOM      7  C   LIG    1       -2.107   2.202   1.157  0.00  0.00    +0.710 A 
ATOM      8  O   LIG    1       -2.810   2.036   0.179  0.00  0.00    -0.520 OA
ATOM      9  C   LIG    1       -0.190   1.862  -0.294  0.00  0.00    +0.350 C 
ATOM     10  O   LIG    1        1.249   2.237   1.953  0.00  0.00    -0.510 OA
ATOM     11  N   LIG    1       -2.685   2.449   2.345  0.00  0.00    -0.540 N 
ATOM     12  C   LIG    1       -4.145   2.514   2.442  0.00  0.00    +0.360 C 
BRANCH   4  13
ATOM     13  C   LIG    1        0.303   2.770   4.507  0.00  0.00    +0.300 C 
ATOM     14  N   LIG    1        0.964   2.925   5.418  0.00  0.00    -0.440 NA
ENDBRANCH   4  13
ENDBRANCH   1   3
BRANCH   1  15
ATOM     15  C   LIG    1       -1.689   3.228   5.833  0.00  0.00    +0.350 C 
BRANCH  15  20
ATOM     16  C   LIG    1       -3.810   2.884   8.937  0.00  0.00    -0.090 A 
ATOM     17  C   LIG    1       -4.219   4.189   9.138  0.00  0.00    +0.050 A 
ATOM     18  C   LIG    1       -3.808   5.184   8.270  0.00  0.00    +0.010 A 
ATOM     19  C   LIG    1       -2.986   4.873   7.203  0.00  0.00    +0.040 A 
ATOM     20  C   LIG    1       -2.582   3.567   6.999  0.00  0.00    -0.120 A 
ATOM     21  C   LIG    1       -2.991   2.573   7.867  0.00  0.00    +0.060 A 
BRANCH  16  22
ATOM     22  C   LIG    1       -4.258   1.800   9.884  0.00  0.00    +0.220 C 
BRANCH  22  23
ATOM     23  O   LIG    1       -3.314   1.679  10.949  0.00  0.00    -0.380 OA
BRANCH  23  25
ATOM     24  C   LIG    1       -3.025  -0.660  11.485  0.00  0.00    +0.020 C 
ATOM     25  C   LIG    1       -3.646   0.673  11.908  0.00  0.00    +0.140 C 
ATOM     26  C   LIG    1       -3.101   1.076  13.280  0.00  0.00    +0.040 C 
ENDBRANCH  23  25
ENDBRANCH  22  23
ENDBRANCH  16  22
ENDBRANCH  15  20
ENDBRANCH   1  15
TORSDOF 7
