REMARK  Name = ZINCkj000005iBGd.0
REMARK                            x       y       z     vdW  Elec       q    Type
REMARK                         _______ _______ _______ _____ _____    ______ ____
ROOT
ATOM      1  C   LIG    1        3.593   7.084  -3.060  0.00  0.00    +0.150 A 
ATOM      2  C   LIG    1        3.017   7.169  -1.803  0.00  0.00    -0.030 A 
ATOM      3  C   LIG    1        2.837   6.026  -1.046  0.00  0.00    -0.050 A 
ATOM      4  C   LIG    1        3.241   4.798  -1.536  0.00  0.00    -0.170 A 
ATOM      5  C   LIG    1        3.817   4.706  -2.790  0.00  0.00    +0.010 A 
ATOM      6  C   LIG    1        2.204   6.119   0.319  0.00  0.00    +0.110 C 
ATOM      7  C   LIG    1        3.995   5.846  -3.556  0.00  0.00    +0.100 A 
ENDROOT
BRANCH   1   9
ATOM      8  C   LIG    1        3.331   9.441  -3.235  0.00  0.00    +0.250 C 
ATOM      9  O   LIG    1        3.766   8.206  -3.808  0.00  0.00    -0.290 OA
ENDBRANCH   1   9
BRANCH   7  10
ATOM     10  O   LIG    1        4.561   5.758  -4.789  0.00  0.00    -0.300 OA
ATOM     11  C   LIG    1        4.949   4.456  -5.232  0.00  0.00    +0.250 C 
ENDBRANCH   7  10
BRANCH   4  12
ATOM     12  C   LIG    1        3.048   3.556  -0.705  0.00  0.00    +0.330 C 
BRANCH  12  13
ATOM     13  N   LIG    1        1.653   3.106  -0.812  0.00  0.00    -0.500 N 
ATOM     14  H   LIG    1        1.039   3.833  -0.479  0.00  0.00    +0.430 HD
ATOM     15  H   LIG    1        1.440   2.902  -1.777  0.00  0.00    +0.430 HD
BRANCH  13  16
ATOM     16  C   LIG    1        1.465   1.896  -0.002  0.00  0.00    +0.180 C 
ATOM     17  C   LIG    1        2.144   0.675  -0.664  0.00  0.00    +0.100 C 
ATOM     18  C   LIG    1        1.203  -0.474  -0.379  0.00  0.00    +0.520 C 
ATOM     19  N   LIG    1        0.002  -0.004   0.002  0.00  0.00    -0.620 N 
ATOM     20  C   LIG    1       -1.140  -0.848   0.363  0.00  0.00    +0.330 C 
ATOM     21  O   LIG    1        1.489  -1.648  -0.478  0.00  0.00    -0.490 OA
ATOM     22  C   LIG    1       -0.018   1.463   0.010  0.00  0.00    +0.290 C 
ENDBRANCH  13  16
ENDBRANCH  12  13
ENDBRANCH   4  12
TORSDOF 5
