REMARK  Name = ZINCtV00001bB3mJ.0
REMARK                            x       y       z     vdW  Elec       q    Type
REMARK                         _______ _______ _______ _____ _____    ______ ____
ROOT
ATOM      1  C   LIG    1       -0.672  -2.805   0.451  0.00  0.00    +0.170 C 
ATOM      2  C   LIG    1        0.759  -3.105   0.085  0.00  0.00    -0.180 A 
ATOM      3  C   LIG    1        1.784  -2.244   0.061  0.00  0.00    +0.150 A 
ATOM      4  N   LIG    1        3.011  -2.725  -0.309  0.00  0.00    -0.460 N 
ATOM      5  C   LIG    1        3.083  -4.056  -0.614  0.00  0.00    +0.390 A 
ATOM      6  N   LIG    1        4.150  -4.736  -0.988  0.00  0.00    -0.510 NA
ATOM      7  S   LIG    1        1.433  -4.669  -0.404  0.00  0.00    +0.000 S 
ENDROOT
BRANCH   6   8
ATOM      8  C   LIG    1        4.048  -6.071  -1.264  0.00  0.00    +0.120 A 
ATOM      9  C   LIG    1        3.336  -6.913  -0.404  0.00  0.00    -0.040 A 
ATOM     10  C   LIG    1        3.232  -8.258  -0.691  0.00  0.00    +0.020 A 
ATOM     11  C   LIG    1        3.841  -8.777  -1.821  0.00  0.00    -0.010 A 
ATOM     12  C   LIG    1        4.551  -7.950  -2.674  0.00  0.00    +0.030 A 
ATOM     13  C   LIG    1        4.659  -6.602  -2.403  0.00  0.00    +0.020 A 
ENDBRANCH   6   8
BRANCH   4  14
ATOM     14  C   LIG    1        4.138  -1.896  -0.368  0.00  0.00    +0.130 A 
ATOM     15  C   LIG    1        4.330  -1.059  -1.459  0.00  0.00    +0.020 A 
ATOM     16  C   LIG    1        5.440  -0.239  -1.511  0.00  0.00    +0.020 A 
ATOM     17  C   LIG    1        6.365  -0.259  -0.483  0.00  0.00    +0.020 A 
ATOM     18  C   LIG    1        6.179  -1.095   0.602  0.00  0.00    +0.020 A 
ATOM     19  C   LIG    1        5.069  -1.914   0.663  0.00  0.00    +0.020 A 
ENDBRANCH   4  14
BRANCH   3  20
ATOM     20  C   LIG    1        1.596  -0.821   0.417  0.00  0.00    -0.060 A 
ATOM     21  C   LIG    1        2.213  -0.294   1.551  0.00  0.00    +0.070 A 
ATOM     22  C   LIG    1        2.035   1.035   1.878  0.00  0.00    -0.010 A 
ATOM     23  C   LIG    1        1.244   1.847   1.085  0.00  0.00    +0.070 A 
ATOM     24  C   LIG    1        0.627   1.336  -0.043  0.00  0.00    -0.050 A 
ATOM     25  C   LIG    1        0.797   0.005  -0.383  0.00  0.00    +0.140 A 
BRANCH  25  26
ATOM     26  O   LIG    1        0.191  -0.498  -1.491  0.00  0.00    -0.310 OA
BRANCH  26  27
ATOM     27  C   LIG    1       -0.514   0.427  -2.322  0.00  0.00    +0.590 C 
ATOM     28  F   LIG    1        0.373   1.402  -2.789  0.00  0.00    -0.200 F 
ATOM     29  F   LIG    1       -1.531   1.038  -1.581  0.00  0.00    -0.200 F 
ENDBRANCH  26  27
ENDBRANCH  25  26
ENDBRANCH   3  20
TORSDOF 5
