REMARK  Name = ZINCrg00000wU7GA.0
REMARK                            x       y       z     vdW  Elec       q    Type
REMARK                         _______ _______ _______ _____ _____    ______ ____
ROOT
ATOM      1  C   LIG    1       -0.985   1.868   1.410  0.00  0.00    +0.210 C 
ATOM      2  C   LIG    1       -0.178   1.399   0.198  0.00  0.00    +0.040 C 
ENDROOT
BRANCH   1   3
ATOM      3  N   LIG    1       -0.241   1.569   2.637  0.00  0.00    -0.710 N 
ATOM      4  H   LIG    1       -0.420   0.751   3.125  0.00  0.00    +0.410 HD
ATOM      5  C   LIG    1        0.692   2.432   3.086  0.00  0.00    +0.570 C 
ATOM      6  O   LIG    1        0.980   3.413   2.428  0.00  0.00    -0.530 OA
BRANCH   5   7
ATOM      7  C   LIG    1        1.363   2.187   4.375  0.00  0.00    -0.220 A 
ATOM      8  C   LIG    1        2.238   3.121   4.925  0.00  0.00    +0.190 A 
ATOM      9  C   LIG    1        2.835   2.819   6.155  0.00  0.00    +0.060 A 
ATOM     10  N   LIG    1        2.581   1.689   6.757  0.00  0.00    -0.200 NA
ATOM     11  N   LIG    1        1.785   0.805   6.277  0.00  0.00    -0.430 N 
ATOM     12  H   LIG    1        1.637  -0.015   6.773  0.00  0.00    +0.450 HD
ATOM     13  C   LIG    1        3.784   3.804   6.787  0.00  0.00    +0.180 C 
ATOM     14  C   LIG    1        1.148   0.983   5.103  0.00  0.00    +0.500 A 
ATOM     15  O   LIG    1        0.397   0.125   4.671  0.00  0.00    -0.530 OA
ENDBRANCH   5   7
ENDBRANCH   1   3
BRANCH   1  16
ATOM     16  C   LIG    1       -2.330   1.140   1.440  0.00  0.00    +0.290 C 
BRANCH  16  18
ATOM     17  C   LIG    1       -3.882   2.561   2.669  0.00  0.00    +0.530 C 
ATOM     18  N   LIG    1       -3.053   1.499   2.663  0.00  0.00    -0.610 N 
ATOM     19  C   LIG    1       -2.873   0.703   3.880  0.00  0.00    +0.280 C 
ATOM     20  O   LIG    1       -3.967   3.269   1.688  0.00  0.00    -0.520 OA
BRANCH  17  26
ATOM     21  C   LIG    1       -5.414   4.212   3.710  0.00  0.00    +0.220 C 
ATOM     22  O   LIG    1       -6.238   4.474   4.848  0.00  0.00    -0.370 OA
ATOM     23  C   LIG    1       -7.266   3.505   5.060  0.00  0.00    +0.210 C 
ATOM     24  C   LIG    1       -6.630   2.133   5.299  0.00  0.00    +0.000 C 
ATOM     25  C   LIG    1       -5.750   1.769   4.098  0.00  0.00    +0.030 C 
ATOM     26  C   LIG    1       -4.704   2.869   3.894  0.00  0.00    -0.030 C 
BRANCH  21  28
ATOM     27  C   LIG    1       -4.289   5.970   2.442  0.00  0.00    +0.060 C 
ATOM     28  C   LIG    1       -4.389   5.308   3.568  0.00  0.00    -0.130 C 
ATOM     29  C   LIG    1       -3.479   5.641   4.722  0.00  0.00    +0.080 C 
ENDBRANCH  21  28
ENDBRANCH  17  26
ENDBRANCH  16  18
ENDBRANCH   1  16
TORSDOF 6
