REMARK  Name = ZINCrH000004pBiL.0
REMARK                            x       y       z     vdW  Elec       q    Type
REMARK                         _______ _______ _______ _____ _____    ______ ____
ROOT
ATOM      1  N   LIG    1        6.141   5.120   0.967  0.00  0.00    -0.620 N 
ATOM      2  C   LIG    1        5.269   4.914  -0.040  0.00  0.00    +0.710 C 
ATOM      3  N   LIG    1        5.342   3.787  -0.775  0.00  0.00    -0.740 N 
ATOM      4  H   LIG    1        6.022   3.123  -0.579  0.00  0.00    +0.400 HD
ATOM      5  O   LIG    1        4.417   5.746  -0.286  0.00  0.00    -0.590 OA
ATOM      6  C   LIG    1        7.167   4.117   1.263  0.00  0.00    +0.290 C 
ENDROOT
BRANCH   1   8
ATOM      7  C   LIG    1        7.420   7.049   1.756  0.00  0.00    +0.030 C 
ATOM      8  C   LIG    1        6.061   6.345   1.766  0.00  0.00    +0.300 C 
BRANCH   8   9
ATOM      9  C   LIG    1        5.687   5.997   3.184  0.00  0.00    -0.100 A 
ATOM     10  C   LIG    1        4.838   4.935   3.433  0.00  0.00    +0.020 A 
ATOM     11  C   LIG    1        4.497   4.614   4.734  0.00  0.00    +0.000 A 
ATOM     12  C   LIG    1        4.999   5.359   5.784  0.00  0.00    +0.000 A 
ATOM     13  C   LIG    1        5.844   6.425   5.534  0.00  0.00    +0.000 A 
ATOM     14  C   LIG    1        6.187   6.744   4.234  0.00  0.00    +0.020 A 
ENDBRANCH   8   9
ENDBRANCH   1   8
BRANCH   3  15
ATOM     15  C   LIG    1        4.395   3.564  -1.870  0.00  0.00    +0.340 C 
BRANCH  15  16
ATOM     16  C   LIG    1        4.689   2.240  -2.527  0.00  0.00    -0.110 A 
ATOM     17  C   LIG    1        5.353   2.202  -3.739  0.00  0.00    +0.040 A 
ATOM     18  C   LIG    1        5.618   0.988  -4.345  0.00  0.00    +0.010 A 
ATOM     19  C   LIG    1        5.224  -0.189  -3.736  0.00  0.00    +0.010 A 
ATOM     20  C   LIG    1        4.565  -0.151  -2.521  0.00  0.00    +0.010 A 
ATOM     21  C   LIG    1        4.300   1.063  -1.915  0.00  0.00    -0.080 A 
BRANCH  21  22
ATOM     22  C   LIG    1        3.582   1.104  -0.591  0.00  0.00    +0.360 C 
BRANCH  22  23
ATOM     23  N   LIG    1        3.408  -0.261  -0.087  0.00  0.00    -0.620 N 
ATOM     24  C   LIG    1        2.213  -1.082  -0.316  0.00  0.00    +0.250 C 
ATOM     25  C   LIG    1        2.287  -2.217   0.730  0.00  0.00    +0.040 C 
ATOM     26  C   LIG    1        3.810  -2.301   0.995  0.00  0.00    +0.050 C 
ATOM     27  C   LIG    1        4.322  -0.921   0.644  0.00  0.00    +0.520 C 
ATOM     28  O   LIG    1        5.403  -0.478   0.970  0.00  0.00    -0.530 OA
ENDBRANCH  22  23
ENDBRANCH  21  22
ENDBRANCH  15  16
ENDBRANCH   3  15
TORSDOF 6
