REMARK  Name = ZINCvU00000007UB.0
REMARK                            x       y       z     vdW  Elec       q    Type
REMARK                         _______ _______ _______ _____ _____    ______ ____
ROOT
ATOM      1  C   LIG    1       -3.509   6.396  -4.702  0.00  0.00    -0.140 A 
ATOM      2  C   LIG    1       -2.561   5.651  -5.406  0.00  0.00    +0.160 A 
ATOM      3  C   LIG    1       -1.342   5.369  -4.827  0.00  0.00    +0.020 A 
ATOM      4  C   LIG    1       -1.055   5.827  -3.552  0.00  0.00    +0.090 A 
ATOM      5  C   LIG    1       -1.993   6.563  -2.847  0.00  0.00    -0.690 A 
ATOM      6 CL   LIG    1        0.485   5.474  -2.833  0.00  0.00    -0.020 Cl
ATOM      7  C   LIG    1       -3.216   6.851  -3.415  0.00  0.00    +0.230 A 
ENDROOT
BRANCH   5   8
ATOM      8  S   LIG    1       -1.621   7.137  -1.223  0.00  0.00    +2.690 S 
ATOM      9  O   LIG    1       -2.791   7.788  -0.749  0.00  0.00    -0.940 OA
ATOM     10  O   LIG    1       -1.008   6.049  -0.544  0.00  0.00    -0.930 OA
BRANCH   8  11
ATOM     11  N   LIG    1       -0.461   8.309  -1.371  0.00  0.00    -0.990 NA
ATOM     12  C   LIG    1        0.970   7.993  -1.229  0.00  0.00    +0.310 C 
ATOM     13  C   LIG    1        1.646   8.260  -2.573  0.00  0.00    +0.070 C 
ATOM     14  C   LIG    1        1.235   9.600  -3.123  0.00  0.00    -0.060 A 
ATOM     15  C   LIG    1        2.045  10.172  -4.096  0.00  0.00    +0.000 A 
ATOM     16  C   LIG    1        1.721  11.395  -4.649  0.00  0.00    +0.000 A 
ATOM     17  C   LIG    1        0.577  12.053  -4.239  0.00  0.00    +0.000 A 
ATOM     18  C   LIG    1       -0.229  11.487  -3.272  0.00  0.00    +0.020 A 
ATOM     19  C   LIG    1        0.099  10.260  -2.711  0.00  0.00    -0.100 A 
ATOM     20  C   LIG    1       -0.818   9.704  -1.651  0.00  0.00    +0.350 C 
ENDBRANCH   8  11
ENDBRANCH   5   8
BRANCH   1  21
ATOM     21  C   LIG    1       -4.817   6.702  -5.316  0.00  0.00    +0.510 C 
ATOM     22  O   LIG    1       -5.640   7.350  -4.701  0.00  0.00    -0.470 OA
BRANCH  21  23
ATOM     23  O   LIG    1       -5.097   6.261  -6.558  0.00  0.00    -0.280 OA
BRANCH  23  29
ATOM     24  C   LIG    1       -9.765   5.320  -7.629  0.00  0.00    +0.100 C 
ATOM     25  C   LIG    1       -8.569   6.236  -7.647  0.00  0.00    -0.070 A 
ATOM     26  C   LIG    1       -8.669   7.490  -8.221  0.00  0.00    +0.040 A 
ATOM     27  C   LIG    1       -7.573   8.334  -8.239  0.00  0.00    +0.050 A 
ATOM     28  C   LIG    1       -6.375   7.925  -7.683  0.00  0.00    -0.050 A 
ATOM     29  C   LIG    1       -6.274   6.666  -7.106  0.00  0.00    +0.090 A 
ATOM     30 CL   LIG    1       -5.000   8.983  -7.707  0.00  0.00    -0.050 Cl
ATOM     31  C   LIG    1       -7.373   5.821  -7.094  0.00  0.00    +0.040 A 
ENDBRANCH  23  29
ENDBRANCH  21  23
ENDBRANCH   1  21
TORSDOF 5
