REMARK  Name = ZINCrH00000No4LM.0
REMARK                            x       y       z     vdW  Elec       q    Type
REMARK                         _______ _______ _______ _____ _____    ______ ____
ROOT
ATOM      1  C   LIG    1       -1.240   3.135   0.031  0.00  0.00    -0.700 A 
ATOM      2  C   LIG    1       -0.092   3.868   0.024  0.00  0.00    +0.190 A 
ATOM      3  C   LIG    1        1.149   3.213   0.008  0.00  0.00    -0.180 A 
ATOM      4  C   LIG    1        2.358   3.938   0.001  0.00  0.00    +0.150 A 
ATOM      5  C   LIG    1        3.529   3.240  -0.015  0.00  0.00    -0.080 A 
ATOM      6  C   LIG    1        3.507   1.839  -0.022  0.00  0.00    +0.450 A 
ATOM      7  N   LIG    1        2.373   1.167  -0.015  0.00  0.00    -0.560 NA
ATOM      8  C   LIG    1        1.193   1.798   0.000  0.00  0.00    +0.230 A 
ATOM      9  C   LIG    1       -0.013   1.076   0.008  0.00  0.00    +0.010 A 
ATOM     10  C   LIG    1       -1.199   1.743   0.017  0.00  0.00    +0.130 A 
ENDROOT
BRANCH   1  11
ATOM     11  S   LIG    1       -2.798   3.959   0.051  0.00  0.00    +2.690 S 
ATOM     12  O   LIG    1       -2.563   5.248   0.600  0.00  0.00    -0.960 OA
ATOM     13  O   LIG    1       -3.732   3.039   0.599  0.00  0.00    -0.950 OA
BRANCH  11  18
ATOM     14  C   LIG    1       -6.096   5.706  -4.302  0.00  0.00    +0.030 C 
ATOM     15  C   LIG    1       -4.858   5.051  -3.688  0.00  0.00    -0.020 C 
ATOM     16  C   LIG    1       -5.285   3.862  -2.824  0.00  0.00    +0.020 C 
ATOM     17  C   LIG    1       -4.040   3.188  -2.239  0.00  0.00    +0.280 C 
ATOM     18  N   LIG    1       -3.246   4.197  -1.525  0.00  0.00    -1.000 NA
ATOM     19  C   LIG    1       -2.863   5.425  -2.235  0.00  0.00    +0.280 C 
ATOM     20  C   LIG    1       -4.117   6.072  -2.822  0.00  0.00    +0.020 C 
ENDBRANCH  11  18
ENDBRANCH   1  11
BRANCH   6  21
ATOM     21  N   LIG    1        4.706   1.142  -0.038  0.00  0.00    -0.710 N 
ATOM     22  H   LIG    1        4.704   0.172  -0.043  0.00  0.00    +0.410 HD
BRANCH  21  23
ATOM     23  C   LIG    1        5.976   1.872  -0.047  0.00  0.00    +0.350 C 
BRANCH  23  24
ATOM     24  C   LIG    1        7.119   0.890  -0.064  0.00  0.00    -0.200 A 
ATOM     25  C   LIG    1        7.687   0.414   1.067  0.00  0.00    +0.010 A 
ATOM     26  S   LIG    1        8.926  -0.659   0.542  0.00  0.00    +0.280 S 
ATOM     27  N   LIG    1        8.655  -0.431  -1.117  0.00  0.00    -0.460 NA
ATOM     28  C   LIG    1        7.671   0.412  -1.232  0.00  0.00    +0.290 A 
ENDBRANCH  23  24
ENDBRANCH  21  23
ENDBRANCH   6  21
TORSDOF 5
