REMARK  Name = ZINCrD0000072fV6.2
REMARK                            x       y       z     vdW  Elec       q    Type
REMARK                         _______ _______ _______ _____ _____    ______ ____
ROOT
ATOM      1  N   LIG    1       -2.907   1.630   0.156  0.00  0.00    -0.740 N 
ATOM      2  H   LIG    1       -3.446   2.425   0.291  0.00  0.00    +0.400 HD
ATOM      3  C   LIG    1       -2.843   1.058  -1.062  0.00  0.00    +0.520 C 
ATOM      4  O   LIG    1       -2.170   0.064  -1.231  0.00  0.00    -0.520 OA
ENDROOT
BRANCH   1   5
ATOM      5  C   LIG    1       -2.164   1.050   1.278  0.00  0.00    +0.360 C 
BRANCH   5   6
ATOM      6  C   LIG    1       -2.831   1.432   2.574  0.00  0.00    +0.280 A 
ATOM      7  N   LIG    1       -2.373   1.151   3.759  0.00  0.00    -0.470 NA
ATOM      8  C   LIG    1       -3.215   1.645   4.703  0.00  0.00    +0.060 A 
ATOM      9  C   LIG    1       -3.209   1.633   6.100  0.00  0.00    +0.090 A 
ATOM     10  C   LIG    1       -4.238   2.231   6.793  0.00  0.00    -0.040 A 
ATOM     11  C   LIG    1       -5.282   2.845   6.114  0.00  0.00    +0.050 A 
ATOM     12  C   LIG    1       -5.303   2.865   4.736  0.00  0.00    +0.040 A 
ATOM     13 CL   LIG    1       -4.229   2.216   8.529  0.00  0.00    -0.060 Cl
ATOM     14  C   LIG    1       -4.274   2.268   4.021  0.00  0.00    +0.050 A 
ATOM     15  N   LIG    1       -4.002   2.116   2.675  0.00  0.00    -0.600 N 
ATOM     16  H   LIG    1       -4.545   2.439   1.939  0.00  0.00    +0.420 HD
ENDBRANCH   5   6
BRANCH   5  18
ATOM     17  C   LIG    1       -0.013   1.086   0.008  0.00  0.00    +0.020 C 
ATOM     18  C   LIG    1       -0.729   1.579   1.267  0.00  0.00    +0.030 C 
ENDBRANCH   5  18
ENDBRANCH   1   5
BRANCH   3  19
ATOM     19  C   LIG    1       -3.607   1.655  -2.216  0.00  0.00    +0.090 C 
BRANCH  19  20
ATOM     20  C   LIG    1       -3.364   0.821  -3.475  0.00  0.00    +0.100 C 
BRANCH  20  21
ATOM     21  C   LIG    1       -4.128   1.418  -4.629  0.00  0.00    +0.510 C 
ATOM     22  N   LIG    1       -4.064   0.847  -5.848  0.00  0.00    -0.630 N 
ATOM     23  H   LIG    1       -3.526   0.051  -5.982  0.00  0.00    +0.430 HD
ATOM     24  O   LIG    1       -4.801   2.413  -4.460  0.00  0.00    -0.470 OA
BRANCH  22  25
ATOM     25  C   LIG    1       -4.769   1.398  -6.912  0.00  0.00    +0.220 A 
ATOM     26  N   LIG    1       -5.520   2.456  -6.856  0.00  0.00    -0.270 NA
ATOM     27  N   LIG    1       -6.093   2.825  -7.919  0.00  0.00    -0.230 NA
ATOM     28  C   LIG    1       -5.875   2.107  -8.974  0.00  0.00    +0.010 A 
ATOM     29  C   LIG    1       -6.445   2.350 -10.348  0.00  0.00    +0.210 C 
ATOM     30  S   LIG    1       -4.786   0.797  -8.516  0.00  0.00    +0.110 S 
ENDBRANCH  22  25
ENDBRANCH  20  21
ENDBRANCH  19  20
ENDBRANCH   3  19
TORSDOF 7
