REMARK  Name = ZINCkj00000y7IDG.0
REMARK                            x       y       z     vdW  Elec       q    Type
REMARK                         _______ _______ _______ _____ _____    ______ ____
ROOT
ATOM      1  C   LIG    1       -2.755  -2.093   1.403  0.00  0.00    +0.280 C 
ENDROOT
BRANCH   1   2
ATOM      2  C   LIG    1       -3.149  -2.407   2.848  0.00  0.00    -0.040 C 
ATOM      3  C   LIG    1       -3.690  -1.137   3.550  0.00  0.00    +0.020 C 
ATOM      4  C   LIG    1       -5.226  -1.326   3.415  0.00  0.00    +0.220 C 
ATOM      5  O   LIG    1       -5.407  -2.748   3.583  0.00  0.00    -0.350 OA
ATOM      6  C   LIG    1       -4.331  -3.394   2.882  0.00  0.00    +0.260 C 
BRANCH   6   7
ATOM      7  C   LIG    1       -3.928  -4.651   3.609  0.00  0.00    -0.260 A 
ATOM      8  C   LIG    1       -3.470  -5.789   3.038  0.00  0.00    +0.260 A 
ATOM      9  N   LIG    1       -3.219  -6.674   4.026  0.00  0.00    -0.470 N 
ATOM     10  H   LIG    1       -2.879  -7.575   3.912  0.00  0.00    +0.450 HD
ATOM     11  N   LIG    1       -3.541  -6.062   5.244  0.00  0.00    -0.280 NA
ATOM     12  C   LIG    1       -3.966  -4.850   4.993  0.00  0.00    +0.270 A 
ENDBRANCH   6   7
ENDBRANCH   1   2
BRANCH   1  13
ATOM     13  N   LIG    1       -1.581  -1.210   1.396  0.00  0.00    -0.510 N 
ATOM     14  H   LIG    1       -1.802  -0.352   1.879  0.00  0.00    +0.430 HD
ATOM     15  H   LIG    1       -0.812  -1.670   1.862  0.00  0.00    +0.430 HD
BRANCH  13  16
ATOM     16  C   LIG    1       -1.203  -0.909   0.009  0.00  0.00    +0.370 C 
BRANCH  16  19
ATOM     17  C   LIG    1       -1.247   2.219   0.020  0.00  0.00    +0.120 C 
ATOM     18  C   LIG    1       -0.016   1.349   0.009  0.00  0.00    -0.170 A 
ATOM     19  C   LIG    1        0.002  -0.004   0.002  0.00  0.00    -0.010 A 
ATOM     20  N   LIG    1        1.293  -0.398  -0.012  0.00  0.00    -0.360 N 
ATOM     21  N   LIG    1        2.094   0.751  -0.014  0.00  0.00    -0.250 NA
ATOM     22  C   LIG    1        1.771  -1.782  -0.025  0.00  0.00    +0.370 C 
ATOM     23  C   LIG    1        1.308   1.797  -0.001  0.00  0.00    +0.250 A 
ENDBRANCH  16  19
ENDBRANCH  13  16
ENDBRANCH   1  13
TORSDOF 5
