REMARK  Name = ZINCrD000000CEi6.0
REMARK                            x       y       z     vdW  Elec       q    Type
REMARK                         _______ _______ _______ _____ _____    ______ ____
ROOT
ATOM      1  C   LIG    1       -0.573   6.561  -3.842  0.00  0.00    -0.110 A 
ATOM      2  C   LIG    1       -1.524   7.381  -3.232  0.00  0.00    +0.020 A 
ATOM      3  C   LIG    1       -1.376   7.742  -1.908  0.00  0.00    +0.040 A 
ATOM      4  C   LIG    1       -0.291   7.290  -1.181  0.00  0.00    +0.010 A 
ATOM      5  C   LIG    1        0.664   6.477  -1.781  0.00  0.00    +0.160 A 
ATOM      6  C   LIG    1        0.524   6.109  -3.110  0.00  0.00    +0.090 A 
ENDROOT
BRANCH   5   7
ATOM      7  N   LIG    1        1.764   6.026  -1.042  0.00  0.00    -0.690 N 
ATOM      8  H   LIG    1        2.166   6.600  -0.371  0.00  0.00    +0.410 HD
ATOM      9  C   LIG    1        2.264   4.794  -1.262  0.00  0.00    +0.720 C 
ATOM     10  N   LIG    1        3.252   4.318  -0.479  0.00  0.00    -0.630 N 
ATOM     11  C   LIG    1        3.803   4.989   0.712  0.00  0.00    +0.240 C 
ATOM     12  C   LIG    1        5.232   4.412   0.868  0.00  0.00    +0.040 C 
ATOM     13  C   LIG    1        5.018   2.934   0.446  0.00  0.00    +0.050 C 
ATOM     14  C   LIG    1        3.958   3.043  -0.670  0.00  0.00    +0.240 C 
ATOM     15  O   LIG    1        1.823   4.112  -2.167  0.00  0.00    -0.560 OA
BRANCH  14  16
ATOM     16  C   LIG    1        2.970   1.880  -0.565  0.00  0.00    -0.020 C 
ATOM     17  C   LIG    1        3.718   0.525  -0.633  0.00  0.00    +0.020 C 
ATOM     18  C   LIG    1        2.731  -0.442   0.074  0.00  0.00    +0.000 C 
ATOM     19  C   LIG    1        2.139   0.395   1.227  0.00  0.00    -0.010 C 
ATOM     20  C   LIG    1        2.291   1.872   0.820  0.00  0.00    +0.020 C 
ENDBRANCH  14  16
ENDBRANCH   5   7
BRANCH   1  22
ATOM     21  O   LIG    1       -0.358   5.078  -5.635  0.00  0.00    -0.520 OA
ATOM     22  C   LIG    1       -0.730   6.173  -5.260  0.00  0.00    +0.560 C 
ATOM     23  N   LIG    1       -1.285   7.033  -6.137  0.00  0.00    -0.610 N 
ATOM     24  C   LIG    1       -1.564   6.626  -7.524  0.00  0.00    +0.260 C 
ATOM     25  C   LIG    1       -3.023   6.990  -7.845  0.00  0.00    +0.220 C 
ATOM     26  O   LIG    1       -3.242   8.367  -7.532  0.00  0.00    -0.380 OA
ATOM     27  C   LIG    1       -3.074   8.687  -6.149  0.00  0.00    +0.220 C 
ATOM     28  C   LIG    1       -1.624   8.408  -5.739  0.00  0.00    +0.240 C 
ENDBRANCH   1  22
TORSDOF 3
