REMARK  Name = ZINCqH0000003iwt.0
REMARK                            x       y       z     vdW  Elec       q    Type
REMARK                         _______ _______ _______ _____ _____    ______ ____
ROOT
ATOM      1  C   LIG    1       -0.757   0.265   7.058  0.00  0.00    +0.520 C 
ATOM      2  N   LIG    1        0.307  -0.545   7.223  0.00  0.00    -0.640 N 
ATOM      3  H   LIG    1        0.736  -0.945   6.450  0.00  0.00    +0.420 HD
ATOM      4  O   LIG    1       -1.294   0.766   8.024  0.00  0.00    -0.460 OA
ENDROOT
BRANCH   1  10
ATOM      5  C   LIG    1       -0.165   1.193   2.387  0.00  0.00    +0.650 C 
ATOM      6  N   LIG    1       -0.747   1.594   3.535  0.00  0.00    -0.590 N 
ATOM      7  C   LIG    1       -1.954   2.431   3.509  0.00  0.00    +0.290 C 
ATOM      8  C   LIG    1       -3.037   1.753   4.362  0.00  0.00    +0.020 C 
ATOM      9  C   LIG    1       -2.484   1.492   5.765  0.00  0.00    +0.060 C 
ATOM     10  C   LIG    1       -1.282   0.548   5.674  0.00  0.00    -0.010 C 
ATOM     11  C   LIG    1       -0.182   1.208   4.835  0.00  0.00    +0.320 C 
ATOM     12  O   LIG    1        0.837   0.505   2.422  0.00  0.00    -0.570 OA
BRANCH   5  13
ATOM     13  O   LIG    1       -0.692   1.554   1.203  0.00  0.00    -0.370 OA
BRANCH  13  15
ATOM     14  C   LIG    1       -0.753   1.593  -1.232  0.00  0.00    +0.070 C 
ATOM     15  C   LIG    1       -0.013   1.086   0.008  0.00  0.00    +0.220 C 
ENDBRANCH  13  15
ENDBRANCH   5  13
ENDBRANCH   1  10
BRANCH   2  16
ATOM     16  C   LIG    1        0.790  -0.805   8.498  0.00  0.00    +0.270 A 
ATOM     17  N   LIG    1        0.290  -0.322   9.593  0.00  0.00    -0.470 NA
ATOM     18  C   LIG    1        0.870  -0.670  10.722  0.00  0.00    +0.270 A 
ATOM     19  C   LIG    1        1.924  -1.499  10.571  0.00  0.00    -0.210 A 
ATOM     20  S   LIG    1        2.124  -1.815   8.849  0.00  0.00    +0.160 S 
BRANCH  19  21
ATOM     21  C   LIG    1        2.760  -2.049  11.659  0.00  0.00    +0.030 A 
ATOM     22  C   LIG    1        3.826  -2.900  11.362  0.00  0.00    +0.000 A 
ATOM     23  C   LIG    1        4.603  -3.411  12.381  0.00  0.00    +0.060 A 
ATOM     24  C   LIG    1        4.328  -3.083  13.696  0.00  0.00    -0.010 A 
ATOM     25  C   LIG    1        3.272  -2.239  13.999  0.00  0.00    +0.110 A 
ATOM     26  F   LIG    1        3.009  -1.922  15.286  0.00  0.00    -0.140 F 
ATOM     27  C   LIG    1        2.490  -1.716  12.987  0.00  0.00    +0.000 A 
ENDBRANCH  19  21
ENDBRANCH   2  16
TORSDOF 5
