REMARK  Name = ZINCkj000005fopE.1
REMARK                            x       y       z     vdW  Elec       q    Type
REMARK                         _______ _______ _______ _____ _____    ______ ____
ROOT
ATOM      1  C   LIG    1       -4.386   2.528   1.183  0.00  0.00    +0.520 C 
ATOM      2  N   LIG    1       -3.360   2.563   0.310  0.00  0.00    -0.600 N 
ATOM      3  C   LIG    1       -3.002   3.809  -0.383  0.00  0.00    +0.300 C 
ATOM      4  C   LIG    1       -1.597   4.243   0.053  0.00  0.00    +0.130 C 
ATOM      5  C   LIG    1       -0.687   3.041   0.029  0.00  0.00    +0.020 A 
ATOM      6  C   LIG    1       -1.115   1.760   0.016  0.00  0.00    -0.070 A 
ATOM      7  N   LIG    1       -0.011   0.966   0.007  0.00  0.00    -0.560 N 
ATOM      8  H   LIG    1        0.002  -0.004   0.002  0.00  0.00    +0.420 HD
ATOM      9  C   LIG    1        1.065   1.786   0.002  0.00  0.00    +0.420 A 
ATOM     10  N   LIG    1        0.650   3.025   0.014  0.00  0.00    -0.480 NA
ATOM     11  C   LIG    1       -2.567   1.353   0.025  0.00  0.00    +0.370 C 
ATOM     12  O   LIG    1       -5.028   3.532   1.405  0.00  0.00    -0.540 OA
ENDROOT
BRANCH   1  13
ATOM     13  C   LIG    1       -4.737   1.240   1.882  0.00  0.00    +0.070 C 
BRANCH  13  23
ATOM     14  C   LIG    1       -6.460  -0.966   2.642  0.00  0.00    +0.050 C 
ATOM     15  C   LIG    1       -6.215   0.195   3.607  0.00  0.00    -0.080 C 
ATOM     16  C   LIG    1       -7.457   0.409   4.475  0.00  0.00    +0.260 C 
ATOM     17  N   LIG    1       -8.608   0.721   3.620  0.00  0.00    -0.510 N 
ATOM     18  C   LIG    1       -8.372   1.982   2.907  0.00  0.00    +0.260 C 
ATOM     19  C   LIG    1       -7.165   1.829   1.979  0.00  0.00    +0.070 C 
ATOM     20  H   LIG    1       -8.740  -0.023   2.951  0.00  0.00    +0.420 HD
ATOM     21  H   LIG    1       -9.436   0.808   4.190  0.00  0.00    +0.430 HD
ATOM     22  C   LIG    1       -5.016  -0.127   4.502  0.00  0.00    +0.070 C 
ATOM     23  C   LIG    1       -5.930   1.472   2.811  0.00  0.00    +0.030 C 
ENDBRANCH  13  23
ENDBRANCH   1  13
TORSDOF 2
