REMARK  Name = ZINCkj000005fopE.0
REMARK                            x       y       z     vdW  Elec       q    Type
REMARK                         _______ _______ _______ _____ _____    ______ ____
ROOT
ATOM      1  C   LIG    1       -1.136   6.442   1.186  0.00  0.00    +0.520 C 
ATOM      2  N   LIG    1       -0.754   5.494   0.307  0.00  0.00    -0.610 N 
ATOM      3  C   LIG    1        0.528   5.598  -0.404  0.00  0.00    +0.310 C 
ATOM      4  C   LIG    1        1.434   4.435   0.020  0.00  0.00    +0.110 C 
ATOM      5  C   LIG    1        0.625   3.164   0.014  0.00  0.00    -0.020 A 
ATOM      6  C   LIG    1       -0.724   3.107   0.024  0.00  0.00    -0.020 A 
ATOM      7  N   LIG    1       -1.086   1.823   0.017  0.00  0.00    -0.480 NA
ATOM      8  C   LIG    1       -0.013   1.076   0.008  0.00  0.00    +0.410 A 
ATOM      9  N   LIG    1        1.077   1.879   0.002  0.00  0.00    -0.560 N 
ATOM     10  H   LIG    1        2.003   1.593  -0.009  0.00  0.00    +0.420 HD
ATOM     11  C   LIG    1       -1.614   4.328   0.034  0.00  0.00    +0.390 C 
ATOM     12  O   LIG    1       -0.417   7.396   1.399  0.00  0.00    -0.540 OA
ENDROOT
BRANCH   1  13
ATOM     13  C   LIG    1       -2.454   6.316   1.904  0.00  0.00    +0.070 C 
BRANCH  13  23
ATOM     14  C   LIG    1       -5.113   7.154   2.703  0.00  0.00    +0.050 C 
ATOM     15  C   LIG    1       -3.927   7.332   3.652  0.00  0.00    -0.080 C 
ATOM     16  C   LIG    1       -4.151   8.569   4.524  0.00  0.00    +0.260 C 
ATOM     17  N   LIG    1       -4.276   9.757   3.671  0.00  0.00    -0.510 N 
ATOM     18  C   LIG    1       -3.023   9.980   2.940  0.00  0.00    +0.260 C 
ATOM     19  C   LIG    1       -2.755   8.797   2.007  0.00  0.00    +0.070 C 
ATOM     20  H   LIG    1       -5.028   9.620   3.013  0.00  0.00    +0.430 HD
ATOM     21  H   LIG    1       -4.477  10.562   4.245  0.00  0.00    +0.430 HD
ATOM     22  C   LIG    1       -3.794   6.096   4.544  0.00  0.00    +0.070 C 
ATOM     23  C   LIG    1       -2.643   7.515   2.837  0.00  0.00    +0.030 C 
ENDBRANCH  13  23
ENDBRANCH   1  13
TORSDOF 2
