REMARK  Name = ZINCtj0000000OHt.1
REMARK                            x       y       z     vdW  Elec       q    Type
REMARK                         _______ _______ _______ _____ _____    ______ ____
ROOT
ATOM      1  N   LIG    1       -2.897  -4.333   3.077  0.00  0.00    -0.650 N 
ATOM      2  H   LIG    1       -3.723  -4.294   2.570  0.00  0.00    +0.420 HD
ATOM      3  C   LIG    1       -1.989  -3.343   2.965  0.00  0.00    +0.510 C 
ATOM      4  O   LIG    1       -1.003  -3.340   3.673  0.00  0.00    -0.480 OA
ENDROOT
BRANCH   1  13
ATOM      5  N   LIG    1       -5.823  -7.836   5.117  0.00  0.00    -0.390 N 
ATOM      6  C   LIG    1       -6.113  -6.396   5.037  0.00  0.00    +0.270 C 
ATOM      7  C   LIG    1       -5.117  -5.751   4.072  0.00  0.00    +0.110 C 
ATOM      8  C   LIG    1       -3.712  -6.148   4.447  0.00  0.00    -0.120 A 
ATOM      9  C   LIG    1       -3.466  -7.214   5.284  0.00  0.00    -0.110 A 
ATOM     10  C   LIG    1       -2.158  -7.553   5.600  0.00  0.00    +0.030 A 
ATOM     11  C   LIG    1       -1.101  -6.830   5.083  0.00  0.00    +0.060 A 
ATOM     12  C   LIG    1       -1.343  -5.762   4.241  0.00  0.00    +0.050 A 
ATOM     13  C   LIG    1       -2.649  -5.416   3.925  0.00  0.00    +0.160 A 
ATOM     14  C   LIG    1       -4.584  -8.031   5.875  0.00  0.00    +0.330 C 
ATOM     15  H   LIG    1       -5.712  -8.210   4.186  0.00  0.00    +0.430 HD
BRANCH   5  17
ATOM     16  C   LIG    1       -6.679 -10.032   5.779  0.00  0.00    +0.080 C 
ATOM     17  C   LIG    1       -6.929  -8.523   5.796  0.00  0.00    +0.250 C 
ENDBRANCH   5  17
ENDBRANCH   1  13
BRANCH   3  18
ATOM     18  C   LIG    1       -2.197  -2.250   1.969  0.00  0.00    +0.520 C 
ATOM     19  N   LIG    1       -1.289  -1.260   1.856  0.00  0.00    -0.680 N 
ATOM     20  H   LIG    1       -0.501  -1.258   2.422  0.00  0.00    +0.430 HD
ATOM     21  O   LIG    1       -3.182  -2.252   1.261  0.00  0.00    -0.510 OA
BRANCH  19  22
ATOM     22  C   LIG    1       -1.492  -0.187   0.879  0.00  0.00    +0.350 C 
ATOM     23  C   LIG    1       -0.960  -0.632  -0.484  0.00  0.00    +0.080 C 
BRANCH  22  24
ATOM     24  C   LIG    1       -0.754   1.048   1.329  0.00  0.00    +0.120 A 
ATOM     25  N   LIG    1        0.467   1.094   1.792  0.00  0.00    -0.210 NA
ATOM     26  N   LIG    1        0.789   2.305   2.083  0.00  0.00    -0.250 NA
ATOM     27  C   LIG    1       -0.226   3.111   1.816  0.00  0.00    +0.360 A 
ATOM     28  N   LIG    1       -0.402   4.433   1.937  0.00  0.00    -0.430 NA
ATOM     29  C   LIG    1       -1.536   4.995   1.592  0.00  0.00    +0.400 A 
ATOM     30  C   LIG    1       -2.590   4.218   1.089  0.00  0.00    -0.010 A 
ATOM     31  C   LIG    1       -2.428   2.878   0.965  0.00  0.00    +0.300 A 
ATOM     32  N   LIG    1       -1.238   2.320   1.327  0.00  0.00    -0.420 N 
ENDBRANCH  22  24
ENDBRANCH  19  22
ENDBRANCH   3  18
TORSDOF 5
