REMARK  Name = ZINCtj0000000OHt.0
REMARK                            x       y       z     vdW  Elec       q    Type
REMARK                         _______ _______ _______ _____ _____    ______ ____
ROOT
ATOM      1  N   LIG    1        5.860  -2.565   3.003  0.00  0.00    -0.650 N 
ATOM      2  H   LIG    1        5.077  -3.129   3.100  0.00  0.00    +0.420 HD
ATOM      3  C   LIG    1        5.894  -1.619   2.043  0.00  0.00    +0.510 C 
ATOM      4  O   LIG    1        6.838  -0.859   1.973  0.00  0.00    -0.480 OA
ENDROOT
BRANCH   1  13
ATOM      5  N   LIG    1        7.670  -6.478   5.533  0.00  0.00    -0.390 N 
ATOM      6  C   LIG    1        7.206  -6.479   4.137  0.00  0.00    +0.270 C 
ATOM      7  C   LIG    1        6.451  -5.176   3.873  0.00  0.00    +0.110 C 
ATOM      8  C   LIG    1        7.289  -4.003   4.316  0.00  0.00    -0.110 A 
ATOM      9  C   LIG    1        8.370  -4.167   5.152  0.00  0.00    -0.110 A 
ATOM     10  C   LIG    1        9.109  -3.061   5.548  0.00  0.00    +0.040 A 
ATOM     11  C   LIG    1        8.773  -1.798   5.102  0.00  0.00    +0.060 A 
ATOM     12  C   LIG    1        7.695  -1.629   4.255  0.00  0.00    +0.050 A 
ATOM     13  C   LIG    1        6.952  -2.731   3.858  0.00  0.00    +0.160 A 
ATOM     14  C   LIG    1        8.781  -5.525   5.659  0.00  0.00    +0.330 C 
ATOM     15  H   LIG    1        6.912  -6.206   6.141  0.00  0.00    +0.430 HD
BRANCH   5  17
ATOM     16  C   LIG    1        8.499  -7.851   7.383  0.00  0.00    +0.080 C 
ATOM     17  C   LIG    1        8.134  -7.824   5.898  0.00  0.00    +0.250 C 
ENDBRANCH   5  17
ENDBRANCH   1  13
BRANCH   3  18
ATOM     18  C   LIG    1        4.771  -1.508   1.065  0.00  0.00    +0.520 C 
ATOM     19  N   LIG    1        4.805  -0.563   0.104  0.00  0.00    -0.680 N 
ATOM     20  H   LIG    1        5.559   0.045   0.048  0.00  0.00    +0.430 HD
ATOM     21  O   LIG    1        3.827  -2.268   1.135  0.00  0.00    -0.510 OA
BRANCH  19  22
ATOM     22  C   LIG    1        3.704  -0.453  -0.855  0.00  0.00    +0.350 C 
ATOM     23  C   LIG    1        3.935  -1.428  -2.011  0.00  0.00    +0.080 C 
BRANCH  22  24
ATOM     24  C   LIG    1        3.641   0.955  -1.390  0.00  0.00    +0.120 A 
ATOM     25  N   LIG    1        4.655   1.675  -1.792  0.00  0.00    -0.220 NA
ATOM     26  N   LIG    1        4.252   2.831  -2.188  0.00  0.00    -0.250 NA
ATOM     27  C   LIG    1        2.938   2.912  -2.056  0.00  0.00    +0.360 A 
ATOM     28  N   LIG    1        2.051   3.880  -2.319  0.00  0.00    -0.430 NA
ATOM     29  C   LIG    1        0.771   3.699  -2.091  0.00  0.00    +0.400 A 
ATOM     30  C   LIG    1        0.307   2.481  -1.571  0.00  0.00    -0.010 A 
ATOM     31  C   LIG    1        1.196   1.495  -1.295  0.00  0.00    +0.300 A 
ATOM     32  N   LIG    1        2.519   1.710  -1.542  0.00  0.00    -0.420 N 
ENDBRANCH  22  24
ENDBRANCH  19  22
ENDBRANCH   3  18
TORSDOF 5
