REMARK  Name = ZINCrH00000aoHwI.0
REMARK                            x       y       z     vdW  Elec       q    Type
REMARK                         _______ _______ _______ _____ _____    ______ ____
ROOT
ATOM      1  N   LIG    1       -3.630   5.851   0.271  0.00  0.00    -0.730 N 
ATOM      2  H   LIG    1       -4.466   5.359   0.277  0.00  0.00    +0.400 HD
ATOM      3  C   LIG    1       -2.461   5.192   0.155  0.00  0.00    +0.710 C 
ATOM      4  N   LIG    1       -2.452   3.849   0.046  0.00  0.00    -0.680 N 
ATOM      5  H   LIG    1       -3.289   3.361  -0.014  0.00  0.00    +0.400 HD
ATOM      6  O   LIG    1       -1.413   5.809   0.147  0.00  0.00    -0.560 OA
ENDROOT
BRANCH   1  11
ATOM      7  C   LIG    1       -5.793   9.796  -1.216  0.00  0.00    +0.080 C 
ATOM      8  C   LIG    1       -4.578  10.134  -0.350  0.00  0.00    -0.420 C 
ATOM      9  C   LIG    1       -3.338   9.436  -0.912  0.00  0.00    +0.080 C 
ATOM     10  C   LIG    1       -3.582   7.933  -1.003  0.00  0.00    +0.010 C 
ATOM     11  C   LIG    1       -3.639   7.311   0.389  0.00  0.00    +0.290 C 
ATOM     12  C   LIG    1       -4.916   7.755   1.107  0.00  0.00    -0.350 C 
ATOM     13  S   LIG    1       -4.864   9.555   1.349  0.00  0.00    +2.420 S 
ATOM     14  O   LIG    1       -3.724   9.876   2.135  0.00  0.00    -0.930 OA
ATOM     15  O   LIG    1       -6.147   9.995   1.769  0.00  0.00    -0.930 OA
ENDBRANCH   1  11
BRANCH   4  16
ATOM     16  C   LIG    1       -1.238   3.157   0.020  0.00  0.00    +0.190 A 
ATOM     17  C   LIG    1       -0.129   3.720  -0.593  0.00  0.00    +0.030 A 
ATOM     18  C   LIG    1        1.071   3.036  -0.618  0.00  0.00    +0.040 A 
ATOM     19  C   LIG    1        1.174   1.786  -0.033  0.00  0.00    +0.000 A 
ATOM     20  C   LIG    1        0.078   1.212   0.580  0.00  0.00    +0.050 A 
ATOM     21  C   LIG    1       -1.138   1.890   0.606  0.00  0.00    -0.090 A 
BRANCH  21  22
ATOM     22  C   LIG    1       -2.319   1.275   1.258  0.00  0.00    -0.120 A 
ATOM     23  C   LIG    1       -3.191   0.475   0.518  0.00  0.00    +0.140 A 
ATOM     24  C   LIG    1       -4.287  -0.100   1.133  0.00  0.00    -0.010 A 
ATOM     25  C   LIG    1       -4.528   0.126   2.475  0.00  0.00    +0.090 A 
ATOM     26  C   LIG    1       -3.672   0.923   3.214  0.00  0.00    -0.020 A 
ATOM     27  F   LIG    1       -2.960   0.258  -0.796  0.00  0.00    -0.120 F 
ATOM     28  C   LIG    1       -2.568   1.499   2.613  0.00  0.00    +0.150 A 
ATOM     29  F   LIG    1       -1.733   2.276   3.335  0.00  0.00    -0.120 F 
ENDBRANCH  21  22
ENDBRANCH   4  16
TORSDOF 3
