REMARK  Name = ZINCvU0000000F04.0
REMARK                            x       y       z     vdW  Elec       q    Type
REMARK                         _______ _______ _______ _____ _____    ______ ____
ROOT
ATOM      1  N   LIG    1        0.053  -4.758  -1.405  0.00  0.00    -0.600 N 
ATOM      2  C   LIG    1       -1.117  -4.995  -2.031  0.00  0.00    +0.550 C 
ATOM      3  O   LIG    1       -2.167  -4.810  -1.446  0.00  0.00    -0.530 OA
ENDROOT
BRANCH   1   5
ATOM      4  C   LIG    1        1.782  -6.421  -1.881  0.00  0.00    +0.020 C 
ATOM      5  C   LIG    1        1.319  -4.981  -2.109  0.00  0.00    +0.260 C 
ENDBRANCH   1   5
BRANCH   2   6
ATOM      6  C   LIG    1       -1.123  -5.477  -3.417  0.00  0.00    -0.020 C 
ATOM      7  C   LIG    1       -2.294  -5.714  -4.043  0.00  0.00    +0.190 C 
BRANCH   7   8
ATOM      8  C   LIG    1       -2.301  -6.196  -5.429  0.00  0.00    +0.260 A 
ATOM      9  N   LIG    1       -3.377  -6.457  -6.130  0.00  0.00    -0.450 NA
ATOM     10  C   LIG    1       -3.010  -6.878  -7.357  0.00  0.00    +0.020 A 
ATOM     11  C   LIG    1       -3.720  -7.284  -8.492  0.00  0.00    +0.080 A 
ATOM     12  C   LIG    1       -3.044  -7.663  -9.616  0.00  0.00    +0.020 A 
ATOM     13  C   LIG    1       -1.656  -7.650  -9.646  0.00  0.00    +0.050 A 
ATOM     14  C   LIG    1       -0.936  -7.253  -8.538  0.00  0.00    +0.050 A 
ATOM     15  C   LIG    1       -1.603  -6.864  -7.386  0.00  0.00    +0.010 A 
ATOM     16  O   LIG    1       -1.200  -6.429  -6.173  0.00  0.00    -0.210 OA
ENDBRANCH   7   8
ENDBRANCH   2   6
BRANCH   1  17
ATOM     17  C   LIG    1        0.060  -4.277  -0.021  0.00  0.00    +0.350 C 
BRANCH  17  18
ATOM     18  C   LIG    1        0.040  -2.770  -0.013  0.00  0.00    -0.150 A 
ATOM     19  C   LIG    1       -1.168  -2.096   0.002  0.00  0.00    +0.090 A 
ATOM     20  C   LIG    1       -1.189  -0.715   0.010  0.00  0.00    -0.020 A 
ATOM     21  C   LIG    1        0.002  -0.004   0.002  0.00  0.00    +0.140 A 
ATOM     22  C   LIG    1        1.212  -0.682  -0.019  0.00  0.00    -0.080 A 
ATOM     23  C   LIG    1        1.228  -2.064  -0.021  0.00  0.00    +0.060 A 
BRANCH  21  24
ATOM     24  O   LIG    1       -0.016   1.355   0.009  0.00  0.00    -0.310 OA
BRANCH  24  25
ATOM     25  C   LIG    1        1.248   2.021   0.001  0.00  0.00    +0.240 C 
BRANCH  25  26
ATOM     26  C   LIG    1        1.030   3.512   0.011  0.00  0.00    -0.100 A 
ATOM     27  C   LIG    1        0.925   4.203  -1.181  0.00  0.00    +0.020 A 
ATOM     28  C   LIG    1        0.720   5.570  -1.172  0.00  0.00    +0.010 A 
ATOM     29  C   LIG    1        0.631   6.248   0.030  0.00  0.00    +0.020 A 
ATOM     30  C   LIG    1        0.743   5.557   1.222  0.00  0.00    +0.010 A 
ATOM     31  C   LIG    1        0.942   4.189   1.213  0.00  0.00    +0.020 A 
ENDBRANCH  25  26
ENDBRANCH  24  25
ENDBRANCH  21  24
ENDBRANCH  17  18
ENDBRANCH   1  17
TORSDOF 8
