REMARK  Name = ZINCpk000000mYO5.0
REMARK                            x       y       z     vdW  Elec       q    Type
REMARK                         _______ _______ _______ _____ _____    ______ ____
ROOT
ATOM      1  N   LIG    1        1.169   2.194   0.015  0.00  0.00    -0.670 N 
ATOM      2  H   LIG    1        2.017   1.728   0.084  0.00  0.00    +0.410 HD
ATOM      3  C   LIG    1        0.015   1.498   0.017  0.00  0.00    +0.510 C 
ATOM      4  O   LIG    1       -1.047   2.083   0.010  0.00  0.00    -0.500 OA
ENDROOT
BRANCH   1   8
ATOM      5  C   LIG    1        1.095   6.352  -0.285  0.00  0.00    +0.130 A 
ATOM      6  C   LIG    1        0.095   5.689   0.414  0.00  0.00    +0.000 A 
ATOM      7  C   LIG    1        0.120   4.312   0.513  0.00  0.00    +0.040 A 
ATOM      8  C   LIG    1        1.144   3.591  -0.086  0.00  0.00    +0.130 A 
ATOM      9  C   LIG    1        2.147   4.255  -0.781  0.00  0.00    +0.000 A 
ATOM     10  C   LIG    1        2.119   5.631  -0.884  0.00  0.00    +0.040 A 
BRANCH   5  13
ATOM     11  C   LIG    1        1.377   9.846  -1.661  0.00  0.00    +0.110 C 
ATOM     12  C   LIG    1        1.500   8.351  -1.512  0.00  0.00    +0.510 C 
ATOM     13  N   LIG    1        1.070   7.749  -0.385  0.00  0.00    -0.670 N 
ATOM     14  H   LIG    1        0.745   8.283   0.356  0.00  0.00    +0.410 HD
ATOM     15  O   LIG    1        1.985   7.691  -2.406  0.00  0.00    -0.530 OA
ENDBRANCH   5  13
ENDBRANCH   1   8
BRANCH   3  16
ATOM     16  C   LIG    1        0.044  -0.009   0.020  0.00  0.00    +0.220 C 
BRANCH  16  17
ATOM     17  N   LIG    1       -1.331  -0.526   0.022  0.00  0.00    -0.480 NA
ATOM     18  C   LIG    1       -1.995  -0.270  -1.277  0.00  0.00    +0.290 C 
ATOM     19  C   LIG    1       -2.917  -1.447  -1.502  0.00  0.00    +0.180 A 
ATOM     20  C   LIG    1       -2.533  -2.460  -0.675  0.00  0.00    -0.290 A 
ATOM     21  C   LIG    1       -3.249  -3.671  -0.706  0.00  0.00    +0.540 A 
ATOM     22  N   LIG    1       -4.293  -3.781  -1.557  0.00  0.00    -0.630 N 
ATOM     23  H   LIG    1       -4.802  -4.606  -1.597  0.00  0.00    +0.420 HD
ATOM     24  C   LIG    1       -4.624  -2.743  -2.349  0.00  0.00    +0.410 A 
ATOM     25  C   LIG    1       -5.791  -2.882  -3.293  0.00  0.00    +0.190 C 
ATOM     26  O   LIG    1       -2.934  -4.600   0.019  0.00  0.00    -0.530 OA
ATOM     27  N   LIG    1       -3.958  -1.619  -2.320  0.00  0.00    -0.520 NA
ATOM     28  C   LIG    1       -1.343  -2.003   0.133  0.00  0.00    +0.280 C 
ENDBRANCH  16  17
ENDBRANCH   3  16
TORSDOF 4
