REMARK  Name = ZINCpk00000y6wai.1
REMARK                            x       y       z     vdW  Elec       q    Type
REMARK                         _______ _______ _______ _____ _____    ______ ____
ROOT
ATOM      1  C   LIG    1       -0.018   1.473   0.010  0.00  0.00    +0.610 C 
ATOM      2  N   LIG    1       -1.201   2.076  -0.221  0.00  0.00    -0.610 N 
ATOM      3  C   LIG    1       -2.465   1.331  -0.116  0.00  0.00    +0.270 C 
ATOM      4  C   LIG    1       -3.278   1.576  -1.391  0.00  0.00    +0.220 C 
ATOM      5  O   LIG    1       -3.388   2.984  -1.616  0.00  0.00    -0.360 OA
ATOM      6  C   LIG    1       -2.138   3.640  -1.837  0.00  0.00    +0.210 C 
ATOM      7  C   LIG    1       -1.266   3.502  -0.579  0.00  0.00    +0.290 C 
ATOM      8  O   LIG    1        0.026   0.271   0.191  0.00  0.00    -0.530 OA
ENDROOT
BRANCH   1  11
ATOM      9  C   LIG    1        3.345   2.864   0.150  0.00  0.00    +0.030 A 
ATOM     10  C   LIG    1        2.544   1.772   0.149  0.00  0.00    -0.010 A 
ATOM     11  C   LIG    1        1.224   2.272   0.050  0.00  0.00    -0.010 A 
ATOM     12  N   LIG    1        1.313   3.586  -0.007  0.00  0.00    -0.260 NA
ATOM     13  N   LIG    1        2.544   3.947   0.057  0.00  0.00    -0.380 N 
ATOM     14  H   LIG    1        2.854   4.866   0.036  0.00  0.00    +0.440 HD
BRANCH   9  15
ATOM     15  C   LIG    1        4.849   2.868   0.240  0.00  0.00    +0.120 C 
BRANCH  15  17
ATOM     16  C   LIG    1        6.971   2.688  -1.067  0.00  0.00    +0.030 C 
ATOM     17  C   LIG    1        5.444   2.683  -1.158  0.00  0.00    +0.010 C 
ENDBRANCH  15  17
ENDBRANCH   9  15
ENDBRANCH   1  11
BRANCH   6  18
ATOM     18  C   LIG    1       -2.380   5.100  -2.123  0.00  0.00    +0.230 A 
ATOM     19  C   LIG    1       -2.061   5.634  -3.362  0.00  0.00    -0.140 A 
ATOM     20  C   LIG    1       -2.304   6.981  -3.586  0.00  0.00    +0.370 A 
ATOM     21  N   LIG    1       -2.820   7.713  -2.613  0.00  0.00    -0.570 NA
ATOM     22  C   LIG    1       -3.109   7.173  -1.438  0.00  0.00    +0.560 A 
ATOM     23  N   LIG    1       -2.893   5.888  -1.194  0.00  0.00    -0.540 NA
BRANCH  22  24
ATOM     24  N   LIG    1       -3.648   7.969  -0.442  0.00  0.00    -0.590 N 
ATOM     25  C   LIG    1       -3.893   9.391  -0.694  0.00  0.00    +0.300 C 
ATOM     26  C   LIG    1       -3.973   7.389   0.864  0.00  0.00    +0.300 C 
ENDBRANCH  22  24
ENDBRANCH   6  18
TORSDOF 5
