REMARK  Name = ZINCpk00000y6wai.0
REMARK                            x       y       z     vdW  Elec       q    Type
REMARK                         _______ _______ _______ _____ _____    ______ ____
ROOT
ATOM      1  C   LIG    1       -1.157   3.285  -4.416  0.00  0.00    +0.600 C 
ATOM      2  N   LIG    1       -2.236   3.338  -5.222  0.00  0.00    -0.610 N 
ATOM      3  C   LIG    1       -3.524   2.762  -4.802  0.00  0.00    +0.230 C 
ATOM      4  C   LIG    1       -4.033   1.849  -5.923  0.00  0.00    +0.230 C 
ATOM      5  O   LIG    1       -4.033   2.572  -7.156  0.00  0.00    -0.360 OA
ATOM      6  C   LIG    1       -2.738   3.002  -7.583  0.00  0.00    +0.220 C 
ATOM      7  C   LIG    1       -2.164   3.979  -6.544  0.00  0.00    +0.290 C 
ATOM      8  O   LIG    1       -0.104   3.776  -4.777  0.00  0.00    -0.510 OA
ENDROOT
BRANCH   1  13
ATOM      9  C   LIG    1       -0.810   1.566  -1.215  0.00  0.00    +0.040 A 
ATOM     10  N   LIG    1       -2.080   1.883  -1.244  0.00  0.00    -0.270 NA
ATOM     11  N   LIG    1       -2.373   2.506  -2.328  0.00  0.00    -0.380 N 
ATOM     12  H   LIG    1       -3.254   2.836  -2.563  0.00  0.00    +0.450 HD
ATOM     13  C   LIG    1       -1.253   2.635  -3.100  0.00  0.00    -0.040 A 
ATOM     14  C   LIG    1       -0.225   2.036  -2.392  0.00  0.00    +0.020 A 
BRANCH   9  15
ATOM     15  C   LIG    1       -0.105   0.831  -0.104  0.00  0.00    +0.120 C 
BRANCH  15  17
ATOM     16  C   LIG    1        0.384   0.819   2.346  0.00  0.00    +0.030 C 
ATOM     17  C   LIG    1       -0.333   1.565   1.219  0.00  0.00    +0.010 C 
ENDBRANCH  15  17
ENDBRANCH   9  15
ENDBRANCH   1  13
BRANCH   6  18
ATOM     18  C   LIG    1       -2.851   3.695  -8.916  0.00  0.00    +0.220 A 
ATOM     19  C   LIG    1       -2.252   3.152 -10.042  0.00  0.00    -0.120 A 
ATOM     20  C   LIG    1       -2.385   3.819 -11.250  0.00  0.00    +0.370 A 
ATOM     21  N   LIG    1       -3.067   4.951 -11.290  0.00  0.00    -0.560 NA
ATOM     22  C   LIG    1       -3.624   5.446 -10.194  0.00  0.00    +0.560 A 
ATOM     23  N   LIG    1       -3.520   4.832  -9.025  0.00  0.00    -0.550 NA
BRANCH  22  24
ATOM     24  N   LIG    1       -4.330   6.634 -10.273  0.00  0.00    -0.590 N 
ATOM     25  C   LIG    1       -4.456   7.328 -11.556  0.00  0.00    +0.300 C 
ATOM     26  C   LIG    1       -4.952   7.197  -9.071  0.00  0.00    +0.310 C 
ENDBRANCH  22  24
ENDBRANCH   6  18
TORSDOF 5
