REMARK  Name = ZINCpk000000pJsX.0
REMARK                            x       y       z     vdW  Elec       q    Type
REMARK                         _______ _______ _______ _____ _____    ______ ____
ROOT
ATOM      1  C   LIG    1       -4.210  -3.905   0.579  0.00  0.00    +0.180 C 
ATOM      2  N   LIG    1       -4.085  -3.841  -0.887  0.00  0.00    -0.710 N 
ATOM      3  H   LIG    1       -4.732  -4.155  -1.538  0.00  0.00    +0.440 HD
ATOM      4  C   LIG    1       -2.898  -3.264  -1.147  0.00  0.00    +0.710 C 
ATOM      5  N   LIG    1       -2.232  -2.942  -0.033  0.00  0.00    -0.560 N 
ATOM      6  O   LIG    1       -2.478  -3.058  -2.269  0.00  0.00    -0.540 OA
ATOM      7  C   LIG    1       -2.920  -3.283   1.074  0.00  0.00    +0.540 C 
ATOM      8  O   LIG    1       -2.578  -3.125   2.227  0.00  0.00    -0.450 OA
ENDROOT
BRANCH   1   9
ATOM      9  C   LIG    1       -4.321  -5.335   1.041  0.00  0.00    -0.140 A 
ATOM     10  C   LIG    1       -5.016  -5.635   2.197  0.00  0.00    +0.080 A 
ATOM     11  C   LIG    1       -5.123  -6.946   2.620  0.00  0.00    -0.080 A 
ATOM     12  C   LIG    1       -4.523  -7.960   1.889  0.00  0.00    +0.140 A 
ATOM     13  C   LIG    1       -3.821  -7.656   0.731  0.00  0.00    -0.010 A 
ATOM     14  C   LIG    1       -3.721  -6.344   0.310  0.00  0.00    +0.070 A 
BRANCH  12  15
ATOM     15  O   LIG    1       -4.621  -9.250   2.305  0.00  0.00    -0.310 OA
ATOM     16  C   LIG    1       -5.359  -9.490   3.505  0.00  0.00    +0.240 C 
ENDBRANCH  12  15
ENDBRANCH   1   9
BRANCH   1  18
ATOM     17  C   LIG    1       -5.318  -1.666   0.510  0.00  0.00    +0.030 C 
ATOM     18  C   LIG    1       -5.419  -3.094   1.052  0.00  0.00    +0.060 C 
ENDBRANCH   1  18
BRANCH   5  19
ATOM     19  C   LIG    1       -0.914  -2.302  -0.018  0.00  0.00    +0.360 C 
BRANCH  19  20
ATOM     20  C   LIG    1       -1.082  -0.804  -0.011  0.00  0.00    +0.520 C 
ATOM     21  N   LIG    1        0.002  -0.004   0.002  0.00  0.00    -0.620 N 
ATOM     22  C   LIG    1       -0.018   1.466   0.010  0.00  0.00    +0.250 C 
ATOM     23  C   LIG    1        1.449   1.944  -0.001  0.00  0.00    +0.040 C 
ATOM     24  C   LIG    1        2.208   0.724  -0.586  0.00  0.00    +0.040 C 
ATOM     25  C   LIG    1        1.405  -0.458   0.012  0.00  0.00    +0.250 C 
ATOM     26  O   LIG    1       -2.194  -0.319  -0.018  0.00  0.00    -0.520 OA
ENDBRANCH  19  20
ENDBRANCH   5  19
TORSDOF 5
