REMARK  Name = ZINCrD0000072xXn.0
REMARK                            x       y       z     vdW  Elec       q    Type
REMARK                         _______ _______ _______ _____ _____    ______ ____
ROOT
ATOM      1  C   LIG    1       -0.014   1.209   0.009  0.00  0.00    +0.490 C 
ATOM      2  N   LIG    1        1.142   1.892   0.126  0.00  0.00    -0.550 N 
ATOM      3  C   LIG    1        2.408   1.183   0.355  0.00  0.00    +0.280 C 
ATOM      4  C   LIG    1        3.175   1.936   1.450  0.00  0.00    +0.030 C 
ATOM      5  C   LIG    1        3.508   3.339   0.943  0.00  0.00    +0.090 C 
ATOM      6  C   LIG    1        2.271   4.017   0.415  0.00  0.00    -0.120 A 
ATOM      7  C   LIG    1        2.256   5.398   0.314  0.00  0.00    +0.090 A 
ATOM      8  C   LIG    1        1.137   6.049  -0.169  0.00  0.00    -0.200 A 
ATOM      9  C   LIG    1        0.025   5.324  -0.556  0.00  0.00    +0.090 A 
ATOM     10  C   LIG    1        0.032   3.947  -0.457  0.00  0.00    +0.030 A 
ATOM     11  C   LIG    1        1.157   3.290   0.025  0.00  0.00    +0.190 A 
ATOM     12  O   LIG    1       -1.067   1.806  -0.070  0.00  0.00    -0.490 OA
ENDROOT
BRANCH   8  13
ATOM     13  C   LIG    1        1.129   7.552  -0.275  0.00  0.00    +0.510 C 
ATOM     14  F   LIG    1        1.950   8.094   0.719  0.00  0.00    -0.180 F 
ATOM     15  F   LIG    1       -0.178   8.024  -0.110  0.00  0.00    -0.180 F 
ATOM     16  F   LIG    1        1.606   7.933  -1.534  0.00  0.00    -0.180 F 
ENDBRANCH   8  13
BRANCH   1  17
ATOM     17  C   LIG    1        0.000  -0.298  -0.018  0.00  0.00    +0.360 C 
BRANCH  17  19
ATOM     18  C   LIG    1       -2.014  -0.920  -1.430  0.00  0.00    +0.320 C 
ATOM     19  N   LIG    1       -1.373  -0.798  -0.118  0.00  0.00    -0.980 NA
BRANCH  19  20
ATOM     20  S   LIG    1       -2.201  -1.224   1.251  0.00  0.00    +2.720 S 
ATOM     21  O   LIG    1       -1.221  -1.530   2.233  0.00  0.00    -0.950 OA
ATOM     22  O   LIG    1       -3.205  -2.143   0.843  0.00  0.00    -0.940 OA
BRANCH  20  23
ATOM     23  C   LIG    1       -3.044   0.214   1.820  0.00  0.00    -0.790 A 
ATOM     24  C   LIG    1       -4.278   0.575   1.462  0.00  0.00    +0.160 A 
ATOM     25  C   LIG    1       -4.733   1.747   2.040  0.00  0.00    -0.010 A 
ATOM     26  C   LIG    1       -3.870   2.339   2.867  0.00  0.00    +0.000 A 
ATOM     27  S   LIG    1       -2.391   1.390   2.953  0.00  0.00    +0.220 S 
ENDBRANCH  20  23
ENDBRANCH  19  20
ENDBRANCH  17  19
ENDBRANCH   1  17
TORSDOF 5
