REMARK  Name = ZINCrg00000ykskK.0
REMARK                            x       y       z     vdW  Elec       q    Type
REMARK                         _______ _______ _______ _____ _____    ______ ____
ROOT
ATOM      1  N   LIG    1        2.679   0.594   4.653  0.00  0.00    -0.460 N 
ATOM      2  C   LIG    1        2.611   1.918   5.286  0.00  0.00    +0.200 C 
ATOM      3  C   LIG    1        2.464   1.750   6.802  0.00  0.00    +0.320 C 
ATOM      4  N   LIG    1        3.551   0.885   7.284  0.00  0.00    -1.000 NA
ATOM      5  C   LIG    1        3.769  -0.402   6.606  0.00  0.00    +0.320 C 
ATOM      6  C   LIG    1        3.865  -0.149   5.098  0.00  0.00    +0.200 C 
ENDROOT
BRANCH   1  10
ATOM      7  C   LIG    1        2.096   0.522   1.173  0.00  0.00    +0.150 A 
ATOM      8  N   LIG    1        3.177   1.242   1.284  0.00  0.00    -0.270 NA
ATOM      9  N   LIG    1        3.508   1.351   2.522  0.00  0.00    -0.300 NA
ATOM     10  C   LIG    1        2.649   0.702   3.272  0.00  0.00    +0.340 A 
ATOM     11  N   LIG    1        1.719   0.157   2.436  0.00  0.00    -0.450 N 
ATOM     12  C   LIG    1        0.557  -0.653   2.812  0.00  0.00    +0.350 C 
BRANCH   7  13
ATOM     13  C   LIG    1        1.391   0.163  -0.109  0.00  0.00    +0.220 C 
ATOM     14  C   LIG    1        0.005   0.811  -0.127  0.00  0.00    +0.080 C 
BRANCH  13  16
ATOM     15  C   LIG    1        1.431   0.418  -2.594  0.00  0.00    +0.030 C 
ATOM     16  C   LIG    1        2.206   0.671  -1.300  0.00  0.00    +0.020 C 
ENDBRANCH  13  16
BRANCH  13  17
ATOM     17  O   LIG    1        1.254  -1.256  -0.197  0.00  0.00    -0.550 OA
ATOM     18  H   LIG    1        2.095  -1.734  -0.191  0.00  0.00    +0.380 HD
ENDBRANCH  13  17
ENDBRANCH   7  13
ENDBRANCH   1  10
BRANCH   4  19
ATOM     19  S   LIG    1        4.506   1.348   8.555  0.00  0.00    +2.700 S 
ATOM     20  O   LIG    1        5.038   0.155   9.113  0.00  0.00    -0.950 OA
ATOM     21  O   LIG    1        3.746   2.285   9.306  0.00  0.00    -0.950 OA
BRANCH  19  22
ATOM     22  C   LIG    1        5.872   2.237   7.886  0.00  0.00    -0.700 A 
ATOM     23  C   LIG    1        7.028   1.566   7.536  0.00  0.00    +0.160 A 
ATOM     24  C   LIG    1        8.098   2.261   7.006  0.00  0.00    -0.020 A 
ATOM     25  C   LIG    1        8.016   3.633   6.836  0.00  0.00    +0.160 A 
ATOM     26  C   LIG    1        6.859   4.305   7.191  0.00  0.00    -0.020 A 
ATOM     27  F   LIG    1        9.063   4.315   6.322  0.00  0.00    -0.130 F 
ATOM     28  C   LIG    1        5.788   3.607   7.716  0.00  0.00    +0.160 A 
ENDBRANCH  19  22
ENDBRANCH   4  19
TORSDOF 6
