REMARK  Name = ZINCrD0000075GWQ.0
REMARK                            x       y       z     vdW  Elec       q    Type
REMARK                         _______ _______ _______ _____ _____    ______ ____
ROOT
ATOM      1  O   LIG    1        1.591   4.771   2.675  0.00  0.00    -0.530 OA
ATOM      2  C   LIG    1        2.630   4.346   2.208  0.00  0.00    +0.560 C 
ATOM      3  N   LIG    1        2.727   4.108   0.885  0.00  0.00    -0.720 N 
ATOM      4  H   LIG    1        3.557   3.769   0.513  0.00  0.00    +0.400 HD
ENDROOT
BRANCH   2   5
ATOM      5  C   LIG    1        3.785   4.091   3.090  0.00  0.00    -0.140 A 
ATOM      6  C   LIG    1        4.979   3.597   2.556  0.00  0.00    +0.050 A 
ATOM      7  C   LIG    1        6.056   3.366   3.381  0.00  0.00    +0.040 A 
ATOM      8  C   LIG    1        5.954   3.613   4.747  0.00  0.00    +0.110 A 
ATOM      9  C   LIG    1        4.764   4.099   5.283  0.00  0.00    -0.030 A 
ATOM     10  C   LIG    1        3.686   4.338   4.463  0.00  0.00    +0.090 A 
BRANCH   8  11
ATOM     11  N   LIG    1        7.042   3.372   5.579  0.00  0.00    -0.480 N 
ATOM     12  C   LIG    1        6.707   2.372   6.615  0.00  0.00    +0.190 C 
ATOM     13  C   LIG    1        7.481   2.763   7.888  0.00  0.00    -0.010 C 
ATOM     14  C   LIG    1        8.243   4.055   7.516  0.00  0.00    +0.180 C 
ATOM     15  C   LIG    1        7.432   4.602   6.314  0.00  0.00    +0.200 C 
BRANCH  14  16
ATOM     16  O   LIG    1        8.230   4.981   8.604  0.00  0.00    -0.560 OA
ATOM     17  H   LIG    1        8.660   4.653   9.405  0.00  0.00    +0.380 HD
ENDBRANCH  14  16
ENDBRANCH   8  11
ENDBRANCH   2   5
BRANCH   3  18
ATOM     18  C   LIG    1        1.581   4.361   0.009  0.00  0.00    +0.410 C 
BRANCH  18  19
ATOM     19  C   LIG    1        2.068   4.620  -1.393  0.00  0.00    -0.100 A 
ATOM     20  C   LIG    1        3.113   3.877  -1.910  0.00  0.00    +0.010 A 
ATOM     21  C   LIG    1        3.557   4.111  -3.198  0.00  0.00    +0.010 A 
ATOM     22  C   LIG    1        2.961   5.094  -3.966  0.00  0.00    +0.020 A 
ATOM     23  C   LIG    1        1.919   5.840  -3.448  0.00  0.00    +0.010 A 
ATOM     24  C   LIG    1        1.472   5.603  -2.161  0.00  0.00    +0.030 A 
ENDBRANCH  18  19
BRANCH  18  25
ATOM     25  C   LIG    1        0.671   3.160   0.012  0.00  0.00    -0.020 A 
ATOM     26  C   LIG    1       -0.673   3.191   0.025  0.00  0.00    -0.040 A 
ATOM     27  C   LIG    1       -1.114   1.848   0.017  0.00  0.00    -0.060 A 
ATOM     28  C   LIG    1       -0.013   1.076   0.008  0.00  0.00    +0.160 A 
ATOM     29  O   LIG    1        1.066   1.876   0.002  0.00  0.00    -0.170 OA
ENDBRANCH  18  25
ENDBRANCH   3  18
TORSDOF 6
