REMARK  Name = ZINCpe000000Y2zf.0
REMARK                            x       y       z     vdW  Elec       q    Type
REMARK                         _______ _______ _______ _____ _____    ______ ____
ROOT
ATOM      1  N   LIG    1        1.812  -1.693  -0.042  0.00  0.00    -0.450 N 
ATOM      2  C   LIG    1        2.476  -2.027   1.226  0.00  0.00    +0.210 C 
ATOM      3  C   LIG    1        2.929  -3.489   1.191  0.00  0.00    +0.240 C 
ATOM      4  N   LIG    1        3.838  -3.691   0.055  0.00  0.00    -0.480 N 
ATOM      5  C   LIG    1        3.174  -3.357  -1.213  0.00  0.00    +0.240 C 
ATOM      6  C   LIG    1        2.722  -1.895  -1.179  0.00  0.00    +0.190 C 
ENDROOT
BRANCH   1  11
ATOM      7  C   LIG    1        1.530   3.253   0.320  0.00  0.00    +0.200 C 
ATOM      8  C   LIG    1        1.175   1.800   0.134  0.00  0.00    +0.250 A 
ATOM      9  N   LIG    1       -0.018   1.335  -0.112  0.00  0.00    -0.440 NA
ATOM     10  C   LIG    1        0.037  -0.003  -0.212  0.00  0.00    +0.070 A 
ATOM     11  C   LIG    1        1.322  -0.387  -0.021  0.00  0.00    +0.250 A 
ATOM     12  N   LIG    1        2.046   0.755   0.199  0.00  0.00    -0.470 N 
ATOM     13  C   LIG    1        3.486   0.837   0.456  0.00  0.00    +0.340 C 
BRANCH  10  14
ATOM     14  N   LIG    1       -1.107  -0.902  -0.484  0.00  0.00    +0.070 N 
ATOM     15  O   LIG    1       -2.204  -0.433  -0.732  0.00  0.00    -0.150 OA
ATOM     16  O   LIG    1       -0.952  -2.110  -0.460  0.00  0.00    -0.130 OA
ENDBRANCH  10  14
ENDBRANCH   1  11
BRANCH   4  17
ATOM     17  C   LIG    1        4.325  -4.988   0.033  0.00  0.00    +0.400 A 
ATOM     18  C   LIG    1        4.999  -5.510   1.139  0.00  0.00    -0.160 A 
ATOM     19  C   LIG    1        5.462  -6.810   1.075  0.00  0.00    +0.380 A 
ATOM     20  N   LIG    1        5.265  -7.514  -0.029  0.00  0.00    -0.590 NA
ATOM     21  C   LIG    1        4.627  -6.992  -1.066  0.00  0.00    +0.590 A 
ATOM     22  N   LIG    1        4.163  -5.752  -1.042  0.00  0.00    -0.600 NA
BRANCH  21  23
ATOM     23  N   LIG    1        4.442  -7.760  -2.201  0.00  0.00    -0.590 N 
ATOM     24  C   LIG    1        4.948  -9.134  -2.247  0.00  0.00    +0.300 C 
ATOM     25  C   LIG    1        3.739  -7.200  -3.358  0.00  0.00    +0.310 C 
ENDBRANCH  21  23
ENDBRANCH   4  17
TORSDOF 4
