REMARK  Name = ZINCpk00000y6xOI.0
REMARK                            x       y       z     vdW  Elec       q    Type
REMARK                         _______ _______ _______ _____ _____    ______ ____
ROOT
ATOM      1  N   LIG    1        1.097   6.006  -0.022  0.00  0.00    -0.720 N 
ATOM      2  H   LIG    1        1.943   5.532  -0.007  0.00  0.00    +0.400 HD
ATOM      3  C   LIG    1       -0.061   5.318  -0.054  0.00  0.00    +0.560 C 
ATOM      4  O   LIG    1       -1.121   5.912  -0.073  0.00  0.00    -0.520 OA
ENDROOT
BRANCH   1   9
ATOM      5  C   LIG    1       -1.205   9.553   2.498  0.00  0.00    +0.110 C 
ATOM      6  C   LIG    1        0.063  10.194   1.993  0.00  0.00    +0.510 C 
ATOM      7  N   LIG    1        1.027   9.434   1.437  0.00  0.00    -0.610 N 
ATOM      8  C   LIG    1        0.913   7.969   1.428  0.00  0.00    +0.290 C 
ATOM      9  C   LIG    1        1.078   7.471  -0.011  0.00  0.00    +0.230 C 
ATOM     10  C   LIG    1        2.394   8.003  -0.584  0.00  0.00    +0.050 C 
ATOM     11  C   LIG    1        2.362   9.533  -0.603  0.00  0.00    +0.060 C 
ATOM     12  C   LIG    1        2.212  10.055   0.830  0.00  0.00    +0.220 C 
ATOM     13  O   LIG    1        0.215  11.394   2.087  0.00  0.00    -0.520 OA
BRANCH  12  14
ATOM     14  C   LIG    1        2.040  11.575   0.807  0.00  0.00    +0.470 C 
ATOM     15  F   LIG    1        0.821  11.897   0.201  0.00  0.00    -0.170 F 
ATOM     16  F   LIG    1        3.089  12.152   0.082  0.00  0.00    -0.190 F 
ATOM     17  F   LIG    1        2.054  12.066   2.117  0.00  0.00    -0.160 F 
ENDBRANCH  12  14
ENDBRANCH   1   9
BRANCH   3  18
ATOM     18  C   LIG    1       -0.043   3.839  -0.065  0.00  0.00    -0.140 A 
ATOM     19  C   LIG    1        1.175   3.155  -0.043  0.00  0.00    +0.070 A 
ATOM     20  C   LIG    1        1.194   1.774  -0.054  0.00  0.00    +0.010 A 
ATOM     21  C   LIG    1        0.012   1.061  -0.086  0.00  0.00    +0.070 A 
ATOM     22  C   LIG    1       -1.212   1.733  -0.113  0.00  0.00    -0.140 A 
ATOM     23  C   LIG    1       -1.239   3.126  -0.097  0.00  0.00    +0.150 A 
BRANCH  22  24
ATOM     24  C   LIG    1       -2.477   0.968  -0.154  0.00  0.00    +0.560 C 
ATOM     25  O   LIG    1       -3.541   1.555  -0.178  0.00  0.00    -0.530 OA
ATOM     26  N   LIG    1       -2.449  -0.379  -0.165  0.00  0.00    -0.850 N 
ATOM     27  H   LIG    1       -3.279  -0.881  -0.191  0.00  0.00    +0.410 HD
ATOM     28  H   LIG    1       -1.600  -0.847  -0.145  0.00  0.00    +0.400 HD
ENDBRANCH  22  24
ENDBRANCH   3  18
TORSDOF 4
