REMARK  Name = ZINCqH0000007vlz.0
REMARK                            x       y       z     vdW  Elec       q    Type
REMARK                         _______ _______ _______ _____ _____    ______ ____
ROOT
ATOM      1  C   LIG    1        0.158   4.960   1.441  0.00  0.00    +0.540 C 
ATOM      2  N   LIG    1       -0.707   5.960   1.700  0.00  0.00    -0.610 N 
ATOM      3  C   LIG    1       -1.331   6.838   0.693  0.00  0.00    +0.250 C 
ATOM      4  C   LIG    1       -1.696   8.130   1.465  0.00  0.00    +0.040 C 
ATOM      5  C   LIG    1       -2.135   7.558   2.839  0.00  0.00    +0.050 C 
ATOM      6  C   LIG    1       -1.190   6.353   3.032  0.00  0.00    +0.280 C 
ATOM      7  O   LIG    1        0.611   4.299   2.352  0.00  0.00    -0.520 OA
ENDROOT
BRANCH   6   8
ATOM      8  C   LIG    1       -1.938   5.208   3.664  0.00  0.00    +0.130 A 
ATOM      9  C   LIG    1       -2.025   5.126   5.040  0.00  0.00    -0.040 A 
ATOM     10  C   LIG    1       -2.719   4.070   5.612  0.00  0.00    +0.060 A 
ATOM     11  C   LIG    1       -3.294   3.128   4.774  0.00  0.00    -0.050 A 
ATOM     12  C   LIG    1       -3.161   3.273   3.406  0.00  0.00    +0.130 A 
ATOM     13  C   LIG    1       -3.781   2.254   2.485  0.00  0.00    +0.130 C 
ATOM     14  N   LIG    1       -2.498   4.292   2.897  0.00  0.00    -0.460 NA
ENDBRANCH   6   8
BRANCH   1  15
ATOM     15  C   LIG    1        0.564   4.662   0.021  0.00  0.00    +0.140 C 
BRANCH  15  23
ATOM     16  C   LIG    1        0.002  -0.004   0.002  0.00  0.00    +0.100 A 
ATOM     17  C   LIG    1        1.214  -0.689  -0.013  0.00  0.00    -0.050 A 
ATOM     18  C   LIG    1        2.408  -0.003  -0.020  0.00  0.00    +0.030 A 
ATOM     19  C   LIG    1        2.410   1.387  -0.013  0.00  0.00    +0.070 A 
ATOM     20  N   LIG    1        3.415   2.333  -0.017  0.00  0.00    -0.590 N 
ATOM     21  H   LIG    1        4.365   2.136  -0.027  0.00  0.00    +0.420 HD
ATOM     22  C   LIG    1        2.871   3.588  -0.005  0.00  0.00    +0.250 A 
ATOM     23  C   LIG    1        1.531   3.507   0.006  0.00  0.00    -0.160 A 
ATOM     24  C   LIG    1        1.188   2.083   0.002  0.00  0.00    -0.050 A 
ATOM     25  C   LIG    1       -0.017   1.377   0.010  0.00  0.00    +0.020 A 
BRANCH  16  27
ATOM     26  C   LIG    1       -1.077  -2.123   0.001  0.00  0.00    +0.230 C 
ATOM     27  O   LIG    1       -1.168  -0.697   0.009  0.00  0.00    -0.320 OA
ENDBRANCH  16  27
ENDBRANCH  15  23
ENDBRANCH   1  15
TORSDOF 4
