REMARK  Name = ZINCpk000004ATLE.1
REMARK                            x       y       z     vdW  Elec       q    Type
REMARK                         _______ _______ _______ _____ _____    ______ ____
ROOT
ATOM      1  C   LIG    1       -0.014   1.195  -0.019  0.00  0.00    +0.560 C 
ATOM      2  N   LIG    1        1.076   1.802   0.490  0.00  0.00    -0.610 N 
ATOM      3  C   LIG    1        1.003   3.177   1.007  0.00  0.00    +0.280 C 
ATOM      4  C   LIG    1        1.609   3.193   2.419  0.00  0.00    +0.170 C 
ATOM      5  N   LIG    1        2.960   2.619   2.373  0.00  0.00    -0.530 NA
ATOM      6  C   LIG    1        2.926   1.208   1.963  0.00  0.00    +0.170 C 
ATOM      7  C   LIG    1        2.372   1.108   0.537  0.00  0.00    +0.300 C 
ATOM      8  O   LIG    1        0.078   0.083  -0.501  0.00  0.00    -0.530 OA
ENDROOT
BRANCH   1  13
ATOM      9  C   LIG    1       -3.720   1.806   0.176  0.00  0.00    +0.140 A 
ATOM     10  C   LIG    1       -3.770   3.189   0.040  0.00  0.00    +0.010 A 
ATOM     11  C   LIG    1       -2.604   3.916  -0.115  0.00  0.00    +0.040 A 
ATOM     12  C   LIG    1       -1.383   3.274  -0.129  0.00  0.00    +0.030 A 
ATOM     13  C   LIG    1       -1.322   1.885   0.002  0.00  0.00    -0.110 A 
ATOM     14  C   LIG    1       -2.498   1.152   0.157  0.00  0.00    +0.080 A 
BRANCH   9  16
ATOM     15  C   LIG    1       -4.920  -0.016   1.121  0.00  0.00    +0.540 C 
ATOM     16  N   LIG    1       -4.902   1.076   0.332  0.00  0.00    -0.670 N 
ATOM     17  H   LIG    1       -5.709   1.355  -0.129  0.00  0.00    +0.410 HD
ATOM     18  O   LIG    1       -3.891  -0.416   1.631  0.00  0.00    -0.520 OA
BRANCH  15  20
ATOM     19  C   LIG    1       -6.203  -1.803   2.146  0.00  0.00    +0.160 C 
ATOM     20  C   LIG    1       -6.185  -0.725   1.367  0.00  0.00    -0.090 C 
ENDBRANCH  15  20
ENDBRANCH   9  16
ENDBRANCH   1  13
BRANCH   5  21
ATOM     21  C   LIG    1        3.642   2.774   3.665  0.00  0.00    +0.190 C 
ATOM     22  C   LIG    1        2.865   2.026   4.767  0.00  0.00    -0.020 C 
ATOM     23  C   LIG    1        3.001   2.936   6.013  0.00  0.00    +0.020 C 
ATOM     24  C   LIG    1        2.901   4.359   5.410  0.00  0.00    -0.020 C 
ATOM     25  C   LIG    1        3.666   4.258   4.073  0.00  0.00    +0.170 C 
BRANCH  25  26
ATOM     26  O   LIG    1        5.014   4.697   4.247  0.00  0.00    -0.560 OA
ATOM     27  H   LIG    1        5.096   5.625   4.505  0.00  0.00    +0.380 HD
ENDBRANCH  25  26
ENDBRANCH   5  21
TORSDOF 5
