REMARK  Name = ZINCrD00000l76m0.0
REMARK                            x       y       z     vdW  Elec       q    Type
REMARK                         _______ _______ _______ _____ _____    ______ ____
ROOT
ATOM      1  C   LIG    1        2.349   0.656  -0.078  0.00  0.00    -0.030 C 
ATOM      2  C   LIG    1        2.098  -0.279   1.109  0.00  0.00    +0.020 C 
ATOM      3  C   LIG    1        2.310   0.495   2.412  0.00  0.00    +0.210 C 
ATOM      4  O   LIG    1        3.634   1.031   2.436  0.00  0.00    -0.380 OA
ATOM      5  C   LIG    1        3.911   1.949   1.377  0.00  0.00    +0.220 C 
ATOM      6  C   LIG    1        3.764   1.234   0.032  0.00  0.00    +0.010 C 
ENDROOT
BRANCH   1  11
ATOM      7  C   LIG    1        0.902  -1.440  -2.865  0.00  0.00    -0.180 A 
ATOM      8  C   LIG    1        1.976  -1.528  -3.730  0.00  0.00    +0.070 A 
ATOM      9  C   LIG    1        3.171  -0.908  -3.414  0.00  0.00    +0.030 A 
ATOM     10  C   LIG    1        3.290  -0.198  -2.235  0.00  0.00    +0.050 A 
ATOM     11  C   LIG    1        2.218  -0.114  -1.367  0.00  0.00    -0.080 A 
ATOM     12  C   LIG    1        1.023  -0.733  -1.683  0.00  0.00    +0.080 A 
BRANCH   7  14
ATOM     13  F   LIG    1       -1.208  -1.228  -3.930  0.00  0.00    -0.170 F 
ATOM     14  C   LIG    1       -0.401  -2.114  -3.210  0.00  0.00    +0.510 C 
ATOM     15  F   LIG    1       -1.056  -2.492  -2.033  0.00  0.00    -0.170 F 
ATOM     16  F   LIG    1       -0.146  -3.250  -3.987  0.00  0.00    -0.180 F 
ENDBRANCH   7  14
ENDBRANCH   1  11
BRANCH   1  17
ATOM     17  C   LIG    1        1.328   1.796  -0.057  0.00  0.00    +0.320 C 
BRANCH  17  18
ATOM     18  N   LIG    1        1.552   2.673  -1.209  0.00  0.00    -0.680 N 
ATOM     19  H   LIG    1        2.299   2.509  -1.806  0.00  0.00    +0.400 HD
BRANCH  18  20
ATOM     20  C   LIG    1        0.724   3.712  -1.436  0.00  0.00    +0.560 C 
ATOM     21  S   LIG    1       -0.595   4.002  -0.382  0.00  0.00    -0.640 S 
BRANCH  20  22
ATOM     22  N   LIG    1        0.933   4.522  -2.492  0.00  0.00    -0.680 N 
ATOM     23  H   LIG    1        1.679   4.358  -3.089  0.00  0.00    +0.400 HD
BRANCH  22  24
ATOM     24  C   LIG    1        0.032   5.651  -2.739  0.00  0.00    +0.330 C 
BRANCH  24  25
ATOM     25  C   LIG    1        0.489   6.404  -3.990  0.00  0.00    +0.140 C 
ATOM     26  C   LIG    1       -0.448   7.599  -4.254  0.00  0.00    +0.020 C 
ATOM     27  C   LIG    1        0.490   8.830  -4.229  0.00  0.00    +0.000 C 
ATOM     28  C   LIG    1        1.875   8.188  -4.498  0.00  0.00    +0.210 C 
ATOM     29  O   LIG    1        1.811   6.931  -3.788  0.00  0.00    -0.380 OA
ENDBRANCH  24  25
ENDBRANCH  22  24
ENDBRANCH  20  22
ENDBRANCH  18  20
ENDBRANCH  17  18
ENDBRANCH   1  17
TORSDOF 8
