REMARK  Name = ZINCpk00000Fdq6c.2
REMARK                            x       y       z     vdW  Elec       q    Type
REMARK                         _______ _______ _______ _____ _____    ______ ____
ROOT
ATOM      1  C   LIG    1       -1.196  -0.918   0.009  0.00  0.00    +0.270 C 
ATOM      2  C   LIG    1       -1.991  -0.750   1.325  0.00  0.00    +0.080 C 
ATOM      3  C   LIG    1       -2.415  -2.202   1.661  0.00  0.00    +0.190 C 
ATOM      4  N   LIG    1       -1.234  -3.004   1.251  0.00  0.00    -0.500 NA
ATOM      5  C   LIG    1       -0.746  -2.390  -0.003  0.00  0.00    +0.210 C 
ENDROOT
BRANCH   1   6
ATOM      6  C   LIG    1        0.002  -0.004   0.002  0.00  0.00    +0.170 A 
ATOM      7  N   LIG    1       -0.016   1.307   0.009  0.00  0.00    -0.420 NA
ATOM      8  C   LIG    1        1.274   1.687  -0.001  0.00  0.00    +0.160 A 
ATOM      9  N   LIG    1        1.998   0.607  -0.014  0.00  0.00    -0.380 NA
ATOM     10  C   LIG    1        1.787   3.104   0.002  0.00  0.00    +0.210 C 
ATOM     11  O   LIG    1        1.286  -0.375  -0.012  0.00  0.00    +0.080 OA
ENDBRANCH   1   6
BRANCH   1  14
ATOM     12  C   LIG    1       -3.466   0.876  -2.498  0.00  0.00    +0.090 C 
ATOM     13  C   LIG    1       -2.583   0.590  -1.310  0.00  0.00    +0.500 C 
ATOM     14  N   LIG    1       -2.054  -0.639  -1.145  0.00  0.00    -0.720 N 
ATOM     15  H   LIG    1       -2.242  -1.339  -1.790  0.00  0.00    +0.410 HD
ATOM     16  O   LIG    1       -2.348   1.464  -0.504  0.00  0.00    -0.490 OA
ENDBRANCH   1  14
BRANCH   4  17
ATOM     17  C   LIG    1       -1.601  -4.411   1.040  0.00  0.00    +0.220 C 
BRANCH  17  18
ATOM     18  C   LIG    1       -1.857  -5.068   2.372  0.00  0.00    -0.040 A 
ATOM     19  C   LIG    1       -0.828  -5.669   3.019  0.00  0.00    +0.050 A 
ATOM     20  C   LIG    1       -1.055  -6.283   4.270  0.00  0.00    +0.100 A 
ATOM     21  N   LIG    1       -0.298  -6.931   5.137  0.00  0.00    -0.300 NA
ATOM     22  N   LIG    1       -1.088  -7.328   6.222  0.00  0.00    -0.430 N 
ATOM     23  H   LIG    1       -0.767  -7.821   6.994  0.00  0.00    +0.440 HD
ATOM     24  C   LIG    1       -2.353  -6.927   6.037  0.00  0.00    +0.270 A 
ATOM     25  C   LIG    1       -2.416  -6.260   4.828  0.00  0.00    -0.210 A 
ATOM     26  C   LIG    1       -3.440  -5.622   4.096  0.00  0.00    +0.080 A 
ATOM     27  C   LIG    1       -3.149  -5.047   2.902  0.00  0.00    -0.030 A 
ENDBRANCH  17  18
ENDBRANCH   4  17
TORSDOF 4
