REMARK  Name = ZINCvU0000000B7q.0
REMARK                            x       y       z     vdW  Elec       q    Type
REMARK                         _______ _______ _______ _____ _____    ______ ____
ROOT
ATOM      1  C   LIG    1       -0.664  -6.653   2.192  0.00  0.00    +0.250 C 
ATOM      2  C   LIG    1       -1.569  -7.563   3.029  0.00  0.00    +0.170 C 
ATOM      3  N   LIG    1       -0.760  -8.255   4.042  0.00  0.00    -0.530 NA
ATOM      4  C   LIG    1       -0.155  -7.303   4.983  0.00  0.00    +0.170 C 
ATOM      5  C   LIG    1        0.812  -6.383   4.221  0.00  0.00    +0.280 C 
ATOM      6  N   LIG    1        0.082  -5.771   3.101  0.00  0.00    -0.620 N 
ATOM      7  C   LIG    1        0.100  -4.436   2.910  0.00  0.00    +0.690 C 
ATOM      8  N   LIG    1        0.881  -3.656   3.683  0.00  0.00    -0.670 N 
ATOM      9  H   LIG    1        1.486  -4.059   4.325  0.00  0.00    +0.410 HD
ATOM     10  O   LIG    1       -0.589  -3.938   2.041  0.00  0.00    -0.500 OA
ENDROOT
BRANCH   8  11
ATOM     11  C   LIG    1        0.820  -2.269   3.559  0.00  0.00    +0.370 A 
ATOM     12  C   LIG    1        1.545  -1.465   4.429  0.00  0.00    -0.080 A 
ATOM     13  C   LIG    1        1.477  -0.086   4.296  0.00  0.00    -0.000 A 
ATOM     14  C   LIG    1        0.687   0.443   3.294  0.00  0.00    -0.160 A 
ATOM     15  C   LIG    1        0.559   1.924   3.063  0.00  0.00    +0.090 C 
ATOM     16  C   LIG    1        1.024   2.700   4.294  0.00  0.00    +0.020 C 
ATOM     17  C   LIG    1        2.412   2.188   4.696  0.00  0.00    +0.020 C 
ATOM     18  C   LIG    1       -0.012  -0.419   2.463  0.00  0.00    +0.300 A 
ATOM     19  C   LIG    1        2.264   0.770   5.248  0.00  0.00    +0.080 C 
ATOM     20  N   LIG    1        0.070  -1.725   2.612  0.00  0.00    -0.470 NA
ENDBRANCH   8  11
BRANCH   1  21
ATOM     21  C   LIG    1       -1.519  -5.810   1.244  0.00  0.00    +0.040 C 
BRANCH  21  23
ATOM     22  C   LIG    1       -0.110  -6.345  -0.749  0.00  0.00    -0.010 C 
ATOM     23  C   LIG    1       -0.632  -5.219   0.146  0.00  0.00    +0.010 C 
ATOM     24  C   LIG    1       -1.448  -4.236  -0.695  0.00  0.00    +0.010 C 
ENDBRANCH  21  23
ENDBRANCH   1  21
BRANCH   3  25
ATOM     25  C   LIG    1       -1.556  -9.264   4.752  0.00  0.00    +0.230 C 
BRANCH  25  26
ATOM     26  C   LIG    1       -0.647 -10.115   5.601  0.00  0.00    -0.070 A 
ATOM     27  C   LIG    1       -0.091 -11.267   5.077  0.00  0.00    +0.050 A 
ATOM     28  C   LIG    1        0.747 -12.046   5.853  0.00  0.00    +0.020 A 
ATOM     29  C   LIG    1        1.020 -11.678   7.158  0.00  0.00    -0.030 A 
ATOM     30  C   LIG    1        0.459 -10.528   7.684  0.00  0.00    +0.020 A 
ATOM     31 CL   LIG    1        2.066 -12.659   8.136  0.00  0.00    -0.070 Cl
ATOM     32  C   LIG    1       -0.374  -9.747   6.905  0.00  0.00    +0.030 A 
ENDBRANCH  25  26
ENDBRANCH   3  25
TORSDOF 5
