REMARK  Name = ZINCnE000001E5nd.0
REMARK                            x       y       z     vdW  Elec       q    Type
REMARK                         _______ _______ _______ _____ _____    ______ ____
ROOT
ATOM      1  S   LIG    1        5.718   3.257  -0.012  0.00  0.00    +2.690 S 
ATOM      2  O   LIG    1        6.516   2.211   0.524  0.00  0.00    -0.960 OA
ATOM      3  O   LIG    1        5.744   4.588   0.485  0.00  0.00    -0.930 OA
ENDROOT
BRANCH   1   7
ATOM      4  C   LIG    1        1.420   1.866   0.285  0.00  0.00    -0.020 A 
ATOM      5  C   LIG    1        1.706   3.216   0.216  0.00  0.00    +0.000 A 
ATOM      6  C   LIG    1        3.019   3.641   0.131  0.00  0.00    +0.150 A 
ATOM      7  C   LIG    1        4.045   2.716   0.104  0.00  0.00    -0.680 A 
ATOM      8  C   LIG    1        3.759   1.365   0.168  0.00  0.00    +0.120 A 
ATOM      9  C   LIG    1        2.446   0.940   0.259  0.00  0.00    -0.020 A 
BRANCH   4  11
ATOM     10  C   LIG    1       -0.789   1.888  -0.841  0.00  0.00    +0.030 C 
ATOM     11  C   LIG    1       -0.010   1.402   0.383  0.00  0.00    +0.020 C 
ATOM     12  C   LIG    1       -0.646   1.975   1.652  0.00  0.00    +0.030 C 
ENDBRANCH   4  11
ENDBRANCH   1   7
BRANCH   1  13
ATOM     13  N   LIG    1        6.092   3.352  -1.622  0.00  0.00    -1.050 N 
ATOM     14  H   LIG    1        6.810   2.811  -1.986  0.00  0.00    +0.420 HD
BRANCH  13  15
ATOM     15  C   LIG    1        5.372   4.212  -2.458  0.00  0.00    +0.100 A 
ATOM     16  C   LIG    1        4.925   5.431  -1.977  0.00  0.00    +0.070 A 
ATOM     17  C   LIG    1        4.210   6.289  -2.818  0.00  0.00    -0.110 A 
ATOM     18  C   LIG    1        3.942   5.906  -4.135  0.00  0.00    +0.070 A 
ATOM     19  C   LIG    1        4.386   4.688  -4.603  0.00  0.00    -0.020 A 
ATOM     20  C   LIG    1        5.099   3.840  -3.772  0.00  0.00    +0.070 A 
ATOM     21  F   LIG    1        5.531   2.647  -4.238  0.00  0.00    -0.150 F 
BRANCH  17  22
ATOM     22  C   LIG    1        3.734   7.590  -2.314  0.00  0.00    +0.520 C 
ATOM     23  O   LIG    1        3.970   7.923  -1.161  0.00  0.00    -0.670 OA
ATOM     24  O   LIG    1        3.104   8.337  -3.050  0.00  0.00    -0.680 OA
ENDBRANCH  17  22
ENDBRANCH  13  15
ENDBRANCH   1  13
TORSDOF 5
