REMARK  Name = ZINCkj00000xIA7A.1
REMARK                            x       y       z     vdW  Elec       q    Type
REMARK                         _______ _______ _______ _____ _____    ______ ____
ROOT
ATOM      1  C   LIG    1       -0.143   4.462  -0.757  0.00  0.00    +0.150 C 
ATOM      2  C   LIG    1        1.375   4.677  -0.938  0.00  0.00    +0.110 C 
ATOM      3  C   LIG    1        1.447   6.015  -1.720  0.00  0.00    +0.050 C 
ATOM      4  C   LIG    1        0.258   6.799  -1.110  0.00  0.00    +0.250 C 
ATOM      5  N   LIG    1       -0.789   5.780  -0.884  0.00  0.00    -0.380 N 
ATOM      6  H   LIG    1       -1.429   5.771  -1.664  0.00  0.00    +0.420 HD
ENDROOT
BRANCH   1  13
ATOM      7  C   LIG    1        1.918   0.797   0.820  0.00  0.00    +0.100 C 
ATOM      8  C   LIG    1        1.458   2.218   0.616  0.00  0.00    +0.530 C 
ATOM      9  N   LIG    1        0.150   2.525   0.726  0.00  0.00    -0.610 N 
ATOM     10  C   LIG    1       -0.941   1.564   0.969  0.00  0.00    +0.260 C 
ATOM     11  C   LIG    1       -2.072   2.403   1.614  0.00  0.00    +0.060 C 
ATOM     12  C   LIG    1       -1.946   3.742   0.840  0.00  0.00    +0.040 C 
ATOM     13  C   LIG    1       -0.423   3.875   0.628  0.00  0.00    +0.230 C 
ATOM     14  O   LIG    1        2.264   3.084   0.348  0.00  0.00    -0.530 OA
ENDBRANCH   1  13
BRANCH   5  15
ATOM     15  C   LIG    1       -1.520   6.093   0.351  0.00  0.00    +0.350 C 
BRANCH  15  16
ATOM     16  C   LIG    1       -1.829   7.568   0.393  0.00  0.00    -0.320 A 
ATOM     17  C   LIG    1       -1.047   8.530   0.933  0.00  0.00    +0.280 A 
ATOM     18  N   LIG    1       -1.674   9.713   0.765  0.00  0.00    -0.350 N 
ATOM     19  N   LIG    1       -2.886   9.469   0.106  0.00  0.00    -0.270 NA
ATOM     20  C   LIG    1       -1.177  11.022   1.199  0.00  0.00    +0.380 C 
ATOM     21  C   LIG    1       -2.978   8.183  -0.116  0.00  0.00    +0.260 A 
ENDBRANCH  15  16
ENDBRANCH   5  15
TORSDOF 3
