REMARK  Name = ZINCkj00000xIA7A.0
REMARK                            x       y       z     vdW  Elec       q    Type
REMARK                         _______ _______ _______ _____ _____    ______ ____
ROOT
ATOM      1  C   LIG    1        0.001   1.088   0.008  0.00  0.00    +0.160 C 
ATOM      2  C   LIG    1       -0.672   1.587   1.304  0.00  0.00    +0.090 C 
ATOM      3  C   LIG    1        0.536   1.901   2.226  0.00  0.00    +0.080 C 
ATOM      4  C   LIG    1        1.573   2.442   1.210  0.00  0.00    +0.250 C 
ATOM      5  N   LIG    1        1.375   1.621  -0.004  0.00  0.00    -0.390 N 
ATOM      6  H   LIG    1        1.511   2.193  -0.824  0.00  0.00    +0.420 HD
ENDROOT
BRANCH   1  13
ATOM      7  C   LIG    1        0.984  -0.331  -4.072  0.00  0.00    +0.110 C 
ATOM      8  C   LIG    1        0.154  -0.064  -2.843  0.00  0.00    +0.530 C 
ATOM      9  N   LIG    1       -0.073   1.203  -2.445  0.00  0.00    -0.640 N 
ATOM     10  C   LIG    1        0.334   2.418  -3.173  0.00  0.00    +0.260 C 
ATOM     11  C   LIG    1       -0.643   3.518  -2.687  0.00  0.00    +0.050 C 
ATOM     12  C   LIG    1       -0.813   3.145  -1.191  0.00  0.00    +0.040 C 
ATOM     13  C   LIG    1       -0.767   1.603  -1.212  0.00  0.00    +0.240 C 
ATOM     14  O   LIG    1       -0.310  -0.991  -2.212  0.00  0.00    -0.530 OA
ENDBRANCH   1  13
BRANCH   5  15
ATOM     15  C   LIG    1        2.336   0.510  -0.011  0.00  0.00    +0.350 C 
BRANCH  15  16
ATOM     16  C   LIG    1        3.734   1.055  -0.147  0.00  0.00    -0.320 A 
ATOM     17  C   LIG    1        4.554   1.407   0.871  0.00  0.00    +0.290 A 
ATOM     18  N   LIG    1        5.711   1.846   0.334  0.00  0.00    -0.350 N 
ATOM     19  N   LIG    1        5.599   1.762  -1.060  0.00  0.00    -0.270 NA
ATOM     20  C   LIG    1        6.879   2.327   1.077  0.00  0.00    +0.380 C 
ATOM     21  C   LIG    1        4.416   1.282  -1.347  0.00  0.00    +0.260 A 
ENDBRANCH  15  16
ENDBRANCH   5  15
TORSDOF 3
