REMARK  Name = ZINCvU0000000HFt.0
REMARK                            x       y       z     vdW  Elec       q    Type
REMARK                         _______ _______ _______ _____ _____    ______ ____
ROOT
ATOM      1  C   LIG    1      -12.902   7.639  -4.928  0.00  0.00    +0.160 C 
ATOM      2  C   LIG    1      -11.569   6.975  -4.696  0.00  0.00    -0.180 A 
ATOM      3  C   LIG    1      -11.010   6.802  -3.498  0.00  0.00    -0.000 A 
ATOM      4  C   LIG    1       -9.716   6.134  -3.530  0.00  0.00    -0.210 A 
ATOM      5  C   LIG    1       -9.324   5.811  -4.814  0.00  0.00    +0.060 A 
ATOM      6  N   LIG    1       -8.111   5.176  -5.003  0.00  0.00    -0.580 N 
ATOM      7  H   LIG    1       -7.826   4.948  -5.902  0.00  0.00    +0.430 HD
ATOM      8  C   LIG    1       -7.317   4.863  -3.949  0.00  0.00    +0.400 A 
ATOM      9  N   LIG    1       -7.652   5.152  -2.709  0.00  0.00    -0.590 NA
ATOM     10  C   LIG    1       -8.804   5.771  -2.426  0.00  0.00    +0.550 A 
ATOM     11  O   LIG    1       -9.098   6.032  -1.270  0.00  0.00    -0.480 OA
ATOM     12  S   LIG    1      -10.546   6.329  -5.965  0.00  0.00    +0.190 S 
ENDROOT
BRANCH   3  13
ATOM     13  C   LIG    1      -11.652   7.252  -2.240  0.00  0.00    -0.040 A 
ATOM     14  C   LIG    1      -12.060   6.317  -1.290  0.00  0.00    +0.080 A 
ATOM     15  C   LIG    1      -12.651   6.740  -0.117  0.00  0.00    -0.010 A 
ATOM     16  C   LIG    1      -12.850   8.092   0.112  0.00  0.00    +0.100 A 
ATOM     17  C   LIG    1      -12.450   9.025  -0.832  0.00  0.00    -0.010 A 
ATOM     18  F   LIG    1      -13.434   8.502   1.258  0.00  0.00    -0.140 F 
ATOM     19  C   LIG    1      -11.853   8.611  -2.005  0.00  0.00    +0.060 A 
ENDBRANCH   3  13
BRANCH   8  20
ATOM     20  S   LIG    1       -5.784   4.048  -4.249  0.00  0.00    +0.090 S 
BRANCH  20  21
ATOM     21  C   LIG    1       -5.171   3.895  -2.553  0.00  0.00    +0.140 C 
BRANCH  21  22
ATOM     22  C   LIG    1       -3.831   3.207  -2.563  0.00  0.00    +0.530 C 
ATOM     23  N   LIG    1       -3.180   2.983  -1.404  0.00  0.00    -0.720 N 
ATOM     24  H   LIG    1       -3.574   3.265  -0.564  0.00  0.00    +0.410 HD
ATOM     25  O   LIG    1       -3.338   2.854  -3.613  0.00  0.00    -0.520 OA
BRANCH  23  26
ATOM     26  C   LIG    1       -1.877   2.314  -1.414  0.00  0.00    +0.270 C 
BRANCH  26  27
ATOM     27  C   LIG    1       -1.359   2.185   0.020  0.00  0.00    +0.060 C 
BRANCH  27  28
ATOM     28  C   LIG    1       -0.018   1.496   0.010  0.00  0.00    -0.120 C 
ATOM     29  C   LIG    1        1.044   2.236   0.004  0.00  0.00    -0.040 C 
ATOM     30  C   LIG    1        2.444   1.697  -0.022  0.00  0.00    +0.050 C 
ATOM     31  C   LIG    1        2.448   0.221   0.383  0.00  0.00    +0.010 C 
ATOM     32  C   LIG    1        1.378  -0.510  -0.437  0.00  0.00    +0.010 C 
ATOM     33  C   LIG    1        0.002  -0.004   0.002  0.00  0.00    +0.060 C 
ENDBRANCH  27  28
ENDBRANCH  26  27
ENDBRANCH  23  26
ENDBRANCH  21  22
ENDBRANCH  20  21
ENDBRANCH   8  20
TORSDOF 7
