REMARK  Name = ZINCvU0000000CYt.0
REMARK                            x       y       z     vdW  Elec       q    Type
REMARK                         _______ _______ _______ _____ _____    ______ ____
ROOT
ATOM      1  C   LIG    1        1.625  -6.937  -0.050  0.00  0.00    +0.110 C 
ATOM      2  C   LIG    1        0.847  -6.869   1.265  0.00  0.00    +0.110 C 
ENDROOT
BRANCH   1   3
ATOM      3  C   LIG    1        2.262  -8.296  -0.187  0.00  0.00    +0.460 A 
ATOM      4  N   LIG    1        1.556  -9.271  -0.689  0.00  0.00    -0.550 NA
ATOM      5  C   LIG    1        2.070 -10.504  -0.835  0.00  0.00    +0.540 A 
ATOM      6  C   LIG    1        3.464 -10.747  -0.417  0.00  0.00    -0.210 A 
ATOM      7  C   LIG    1        4.165  -9.677   0.107  0.00  0.00    +0.050 A 
ATOM      8  S   LIG    1        5.793 -10.176   0.539  0.00  0.00    +0.220 S 
ATOM      9  C   LIG    1        5.506 -11.822   0.006  0.00  0.00    -0.010 A 
ATOM     10  C   LIG    1        4.264 -11.964  -0.461  0.00  0.00    +0.040 A 
ATOM     11  O   LIG    1        1.396 -11.406  -1.306  0.00  0.00    -0.460 OA
ATOM     12  N   LIG    1        3.535  -8.454   0.206  0.00  0.00    -0.590 N 
ATOM     13  H   LIG    1        4.020  -7.696   0.569  0.00  0.00    +0.420 HD
BRANCH  10  14
ATOM     14  C   LIG    1        3.744 -13.246  -0.978  0.00  0.00    +0.040 A 
ATOM     15  C   LIG    1        4.351 -14.040  -1.901  0.00  0.00    -0.030 A 
ATOM     16  C   LIG    1        3.511 -15.156  -2.094  0.00  0.00    -0.070 A 
ATOM     17  C   LIG    1        2.439 -14.985  -1.295  0.00  0.00    +0.180 A 
ATOM     18  O   LIG    1        2.584 -13.830  -0.622  0.00  0.00    -0.150 OA
ENDBRANCH  10  14
ENDBRANCH   1   3
BRANCH   1  19
ATOM     19  S   LIG    1        2.912  -5.665  -0.056  0.00  0.00    +0.070 S 
BRANCH  19  23
ATOM     20  C   LIG    1        1.247  -2.161  -0.022  0.00  0.00    +0.240 A 
ATOM     21  N   LIG    1        0.204  -2.954  -0.011  0.00  0.00    -0.270 NA
ATOM     22  N   LIG    1        0.598  -4.179  -0.026  0.00  0.00    -0.260 NA
ATOM     23  C   LIG    1        1.910  -4.216  -0.039  0.00  0.00    +0.130 A 
ATOM     24  O   LIG    1        2.349  -2.942  -0.037  0.00  0.00    -0.200 OA
BRANCH  20  28
ATOM     25  C   LIG    1        1.175   2.087   0.002  0.00  0.00    +0.160 A 
ATOM     26  C   LIG    1       -0.017   1.374   0.010  0.00  0.00    +0.000 A 
ATOM     27  C   LIG    1        0.002  -0.004   0.002  0.00  0.00    +0.130 A 
ATOM     28  C   LIG    1        1.222  -0.684  -0.013  0.00  0.00    -0.080 A 
ATOM     29  C   LIG    1        2.418   0.037  -0.021  0.00  0.00    +0.100 A 
ATOM     30  C   LIG    1        2.391   1.415  -0.013  0.00  0.00    -0.070 A 
BRANCH  25  32
ATOM     31  C   LIG    1        2.415   4.115   0.001  0.00  0.00    +0.250 C 
ATOM     32  O   LIG    1        1.153   3.445   0.009  0.00  0.00    -0.310 OA
ENDBRANCH  25  32
ENDBRANCH  20  28
ENDBRANCH  19  23
ENDBRANCH   1  19
TORSDOF 6
