REMARK  Name = ZINCzw0000000f5Y.0
REMARK                            x       y       z     vdW  Elec       q    Type
REMARK                         _______ _______ _______ _____ _____    ______ ____
ROOT
ATOM      1  C   LIG    1       -2.035   7.412  -1.923  0.00  0.00    +0.520 C 
ATOM      2  N   LIG    1       -2.425   6.155  -2.211  0.00  0.00    -0.740 N 
ATOM      3  H   LIG    1       -2.647   5.912  -3.123  0.00  0.00    +0.410 HD
ATOM      4  O   LIG    1       -1.758   7.715  -0.782  0.00  0.00    -0.530 OA
ENDROOT
BRANCH   1   5
ATOM      5  C   LIG    1       -1.944   8.442  -3.020  0.00  0.00    +0.060 C 
BRANCH   5   6
ATOM      6  C   LIG    1       -1.481   9.776  -2.430  0.00  0.00    +0.140 C 
BRANCH   6   9
ATOM      7  C   LIG    1       -3.687  11.560  -2.943  0.00  0.00    +0.140 C 
ATOM      8  C   LIG    1       -2.432  11.652  -3.772  0.00  0.00    +0.240 A 
ATOM      9  C   LIG    1       -1.389  10.806  -3.526  0.00  0.00    -0.330 A 
ATOM     10  C   LIG    1       -0.227  10.914  -4.309  0.00  0.00    +0.550 A 
ATOM     11  N   LIG    1       -0.186  11.846  -5.285  0.00  0.00    -0.660 N 
ATOM     12  H   LIG    1        0.605  11.937  -5.839  0.00  0.00    +0.410 HD
ATOM     13  C   LIG    1       -1.256  12.662  -5.484  0.00  0.00    +0.640 A 
ATOM     14  O   LIG    1        0.726  10.177  -4.113  0.00  0.00    -0.540 OA
ATOM     15  N   LIG    1       -2.341  12.558  -4.743  0.00  0.00    -0.590 NA
BRANCH  13  16
ATOM     16  N   LIG    1       -1.206  13.609  -6.473  0.00  0.00    -0.590 N 
ATOM     17  C   LIG    1       -0.062  13.680  -7.395  0.00  0.00    +0.260 C 
ATOM     18  C   LIG    1       -0.606  13.717  -8.832  0.00  0.00    +0.230 C 
ATOM     19  O   LIG    1       -1.575  14.762  -8.940  0.00  0.00    -0.370 OA
ATOM     20  C   LIG    1       -2.725  14.583  -8.110  0.00  0.00    +0.220 C 
ATOM     21  C   LIG    1       -2.292  14.588  -6.639  0.00  0.00    +0.300 C 
ENDBRANCH  13  16
ENDBRANCH   6   9
ENDBRANCH   5   6
ENDBRANCH   1   5
BRANCH   2  22
ATOM     22  C   LIG    1       -2.514   5.154  -1.145  0.00  0.00    +0.300 C 
BRANCH  22  23
ATOM     23  C   LIG    1       -2.970   3.840  -1.726  0.00  0.00    -0.090 A 
ATOM     24  C   LIG    1       -4.292   3.455  -1.612  0.00  0.00    +0.050 A 
ATOM     25  C   LIG    1       -4.710   2.250  -2.145  0.00  0.00    +0.060 A 
ATOM     26  C   LIG    1       -3.805   1.430  -2.793  0.00  0.00    +0.040 A 
ATOM     27  C   LIG    1       -2.483   1.817  -2.912  0.00  0.00    +0.050 A 
ATOM     28  C   LIG    1       -2.065   3.020  -2.374  0.00  0.00    -0.140 A 
BRANCH  28  29
ATOM     29  C   LIG    1       -0.623   3.439  -2.498  0.00  0.00    +0.310 C 
BRANCH  29  30
ATOM     30  N   LIG    1        0.082   3.158  -1.235  0.00  0.00    -0.380 N 
ATOM     31  C   LIG    1        1.448   3.678  -1.327  0.00  0.00    +0.260 C 
ATOM     32  C   LIG    1        2.204   3.468  -0.023  0.00  0.00    +0.000 C 
ATOM     33  C   LIG    1        2.146   2.030   0.460  0.00  0.00    +0.040 C 
ATOM     34  C   LIG    1        0.791   1.363   0.296  0.00  0.00    +0.000 C 
ATOM     35  C   LIG    1       -0.136   1.690   1.467  0.00  0.00    +0.030 C 
ATOM     36  C   LIG    1        1.709   4.437   1.051  0.00  0.00    +0.030 C 
ATOM     37  C   LIG    1        0.127   1.708  -1.029  0.00  0.00    +0.250 C 
ATOM     38  H   LIG    1       -0.416   3.606  -0.485  0.00  0.00    +0.420 HD
ENDBRANCH  29  30
ENDBRANCH  28  29
ENDBRANCH  22  23
ENDBRANCH   2  22
TORSDOF 8
