REMARK  Name = ZINCzw0000000f5Y.1
REMARK                            x       y       z     vdW  Elec       q    Type
REMARK                         _______ _______ _______ _____ _____    ______ ____
ROOT
ATOM      1  C   LIG    1       -4.201  -2.610   0.070  0.00  0.00    +0.510 C 
ATOM      2  N   LIG    1       -4.704  -1.368   0.217  0.00  0.00    -0.750 N 
ATOM      3  H   LIG    1       -5.617  -1.248   0.520  0.00  0.00    +0.390 HD
ATOM      4  O   LIG    1       -3.059  -2.761  -0.309  0.00  0.00    -0.500 OA
ENDROOT
BRANCH   1   5
ATOM      5  C   LIG    1       -5.058  -3.811   0.377  0.00  0.00    +0.050 C 
BRANCH   5   6
ATOM      6  C   LIG    1       -4.254  -5.089   0.129  0.00  0.00    +0.140 C 
BRANCH   6   9
ATOM      7  C   LIG    1       -5.704  -6.421  -1.977  0.00  0.00    +0.140 C 
ATOM      8  C   LIG    1       -5.798  -6.923  -0.559  0.00  0.00    +0.240 A 
ATOM      9  C   LIG    1       -5.111  -6.290   0.435  0.00  0.00    -0.340 A 
ATOM     10  C   LIG    1       -5.211  -6.780   1.750  0.00  0.00    +0.550 A 
ATOM     11  N   LIG    1       -5.994  -7.855   1.983  0.00  0.00    -0.660 N 
ATOM     12  H   LIG    1       -6.080  -8.208   2.882  0.00  0.00    +0.410 HD
ATOM     13  C   LIG    1       -6.657  -8.445   0.952  0.00  0.00    +0.640 A 
ATOM     14  O   LIG    1       -4.606  -6.242   2.662  0.00  0.00    -0.540 OA
ATOM     15  N   LIG    1       -6.553  -7.983  -0.278  0.00  0.00    -0.590 NA
BRANCH  13  16
ATOM     16  N   LIG    1       -7.444  -9.538   1.196  0.00  0.00    -0.590 N 
ATOM     17  C   LIG    1       -7.678 -10.012   2.569  0.00  0.00    +0.260 C 
ATOM     18  C   LIG    1       -9.193 -10.182   2.766  0.00  0.00    +0.230 C 
ATOM     19  O   LIG    1       -9.713 -11.000   1.715  0.00  0.00    -0.370 OA
ATOM     20  C   LIG    1       -9.568 -10.438   0.409  0.00  0.00    +0.230 C 
ATOM     21  C   LIG    1       -8.076 -10.277   0.092  0.00  0.00    +0.300 C 
ENDBRANCH  13  16
ENDBRANCH   6   9
ENDBRANCH   5   6
ENDBRANCH   1   5
BRANCH   2  22
ATOM     22  C   LIG    1       -3.870  -0.201  -0.081  0.00  0.00    +0.320 C 
BRANCH  22  23
ATOM     23  C   LIG    1       -4.684   1.055   0.096  0.00  0.00    -0.090 A 
ATOM     24  C   LIG    1       -5.253   1.670  -1.003  0.00  0.00    +0.050 A 
ATOM     25  C   LIG    1       -5.994   2.826  -0.841  0.00  0.00    +0.060 A 
ATOM     26  C   LIG    1       -6.171   3.363   0.420  0.00  0.00    +0.040 A 
ATOM     27  C   LIG    1       -5.606   2.745   1.520  0.00  0.00    +0.050 A 
ATOM     28  C   LIG    1       -4.865   1.589   1.359  0.00  0.00    -0.140 A 
BRANCH  28  29
ATOM     29  C   LIG    1       -4.249   0.916   2.558  0.00  0.00    +0.320 C 
BRANCH  29  30
ATOM     30  N   LIG    1       -5.112  -0.189   2.996  0.00  0.00    -0.380 N 
ATOM     31  C   LIG    1       -4.448  -0.929   4.076  0.00  0.00    +0.250 C 
ATOM     32  C   LIG    1       -5.307  -2.129   4.481  0.00  0.00    -0.020 C 
ATOM     33  C   LIG    1       -6.672  -1.632   4.965  0.00  0.00    +0.040 C 
ATOM     34  C   LIG    1       -7.324  -0.800   3.857  0.00  0.00    -0.020 C 
ATOM     35  C   LIG    1       -8.654  -0.234   4.358  0.00  0.00    +0.070 C 
ATOM     36  C   LIG    1       -4.614  -2.897   5.607  0.00  0.00    +0.070 C 
ATOM     37  C   LIG    1       -6.390   0.351   3.475  0.00  0.00    +0.250 C 
ATOM     38  H   LIG    1       -5.281  -0.810   2.219  0.00  0.00    +0.410 HD
ENDBRANCH  29  30
ENDBRANCH  28  29
ENDBRANCH  22  23
ENDBRANCH   2  22
TORSDOF 8
