REMARK  Name = ZINCrH000004p0yL.0
REMARK                            x       y       z     vdW  Elec       q    Type
REMARK                         _______ _______ _______ _____ _____    ______ ____
ROOT
ATOM      1  S   LIG    1        2.497  -3.404  -1.746  0.00  0.00    +2.440 S 
ATOM      2  O   LIG    1        2.969  -2.218  -2.369  0.00  0.00    -0.890 OA
ATOM      3  O   LIG    1        1.421  -4.119  -2.339  0.00  0.00    -0.920 OA
ENDROOT
BRANCH   1   5
ATOM      4  C   LIG    1        4.963  -3.872  -0.659  0.00  0.00    +0.130 C 
ATOM      5  C   LIG    1        3.894  -4.539  -1.528  0.00  0.00    -0.460 C 
BRANCH   5   6
ATOM      6  C   LIG    1        4.481  -4.879  -2.874  0.00  0.00    +0.550 C 
ATOM      7  N   LIG    1        5.229  -5.990  -3.022  0.00  0.00    -0.540 N 
ATOM      8  C   LIG    1        5.455  -6.996  -1.981  0.00  0.00    +0.270 C 
ATOM      9  C   LIG    1        6.359  -8.055  -2.632  0.00  0.00    +0.100 C 
ATOM     10  C   LIG    1        6.592  -7.544  -4.037  0.00  0.00    -0.130 A 
ATOM     11  C   LIG    1        7.328  -8.070  -5.081  0.00  0.00    +0.050 A 
ATOM     12  C   LIG    1        7.388  -7.404  -6.292  0.00  0.00    +0.000 A 
ATOM     13  C   LIG    1        6.711  -6.210  -6.455  0.00  0.00    +0.040 A 
ATOM     14  C   LIG    1        5.975  -5.682  -5.415  0.00  0.00    +0.010 A 
ATOM     15  C   LIG    1        5.909  -6.348  -4.190  0.00  0.00    +0.140 A 
ATOM     16  O   LIG    1        4.279  -4.152  -3.824  0.00  0.00    -0.500 OA
ENDBRANCH   5   6
ENDBRANCH   1   5
BRANCH   1  17
ATOM     17  C   LIG    1        2.056  -3.018  -0.029  0.00  0.00    -0.230 C 
BRANCH  17  18
ATOM     18  C   LIG    1        0.888  -2.066  -0.012  0.00  0.00    +0.070 A 
ATOM     19  C   LIG    1       -0.377  -2.496   0.010  0.00  0.00    -0.040 A 
ATOM     20  S   LIG    1       -1.439  -1.089   0.024  0.00  0.00    +0.150 S 
ATOM     21  C   LIG    1       -0.030  -0.031  -0.002  0.00  0.00    +0.150 A 
ATOM     22  N   LIG    1        1.050  -0.762  -0.024  0.00  0.00    -0.450 NA
BRANCH  21  23
ATOM     23  C   LIG    1       -0.067   1.440  -0.006  0.00  0.00    -0.150 A 
ATOM     24  C   LIG    1       -1.188   2.192   0.005  0.00  0.00    +0.040 A 
ATOM     25  C   LIG    1       -0.968   3.553   0.003  0.00  0.00    +0.010 A 
ATOM     26  C   LIG    1        0.317   3.919  -0.020  0.00  0.00    -0.040 A 
ATOM     27  S   LIG    1        1.343   2.491  -0.033  0.00  0.00    +0.200 S 
ENDBRANCH  21  23
ENDBRANCH  17  18
ENDBRANCH   1  17
TORSDOF 5
