REMARK  Name = ZINCpe000000XXR3.0
REMARK                            x       y       z     vdW  Elec       q    Type
REMARK                         _______ _______ _______ _____ _____    ______ ____
ROOT
ATOM      1  N   LIG    1        1.922   4.013  -1.576  0.00  0.00    -0.990 NA
ATOM      2  C   LIG    1        3.188   3.833  -2.301  0.00  0.00    +0.310 C 
ATOM      3  C   LIG    1        2.889   3.103  -3.620  0.00  0.00    +0.170 C 
ATOM      4  N   LIG    1        1.851   3.839  -4.356  0.00  0.00    -0.530 NA
ATOM      5  C   LIG    1        0.586   3.865  -3.610  0.00  0.00    +0.180 C 
ATOM      6  C   LIG    1        0.790   4.620  -2.292  0.00  0.00    +0.320 C 
ENDROOT
BRANCH   1   7
ATOM      7  S   LIG    1        1.776   3.551   0.008  0.00  0.00    +2.710 S 
ATOM      8  O   LIG    1        3.092   3.541   0.545  0.00  0.00    -0.950 OA
ATOM      9  O   LIG    1        0.719   4.326   0.556  0.00  0.00    -0.930 OA
BRANCH   7  12
ATOM     10  C   LIG    1       -1.282   2.353   0.021  0.00  0.00    +0.130 C 
ATOM     11  C   LIG    1       -0.066   1.464   0.022  0.00  0.00    -0.110 A 
ATOM     12  C   LIG    1        1.223   1.878   0.015  0.00  0.00    -0.500 A 
ATOM     13  N   LIG    1        2.008   0.781   0.012  0.00  0.00    -0.310 N 
ATOM     14  N   LIG    1        1.174  -0.345   0.019  0.00  0.00    -0.250 NA
ATOM     15  C   LIG    1        3.473   0.769   0.005  0.00  0.00    +0.360 C 
ATOM     16  C   LIG    1       -0.068   0.066   0.025  0.00  0.00    +0.220 A 
ENDBRANCH   7  12
ENDBRANCH   1   7
BRANCH   4  17
ATOM     17  C   LIG    1        1.659   3.275  -5.699  0.00  0.00    +0.300 C 
BRANCH  17  18
ATOM     18  C   LIG    1        2.991   3.175  -6.397  0.00  0.00    +0.230 A 
ATOM     19  N   LIG    1        3.752   2.116  -6.434  0.00  0.00    -0.480 NA
ATOM     20  C   LIG    1        4.856   2.389  -7.144  0.00  0.00    +0.170 A 
ATOM     21  C   LIG    1        4.779   3.669  -7.558  0.00  0.00    +0.150 A 
ATOM     22  N   LIG    1        3.596   4.168  -7.084  0.00  0.00    -0.500 N 
BRANCH  22  23
ATOM     23  C   LIG    1        3.082   5.525  -7.284  0.00  0.00    +0.640 C 
ATOM     24  F   LIG    1        3.011   6.183  -6.052  0.00  0.00    -0.170 F 
ATOM     25  F   LIG    1        1.806   5.461  -7.854  0.00  0.00    -0.180 F 
ENDBRANCH  22  23
ENDBRANCH  17  18
ENDBRANCH   4  17
TORSDOF 5
