REMARK  Name = ZINCpe000000SBdi.0
REMARK                            x       y       z     vdW  Elec       q    Type
REMARK                         _______ _______ _______ _____ _____    ______ ____
ROOT
ATOM      1  C   LIG    1       -2.869   1.797  -0.028  0.00  0.00    -0.020 C 
ATOM      2  C   LIG    1       -2.208   1.161   1.197  0.00  0.00    +0.050 C 
ATOM      3  C   LIG    1       -0.736   1.583   1.264  0.00  0.00    +0.020 C 
ATOM      4  C   LIG    1       -0.013   1.086   0.008  0.00  0.00    +0.270 C 
ATOM      5  N   LIG    1       -0.729   1.575  -1.178  0.00  0.00    -0.610 N 
ATOM      6  C   LIG    1       -0.078   2.260  -2.139  0.00  0.00    +0.520 C 
ATOM      7  O   LIG    1       -0.680   2.659  -3.113  0.00  0.00    -0.530 OA
ATOM      8  C   LIG    1       -2.168   1.303  -1.297  0.00  0.00    +0.290 C 
ENDROOT
BRANCH   1  11
ATOM      9  N   LIG    1       -5.110   1.853  -1.074  0.00  0.00    -0.730 N 
ATOM     10  H   LIG    1       -4.739   2.424  -1.765  0.00  0.00    +0.410 HD
ATOM     11  C   LIG    1       -4.324   1.408  -0.074  0.00  0.00    +0.520 C 
ATOM     12  O   LIG    1       -4.788   0.694   0.790  0.00  0.00    -0.530 OA
BRANCH   9  13
ATOM     13  C   LIG    1       -6.525   1.474  -1.119  0.00  0.00    +0.270 C 
BRANCH  13  14
ATOM     14  C   LIG    1       -7.184   2.107  -2.345  0.00  0.00    +0.270 C 
BRANCH  14  17
ATOM     15  C   LIG    1      -10.839   1.783  -3.436  0.00  0.00    +0.110 C 
ATOM     16  C   LIG    1       -9.384   2.173  -3.390  0.00  0.00    +0.510 C 
ATOM     17  N   LIG    1       -8.598   1.728  -2.390  0.00  0.00    -0.730 N 
ATOM     18  H   LIG    1       -8.970   1.157  -1.699  0.00  0.00    +0.400 HD
ATOM     19  O   LIG    1       -8.920   2.887  -4.254  0.00  0.00    -0.540 OA
ENDBRANCH  14  17
ENDBRANCH  13  14
ENDBRANCH   9  13
ENDBRANCH   1  11
BRANCH   6  20
ATOM     20  C   LIG    1        1.398   2.531  -2.003  0.00  0.00    +0.120 C 
BRANCH  20  21
ATOM     21  C   LIG    1        1.879   3.308  -3.201  0.00  0.00    -0.080 A 
ATOM     22  C   LIG    1        2.345   2.639  -4.317  0.00  0.00    +0.050 A 
ATOM     23  C   LIG    1        2.781   3.350  -5.419  0.00  0.00    -0.010 A 
ATOM     24  C   LIG    1        2.762   4.734  -5.400  0.00  0.00    +0.100 A 
ATOM     25  C   LIG    1        2.300   5.404  -4.280  0.00  0.00    -0.010 A 
ATOM     26  F   LIG    1        3.194   5.431  -6.474  0.00  0.00    -0.140 F 
ATOM     27  C   LIG    1        1.859   4.691  -3.182  0.00  0.00    +0.050 A 
ENDBRANCH  20  21
ENDBRANCH   6  20
TORSDOF 6
