REMARK  Name = ZINCqH0000007Oqx.0
REMARK                            x       y       z     vdW  Elec       q    Type
REMARK                         _______ _______ _______ _____ _____    ______ ____
ROOT
ATOM      1  C   LIG    1       -0.456   3.843  -2.151  0.00  0.00    +0.520 C 
ATOM      2  N   LIG    1       -0.879   3.055  -1.143  0.00  0.00    -0.620 N 
ATOM      3  C   LIG    1       -0.755   1.594  -1.232  0.00  0.00    +0.280 C 
ATOM      4  C   LIG    1       -0.013   1.086   0.008  0.00  0.00    +0.040 C 
ATOM      5  C   LIG    1       -0.730   1.580   1.266  0.00  0.00    +0.120 C 
ATOM      6  C   LIG    1       -0.724   3.110   1.292  0.00  0.00    +0.040 C 
ATOM      7  C   LIG    1       -1.474   3.641   0.066  0.00  0.00    +0.280 C 
ATOM      8  O   LIG    1        0.034   3.347  -3.144  0.00  0.00    -0.530 OA
ENDROOT
BRANCH   5   9
ATOM      9  C   LIG    1       -0.022   1.054   2.488  0.00  0.00    +0.250 A 
ATOM     10  N   LIG    1        1.220   1.292   2.786  0.00  0.00    -0.470 NA
ATOM     11  C   LIG    1        1.518   0.663   3.955  0.00  0.00    +0.020 A 
ATOM     12  C   LIG    1        2.672   0.572   4.736  0.00  0.00    +0.080 A 
ATOM     13  C   LIG    1        2.654  -0.170   5.896  0.00  0.00    +0.020 A 
ATOM     14  C   LIG    1        1.498  -0.826   6.292  0.00  0.00    +0.050 A 
ATOM     15  C   LIG    1        0.351  -0.745   5.530  0.00  0.00    +0.050 A 
ATOM     16  C   LIG    1        0.351  -0.002   4.360  0.00  0.00    +0.010 A 
ATOM     17  O   LIG    1       -0.582   0.267   3.420  0.00  0.00    -0.210 OA
ENDBRANCH   5   9
BRANCH   1  18
ATOM     18  C   LIG    1       -0.590   5.340  -2.045  0.00  0.00    +0.120 C 
BRANCH  18  24
ATOM     19  C   LIG    1       -0.856   6.124  -4.412  0.00  0.00    +0.140 A 
ATOM     20  C   LIG    1       -0.353   6.717  -5.561  0.00  0.00    -0.080 A 
ATOM     21  C   LIG    1        0.954   7.166  -5.589  0.00  0.00    +0.040 A 
ATOM     22  C   LIG    1        1.759   7.025  -4.474  0.00  0.00    -0.040 A 
ATOM     23  C   LIG    1        1.257   6.439  -3.326  0.00  0.00    +0.060 A 
ATOM     24  C   LIG    1       -0.046   5.984  -3.294  0.00  0.00    -0.100 A 
BRANCH  19  26
ATOM     25  C   LIG    1       -2.916   5.859  -5.569  0.00  0.00    +0.250 C 
ATOM     26  O   LIG    1       -2.141   5.681  -4.382  0.00  0.00    -0.320 OA
ENDBRANCH  19  26
ENDBRANCH  18  24
ENDBRANCH   1  18
TORSDOF 4
