REMARK  Name = ZINCyk0000000oop.0
REMARK                            x       y       z     vdW  Elec       q    Type
REMARK                         _______ _______ _______ _____ _____    ______ ____
ROOT
ATOM      1  C   LIG    1        0.746   4.340   0.747  0.00  0.00    +0.100 A 
ATOM      2  C   LIG    1       -0.524   3.935   1.145  0.00  0.00    +0.040 A 
ATOM      3  C   LIG    1       -0.727   2.653   1.605  0.00  0.00    +0.090 A 
ATOM      4  C   LIG    1        0.348   1.762   1.682  0.00  0.00    +0.080 A 
ATOM      5  C   LIG    1        1.623   2.172   1.280  0.00  0.00    -0.620 A 
ATOM      6  C   LIG    1        1.817   3.453   0.816  0.00  0.00    +0.130 A 
ENDROOT
BRANCH   1  10
ATOM      7  N   LIG    1        0.958   8.482   0.513  0.00  0.00    -0.390 N 
ATOM      8  C   LIG    1       -0.060   7.793  -0.292  0.00  0.00    +0.270 C 
ATOM      9  C   LIG    1       -0.310   6.399   0.286  0.00  0.00    +0.230 C 
ATOM     10  N   LIG    1        0.946   5.635   0.277  0.00  0.00    -0.480 N 
ATOM     11  C   LIG    1        1.982   6.324   1.058  0.00  0.00    +0.230 C 
ATOM     12  C   LIG    1        2.214   7.720   0.473  0.00  0.00    +0.280 C 
ATOM     13  H   LIG    1        0.640   8.555   1.467  0.00  0.00    +0.430 HD
BRANCH   7  14
ATOM     14  C   LIG    1        1.185   9.827  -0.032  0.00  0.00    +0.290 C 
BRANCH  14  15
ATOM     15  C   LIG    1       -0.077  10.672   0.154  0.00  0.00    +0.200 C 
BRANCH  15  17
ATOM     16  C   LIG    1       -1.512  11.601   1.834  0.00  0.00    +0.240 C 
ATOM     17  O   LIG    1       -0.347  10.824   1.549  0.00  0.00    -0.400 OA
ENDBRANCH  15  17
ENDBRANCH  14  15
ENDBRANCH   7  14
ENDBRANCH   1  10
BRANCH   5  18
ATOM     18  S   LIG    1        2.979   1.051   1.367  0.00  0.00    +2.680 S 
ATOM     19  O   LIG    1        2.858   0.371   2.609  0.00  0.00    -0.930 OA
ATOM     20  O   LIG    1        4.134   1.788   0.994  0.00  0.00    -0.940 OA
BRANCH  18  21
ATOM     21  N   LIG    1        2.749  -0.088   0.187  0.00  0.00    -1.100 NA
ATOM     22  H   LIG    1        2.562  -1.008   0.431  0.00  0.00    +0.430 HD
BRANCH  21  23
ATOM     23  C   LIG    1        2.830   0.294  -1.225  0.00  0.00    +0.260 C 
BRANCH  23  24
ATOM     24  C   LIG    1        1.885  -0.586  -2.046  0.00  0.00    +0.120 C 
BRANCH  24  25
ATOM     25  C   LIG    1        0.461  -0.310  -1.639  0.00  0.00    -0.130 A 
ATOM     26  C   LIG    1       -0.330   0.518  -2.412  0.00  0.00    +0.090 A 
ATOM     27  C   LIG    1       -1.637   0.772  -2.040  0.00  0.00    -0.020 A 
ATOM     28  C   LIG    1       -2.155   0.196  -0.893  0.00  0.00    +0.130 A 
ATOM     29  C   LIG    1       -1.364  -0.634  -0.118  0.00  0.00    -0.050 A 
ATOM     30  F   LIG    1       -3.433   0.444  -0.530  0.00  0.00    -0.130 F 
ATOM     31  C   LIG    1       -0.057  -0.892  -0.494  0.00  0.00    +0.130 A 
ATOM     32  F   LIG    1        0.715  -1.706   0.259  0.00  0.00    -0.120 F 
ENDBRANCH  24  25
ENDBRANCH  23  24
BRANCH  23  33
ATOM     33  C   LIG    1        4.264   0.105  -1.723  0.00  0.00    +0.180 C 
BRANCH  33  34
ATOM     34  O   LIG    1        4.603  -1.282  -1.687  0.00  0.00    -0.570 OA
ATOM     35  H   LIG    1        5.500  -1.476  -1.990  0.00  0.00    +0.390 HD
ENDBRANCH  33  34
ENDBRANCH  23  33
ENDBRANCH  21  23
ENDBRANCH  18  21
ENDBRANCH   5  18
BRANCH   4  36
ATOM     36  C   LIG    1        0.142   0.429   2.165  0.00  0.00    +0.190 C 
ATOM     37  N   LIG    1       -0.021  -0.627   2.548  0.00  0.00    -0.330 NA
ENDBRANCH   4  36
TORSDOF 12
