REMARK  Name = ZINCpk00000eaMSY.0
REMARK                            x       y       z     vdW  Elec       q    Type
REMARK                         _______ _______ _______ _____ _____    ______ ____
ROOT
ATOM      1  C   LIG    1       -1.150  -0.694   0.111  0.00  0.00    +0.510 C 
ATOM      2  N   LIG    1        0.002  -0.004   0.002  0.00  0.00    -0.670 N 
ATOM      3  H   LIG    1        0.845  -0.477  -0.076  0.00  0.00    +0.410 HD
ATOM      4  O   LIG    1       -2.211  -0.106   0.124  0.00  0.00    -0.510 OA
ENDROOT
BRANCH   2   5
ATOM      5  C   LIG    1       -0.018   1.397   0.002  0.00  0.00    +0.120 A 
ATOM      6  C   LIG    1       -1.069   2.077  -0.599  0.00  0.00    +0.050 A 
ATOM      7  C   LIG    1       -1.091   3.457  -0.595  0.00  0.00    -0.020 A 
ATOM      8  C   LIG    1       -0.056   4.166   0.001  0.00  0.00    +0.100 A 
ATOM      9  C   LIG    1        0.998   3.487   0.597  0.00  0.00    +0.010 A 
ATOM     10  C   LIG    1        1.017   2.106   0.598  0.00  0.00    +0.010 A 
BRANCH   8  11
ATOM     11  N   LIG    1       -0.076   5.565   0.001  0.00  0.00    -0.490 N 
ATOM     12  C   LIG    1        0.010   6.093   1.370  0.00  0.00    +0.160 C 
ATOM     13  C   LIG    1        0.045   7.623   1.319  0.00  0.00    +0.220 C 
ATOM     14  O   LIG    1       -1.112   8.099   0.627  0.00  0.00    -0.380 OA
ATOM     15  C   LIG    1       -1.227   7.605  -0.710  0.00  0.00    +0.220 C 
ATOM     16  C   LIG    1       -1.275   6.075  -0.680  0.00  0.00    +0.160 C 
ENDBRANCH   8  11
ENDBRANCH   2   5
BRANCH   1  18
ATOM     17  C   LIG    1       -0.456  -2.783  -1.031  0.00  0.00    +0.060 C 
ATOM     18  C   LIG    1       -1.121  -2.197   0.216  0.00  0.00    +0.150 C 
BRANCH  18  19
ATOM     19  N   LIG    1       -2.495  -2.707   0.324  0.00  0.00    -0.670 NA
ATOM     20  H   LIG    1       -3.091  -2.043   0.796  0.00  0.00    +0.360 HD
BRANCH  19  21
ATOM     21  C   LIG    1       -2.521  -4.011   1.000  0.00  0.00    +0.270 C 
BRANCH  21  22
ATOM     22  C   LIG    1       -3.943  -4.501   1.091  0.00  0.00    +0.070 A 
ATOM     23  C   LIG    1       -4.445  -5.362   0.129  0.00  0.00    +0.050 A 
ATOM     24  C   LIG    1       -5.761  -5.787   0.256  0.00  0.00    +0.030 A 
ATOM     25  C   LIG    1       -6.492  -5.323   1.339  0.00  0.00    +0.210 A 
ATOM     26  N   LIG    1       -5.930  -4.504   2.208  0.00  0.00    -0.240 NA
ATOM     27  N   LIG    1       -4.712  -4.116   2.092  0.00  0.00    -0.240 NA
ENDBRANCH  21  22
ENDBRANCH  19  21
ENDBRANCH  18  19
ENDBRANCH   1  18
TORSDOF 6
