REMARK  Name = ZINCb80000002Be5.0
REMARK                            x       y       z     vdW  Elec       q    Type
REMARK                         _______ _______ _______ _____ _____    ______ ____
ROOT
ATOM      1  C   LIG    1        2.400   0.031  -0.021  0.00  0.00    +0.220 A 
ATOM      2  C   LIG    1        2.377   1.420  -0.013  0.00  0.00    -0.080 A 
ATOM      3  C   LIG    1        1.169   2.090   0.002  0.00  0.00    +0.050 A 
ATOM      4  C   LIG    1       -0.017   1.379   0.010  0.00  0.00    -0.050 A 
ATOM      5  C   LIG    1        0.002  -0.004   0.002  0.00  0.00    -0.070 A 
ATOM      6  C   LIG    1        1.206  -0.680  -0.013  0.00  0.00    -0.070 A 
ENDROOT
BRANCH   1   7
ATOM      7  N   LIG    1        3.620  -0.649  -0.037  0.00  0.00    -0.880 N 
ATOM      8  H   LIG    1        4.452  -0.151  -0.042  0.00  0.00    +0.400 HD
ATOM      9  H   LIG    1        3.634  -1.619  -0.042  0.00  0.00    +0.400 HD
ENDBRANCH   1   7
BRANCH   5  10
ATOM     10  C   LIG    1       -1.293  -0.774   0.011  0.00  0.00    +0.260 C 
BRANCH  10  11
ATOM     11  O   LIG    1       -2.259  -0.073   0.797  0.00  0.00    -0.550 OA
ATOM     12  H   LIG    1       -2.458   0.816   0.474  0.00  0.00    +0.370 HD
ENDBRANCH  10  11
BRANCH  10  13
ATOM     13  C   LIG    1       -1.810  -0.919  -1.422  0.00  0.00    +0.160 C 
BRANCH  13  14
ATOM     14  O   LIG    1       -2.974  -1.748  -1.427  0.00  0.00    -0.560 OA
ATOM     15  H   LIG    1       -3.357  -1.883  -2.304  0.00  0.00    +0.380 HD
ENDBRANCH  13  14
ENDBRANCH  10  13
ENDBRANCH   5  10
TORSDOF 5
