REMARK  Name = ZINCkj00000GePfe.0
REMARK                            x       y       z     vdW  Elec       q    Type
REMARK                         _______ _______ _______ _____ _____    ______ ____
ROOT
ATOM      1  C   LIG    1       -0.013   1.086   0.008  0.00  0.00    -0.020 C 
ATOM      2  C   LIG    1       -0.732   1.581   1.266  0.00  0.00    +0.030 C 
ATOM      3  C   LIG    1       -2.185   1.096   1.239  0.00  0.00    +0.220 C 
ATOM      4  N   LIG    1       -2.852   1.610   0.036  0.00  0.00    -0.460 N 
ATOM      5  C   LIG    1       -2.207   1.109  -1.184  0.00  0.00    +0.230 C 
ATOM      6  C   LIG    1       -0.756   1.594  -1.230  0.00  0.00    +0.070 C 
ENDROOT
BRANCH   4   7
ATOM      7  C   LIG    1       -4.201   1.299   0.047  0.00  0.00    +0.480 A 
ATOM      8  N   LIG    1       -4.720   0.637  -0.977  0.00  0.00    -0.550 NA
ATOM      9  C   LIG    1       -6.004   0.320  -0.995  0.00  0.00    +0.350 A 
ATOM     10  C   LIG    1       -6.810   0.698   0.067  0.00  0.00    -0.100 A 
ATOM     11  C   LIG    1       -6.235   1.395   1.119  0.00  0.00    +0.360 A 
ATOM     12  N   LIG    1       -4.944   1.676   1.078  0.00  0.00    -0.530 NA
ENDBRANCH   4   7
BRANCH   1  13
ATOM     13  C   LIG    1        1.422   1.617  -0.003  0.00  0.00    +0.260 C 
BRANCH  13  14
ATOM     14  N   LIG    1        2.168   1.036   1.121  0.00  0.00    -0.390 N 
ATOM     15  C   LIG    1        2.289  -0.416   0.931  0.00  0.00    +0.300 C 
ATOM     16  H   LIG    1        1.677   1.222   1.983  0.00  0.00    +0.420 HD
BRANCH  14  17
ATOM     17  C   LIG    1        3.508   1.635   1.183  0.00  0.00    +0.260 C 
BRANCH  17  18
ATOM     18  C   LIG    1        4.239   1.123   2.425  0.00  0.00    +0.050 C 
BRANCH  18  20
ATOM     19  C   LIG    1        6.411   1.142   3.660  0.00  0.00    +0.020 C 
ATOM     20  C   LIG    1        5.635   1.747   2.489  0.00  0.00    +0.180 C 
BRANCH  20  21
ATOM     21  O   LIG    1        5.517   3.159   2.674  0.00  0.00    -0.570 OA
ATOM     22  H   LIG    1        6.365   3.621   2.724  0.00  0.00    +0.400 HD
ENDBRANCH  20  21
ENDBRANCH  18  20
ENDBRANCH  17  18
ENDBRANCH  14  17
ENDBRANCH  13  14
ENDBRANCH   1  13
TORSDOF 7
