REMARK  Name = ZINCkj00000GePfe.1
REMARK                            x       y       z     vdW  Elec       q    Type
REMARK                         _______ _______ _______ _____ _____    ______ ____
ROOT
ATOM      1  C   LIG    1       -4.756   1.129   4.006  0.00  0.00    -0.020 C 
ATOM      2  C   LIG    1       -3.904   0.627   5.176  0.00  0.00    +0.030 C 
ATOM      3  C   LIG    1       -4.600   0.976   6.493  0.00  0.00    +0.220 C 
ATOM      4  N   LIG    1       -5.929   0.353   6.528  0.00  0.00    -0.460 N 
ATOM      5  C   LIG    1       -6.780   0.856   5.442  0.00  0.00    +0.230 C 
ATOM      6  C   LIG    1       -6.150   0.503   4.093  0.00  0.00    +0.070 C 
ENDROOT
BRANCH   4   7
ATOM      7  C   LIG    1       -6.533   0.540   7.759  0.00  0.00    +0.480 A 
ATOM      8  N   LIG    1       -7.724   1.117   7.813  0.00  0.00    -0.550 NA
ATOM      9  C   LIG    1       -8.332   1.306   8.973  0.00  0.00    +0.350 A 
ATOM     10  C   LIG    1       -7.702   0.903  10.140  0.00  0.00    -0.100 A 
ATOM     11  C   LIG    1       -6.453   0.307  10.047  0.00  0.00    +0.360 A 
ATOM     12  N   LIG    1       -5.904   0.143   8.855  0.00  0.00    -0.530 NA
ENDBRANCH   4   7
BRANCH   1  13
ATOM     13  C   LIG    1       -4.096   0.729   2.685  0.00  0.00    +0.260 C 
BRANCH  13  14
ATOM     14  N   LIG    1       -2.809   1.424   2.550  0.00  0.00    -0.390 N 
ATOM     15  C   LIG    1       -3.042   2.870   2.446  0.00  0.00    +0.300 C 
ATOM     16  H   LIG    1       -2.237   1.232   3.359  0.00  0.00    +0.420 HD
BRANCH  14  17
ATOM     17  C   LIG    1       -2.121   0.950   1.341  0.00  0.00    +0.260 C 
BRANCH  17  18
ATOM     18  C   LIG    1       -0.729   1.579   1.267  0.00  0.00    +0.010 C 
BRANCH  18  20
ATOM     19  C   LIG    1        1.423   1.615  -0.003  0.00  0.00    +0.020 C 
ATOM     20  C   LIG    1       -0.013   1.086   0.008  0.00  0.00    +0.220 C 
BRANCH  20  21
ATOM     21  O   LIG    1       -0.704   1.559  -1.150  0.00  0.00    -0.560 OA
ATOM     22  H   LIG    1       -0.756   2.523  -1.210  0.00  0.00    +0.380 HD
ENDBRANCH  20  21
ENDBRANCH  18  20
ENDBRANCH  17  18
ENDBRANCH  14  17
ENDBRANCH  13  14
ENDBRANCH   1  13
TORSDOF 7
