REMARK  Name = ZINCpk000000nPJL.0
REMARK                            x       y       z     vdW  Elec       q    Type
REMARK                         _______ _______ _______ _____ _____    ______ ____
ROOT
ATOM      1  C   LIG    1       -3.679   2.055   0.045  0.00  0.00    -0.100 A 
ATOM      2  C   LIG    1       -3.622   3.441   0.052  0.00  0.00    +0.090 A 
ATOM      3  C   LIG    1       -2.409   4.096   0.045  0.00  0.00    -0.020 A 
ATOM      4  C   LIG    1       -1.231   3.362   0.031  0.00  0.00    +0.170 A 
ATOM      5  N   LIG    1        0.009   3.968   0.023  0.00  0.00    -0.620 N 
ATOM      6  H   LIG    1        0.072   4.936   0.027  0.00  0.00    +0.420 HD
ATOM      7  C   LIG    1        1.131   3.227   0.009  0.00  0.00    +0.460 A 
ATOM      8  N   LIG    1        1.131   1.923   0.002  0.00  0.00    -0.580 NA
ATOM      9  C   LIG    1       -0.015   1.215   0.009  0.00  0.00    +0.540 A 
ATOM     10  O   LIG    1        0.002  -0.004   0.002  0.00  0.00    -0.480 OA
ATOM     11  C   LIG    1       -1.288   1.956   0.019  0.00  0.00    -0.210 A 
ATOM     12  C   LIG    1       -2.521   1.308   0.032  0.00  0.00    +0.120 A 
ENDROOT
BRANCH   1  14
ATOM     13  C   LIG    1       -5.790   1.760   1.312  0.00  0.00    +0.030 C 
ATOM     14  C   LIG    1       -5.017   1.361   0.054  0.00  0.00    +0.020 C 
ATOM     15  C   LIG    1       -5.813   1.773  -1.186  0.00  0.00    +0.030 C 
ENDBRANCH   1  14
BRANCH   7  16
ATOM     16  C   LIG    1        2.458   3.941  -0.000  0.00  0.00    +0.240 C 
BRANCH  16  17
ATOM     17  C   LIG    1        3.574   2.928  -0.016  0.00  0.00    +0.460 A 
ATOM     18  N   LIG    1        4.050   2.491  -1.169  0.00  0.00    -0.620 NA
ATOM     19  C   LIG    1        5.036   1.596  -1.187  0.00  0.00    +0.630 A 
ATOM     20  N   LIG    1        5.540   1.142  -0.045  0.00  0.00    -0.650 NA
ATOM     21  C   LIG    1        5.058   1.584   1.112  0.00  0.00    +0.640 A 
ATOM     22  N   LIG    1        4.076   2.483   1.122  0.00  0.00    -0.630 NA
BRANCH  21  23
ATOM     23  N   LIG    1        5.578   1.116   2.301  0.00  0.00    -0.810 N 
ATOM     24  H   LIG    1        5.226   1.439   3.145  0.00  0.00    +0.420 HD
ATOM     25  H   LIG    1        6.296   0.464   2.293  0.00  0.00    +0.420 HD
ENDBRANCH  21  23
BRANCH  19  26
ATOM     26  N   LIG    1        5.533   1.141  -2.391  0.00  0.00    -0.580 N 
ATOM     27  C   LIG    1        6.618   0.156  -2.410  0.00  0.00    +0.300 C 
ATOM     28  C   LIG    1        4.977   1.642  -3.650  0.00  0.00    +0.300 C 
ENDBRANCH  19  26
ENDBRANCH  16  17
ENDBRANCH   7  16
TORSDOF 5
