REMARK  Name = ZINCtV00001bB3Ep.0
REMARK                            x       y       z     vdW  Elec       q    Type
REMARK                         _______ _______ _______ _____ _____    ______ ____
ROOT
ATOM      1  O   LIG    1        2.215   1.665  -1.419  0.00  0.00    -0.460 OA
ATOM      2  C   LIG    1        3.309   2.195  -1.449  0.00  0.00    +0.590 C 
ATOM      3  N   LIG    1        3.436   3.496  -1.121  0.00  0.00    -0.470 N 
ATOM      4  N   LIG    1        2.429   4.319  -0.601  0.00  0.00    -0.180 NA
ATOM      5  C   LIG    1        2.868   5.455  -0.169  0.00  0.00    +0.110 C 
ATOM      6  C   LIG    1        2.141   6.606   0.210  0.00  0.00    -0.070 C 
ATOM      7  C   LIG    1        2.817   7.938   0.330  0.00  0.00    +0.090 C 
ATOM      8  C   LIG    1        4.323   7.887   0.172  0.00  0.00    +0.020 C 
ATOM      9  C   LIG    1        4.793   6.812  -0.806  0.00  0.00    +0.050 C 
ATOM     10  C   LIG    1        0.816   6.504   0.467  0.00  0.00    +0.110 C 
ATOM     11  C   LIG    1        4.389   5.446  -0.246  0.00  0.00    +0.020 C 
ATOM     12  C   LIG    1        4.663   4.315  -1.252  0.00  0.00    +0.290 C 
ENDROOT
BRANCH   2  13
ATOM     13  C   LIG    1        4.498   1.414  -1.845  0.00  0.00    -0.170 A 
ATOM     14  C   LIG    1        5.674   2.061  -2.243  0.00  0.00    +0.110 A 
ATOM     15  C   LIG    1        6.761   1.283  -2.604  0.00  0.00    -0.030 A 
ATOM     16  C   LIG    1        6.652  -0.095  -2.561  0.00  0.00    +0.320 A 
ATOM     17  N   LIG    1        5.530  -0.679  -2.182  0.00  0.00    -0.480 NA
ATOM     18  C   LIG    1        4.468   0.017  -1.829  0.00  0.00    +0.230 A 
ATOM     19 CL   LIG    1        3.021  -0.808  -1.341  0.00  0.00    +0.010 Cl
ENDBRANCH   2  13
BRANCH  10  20
ATOM     20  C   LIG    1        0.186   5.187   0.549  0.00  0.00    -0.180 A 
ATOM     21  C   LIG    1       -1.050   4.870   0.060  0.00  0.00    +0.040 A 
ATOM     22  C   LIG    1       -1.419   3.559   0.258  0.00  0.00    -0.010 A 
ATOM     23  C   LIG    1       -0.522   2.804   0.903  0.00  0.00    -0.040 A 
ATOM     24  S   LIG    1        0.897   3.764   1.299  0.00  0.00    +0.170 S 
ENDBRANCH  10  20
BRANCH  12  25
ATOM     25  C   LIG    1        4.803   4.858  -2.650  0.00  0.00    -0.210 A 
ATOM     26  C   LIG    1        5.951   4.969  -3.321  0.00  0.00    +0.020 A 
ATOM     27  C   LIG    1        5.833   5.497  -4.595  0.00  0.00    +0.000 A 
ATOM     28  C   LIG    1        4.590   5.816  -4.959  0.00  0.00    -0.040 A 
ATOM     29  S   LIG    1        3.477   5.436  -3.651  0.00  0.00    +0.150 S 
ENDBRANCH  12  25
TORSDOF 3
