REMARK  Name = ZINCrg000000qWPn.0
REMARK                            x       y       z     vdW  Elec       q    Type
REMARK                         _______ _______ _______ _____ _____    ______ ____
ROOT
ATOM      1  C   LIG    1        0.855   3.680  -0.070  0.00  0.00    -0.080 A 
ATOM      2  C   LIG    1       -0.405   4.214   0.207  0.00  0.00    +0.030 A 
ATOM      3  C   LIG    1       -0.565   5.581   0.306  0.00  0.00    +0.130 A 
ATOM      4  C   LIG    1        0.517   6.423   0.120  0.00  0.00    -0.660 A 
ATOM      5  C   LIG    1        1.767   5.900  -0.162  0.00  0.00    +0.130 A 
ATOM      6  C   LIG    1        1.942   4.535  -0.258  0.00  0.00    +0.070 A 
ENDROOT
BRANCH   1   9
ATOM      7  N   LIG    1       -0.017   1.394   0.010  0.00  0.00    -0.670 N 
ATOM      8  H   LIG    1       -0.906   1.763   0.126  0.00  0.00    +0.410 HD
ATOM      9  C   LIG    1        1.035   2.217  -0.172  0.00  0.00    +0.550 C 
ATOM     10  O   LIG    1        2.132   1.755  -0.418  0.00  0.00    -0.500 OA
BRANCH   7  15
ATOM     11  C   LIG    1        1.532  -1.900   0.547  0.00  0.00    +0.150 A 
ATOM     12  C   LIG    1        0.543  -2.737   0.050  0.00  0.00    -0.090 A 
ATOM     13  C   LIG    1       -0.626  -2.202  -0.458  0.00  0.00    +0.070 A 
ATOM     14  C   LIG    1       -0.816  -0.834  -0.468  0.00  0.00    -0.050 A 
ATOM     15  C   LIG    1        0.173   0.009   0.024  0.00  0.00    +0.180 A 
ATOM     16  C   LIG    1        1.348  -0.526   0.534  0.00  0.00    -0.020 A 
BRANCH  11  18
ATOM     17  C   LIG    1        2.803  -3.851   1.028  0.00  0.00    +0.250 C 
ATOM     18  O   LIG    1        2.681  -2.427   1.046  0.00  0.00    -0.310 OA
ENDBRANCH  11  18
ENDBRANCH   7  15
ENDBRANCH   1   9
BRANCH   4  19
ATOM     19  S   LIG    1        0.303   8.167   0.242  0.00  0.00    +2.690 S 
ATOM     20  O   LIG    1        1.578   8.707   0.559  0.00  0.00    -0.940 OA
ATOM     21  O   LIG    1       -0.851   8.374   1.046  0.00  0.00    -0.940 OA
BRANCH  19  22
ATOM     22  N   LIG    1       -0.077   8.721  -1.272  0.00  0.00    -1.000 NA
ATOM     23  C   LIG    1       -1.475   8.810  -1.727  0.00  0.00    +0.300 C 
ATOM     24  C   LIG    1       -1.785  10.277  -2.032  0.00  0.00    +0.280 C 
ATOM     25  N   LIG    1       -0.723  10.875  -2.828  0.00  0.00    -0.720 N 
ATOM     26  H   LIG    1       -0.940  11.666  -3.348  0.00  0.00    +0.400 HD
ATOM     27  C   LIG    1        0.526  10.413  -2.895  0.00  0.00    +0.520 C 
ATOM     28  O   LIG    1        1.343  11.043  -3.532  0.00  0.00    -0.540 OA
ATOM     29  C   LIG    1        0.968   9.150  -2.214  0.00  0.00    +0.340 C 
ENDBRANCH  19  22
ENDBRANCH   4  19
TORSDOF 5
