REMARK  Name = ZINCpk000000oJUS.0
REMARK                            x       y       z     vdW  Elec       q    Type
REMARK                         _______ _______ _______ _____ _____    ______ ____
ROOT
ATOM      1  C   LIG    1       -3.830   6.920  -4.285  0.00  0.00    +0.520 C 
ATOM      2  N   LIG    1       -3.657   5.779  -3.589  0.00  0.00    -0.610 N 
ATOM      3  C   LIG    1       -4.760   5.205  -2.807  0.00  0.00    +0.290 C 
ATOM      4  C   LIG    1       -4.281   4.983  -1.369  0.00  0.00    +0.050 C 
ATOM      5  C   LIG    1       -3.011   4.129  -1.385  0.00  0.00    +0.140 C 
ATOM      6  C   LIG    1       -1.910   4.864  -2.153  0.00  0.00    -0.010 C 
ATOM      7  C   LIG    1       -2.362   5.085  -3.600  0.00  0.00    +0.280 C 
ATOM      8  O   LIG    1       -4.927   7.433  -4.345  0.00  0.00    -0.510 OA
ENDROOT
BRANCH   1  14
ATOM      9  N   LIG    1       -2.906   9.001  -5.140  0.00  0.00    -0.510 NA
ATOM     10  C   LIG    1       -1.795   9.647  -5.853  0.00  0.00    +0.150 C 
ATOM     11  C   LIG    1       -1.629   8.993  -7.228  0.00  0.00    +0.220 C 
ATOM     12  O   LIG    1       -1.420   7.588  -7.059  0.00  0.00    -0.380 OA
ATOM     13  C   LIG    1       -2.483   6.926  -6.369  0.00  0.00    +0.250 C 
ATOM     14  C   LIG    1       -2.659   7.560  -4.986  0.00  0.00    +0.100 C 
BRANCH   9  16
ATOM     15  C   LIG    1       -3.142  11.158  -4.006  0.00  0.00    +0.040 C 
ATOM     16  C   LIG    1       -3.137   9.638  -3.837  0.00  0.00    +0.170 C 
ENDBRANCH   9  16
ENDBRANCH   1  14
BRANCH   5  17
ATOM     17  O   LIG    1       -3.284   2.880  -2.023  0.00  0.00    -0.550 OA
ATOM     18  H   LIG    1       -2.523   2.287  -2.069  0.00  0.00    +0.380 HD
ENDBRANCH   5  17
BRANCH   5  19
ATOM     19  C   LIG    1       -2.548   3.876   0.052  0.00  0.00    +0.070 C 
BRANCH  19  20
ATOM     20  C   LIG    1       -1.233   3.141   0.034  0.00  0.00    -0.060 A 
ATOM     21  C   LIG    1       -1.214   1.759   0.024  0.00  0.00    +0.000 A 
ATOM     22  C   LIG    1       -0.008   1.083   0.013  0.00  0.00    +0.060 A 
ATOM     23  C   LIG    1        1.180   1.789   0.001  0.00  0.00    -0.020 A 
ATOM     24  C   LIG    1        1.162   3.173   0.005  0.00  0.00    +0.100 A 
ATOM     25  F   LIG    1        2.323   3.864  -0.006  0.00  0.00    -0.140 F 
ATOM     26  C   LIG    1       -0.046   3.849   0.022  0.00  0.00    -0.020 A 
ENDBRANCH  19  20
ENDBRANCH   5  19
TORSDOF 5
