REMARK  Name = ZINCtV00000L6kp0.0
REMARK                            x       y       z     vdW  Elec       q    Type
REMARK                         _______ _______ _______ _____ _____    ______ ____
ROOT
ATOM      1  C   LIG    1       -1.808  -1.871   0.010  0.00  0.00    +0.180 C 
ATOM      2  C   LIG    1       -1.345  -0.436   0.013  0.00  0.00    +0.130 A 
ATOM      3  N   LIG    1       -2.118   0.611   0.026  0.00  0.00    -0.220 NA
ATOM      4  N   LIG    1       -1.339   1.775   0.030  0.00  0.00    -0.340 N 
ATOM      5  C   LIG    1       -0.017   1.405   0.010  0.00  0.00    +0.330 A 
ATOM      6  N   LIG    1        1.119   2.087   0.003  0.00  0.00    -0.470 NA
ATOM      7  C   LIG    1        2.294   1.472  -0.011  0.00  0.00    +0.280 A 
ATOM      8  C   LIG    1        2.380   0.073  -0.019  0.00  0.00    +0.010 A 
ATOM      9  C   LIG    1        1.236  -0.674  -0.013  0.00  0.00    -0.050 A 
ATOM     10  C   LIG    1        0.002  -0.004   0.002  0.00  0.00    -0.180 A 
ENDROOT
BRANCH   4  11
ATOM     11  C   LIG    1       -1.825   3.088   0.044  0.00  0.00    +0.220 A 
ATOM     12  C   LIG    1       -0.939   4.157   0.038  0.00  0.00    +0.020 A 
ATOM     13  C   LIG    1       -1.421   5.452   0.051  0.00  0.00    +0.080 A 
ATOM     14  C   LIG    1       -2.784   5.683   0.071  0.00  0.00    +0.010 A 
ATOM     15  C   LIG    1       -3.669   4.620   0.077  0.00  0.00    +0.100 A 
ATOM     16  C   LIG    1       -3.193   3.324   0.058  0.00  0.00    -0.200 A 
BRANCH  16  17
ATOM     17  C   LIG    1       -4.158   2.166   0.059  0.00  0.00    +0.520 C 
ATOM     18  F   LIG    1       -3.940   1.377   1.193  0.00  0.00    -0.170 F 
ATOM     19  F   LIG    1       -3.961   1.394  -1.091  0.00  0.00    -0.170 F 
ATOM     20  F   LIG    1       -5.470   2.652   0.074  0.00  0.00    -0.180 F 
ENDBRANCH  16  17
ENDBRANCH   4  11
BRANCH   7  21
ATOM     21  C   LIG    1        3.532   2.274  -0.018  0.00  0.00    -0.180 A 
ATOM     22  C   LIG    1        3.588   3.622  -0.016  0.00  0.00    +0.080 A 
ATOM     23  C   LIG    1        4.862   4.146  -0.020  0.00  0.00    +0.010 A 
ATOM     24  C   LIG    1        5.847   3.242  -0.034  0.00  0.00    -0.020 A 
ATOM     25  S   LIG    1        5.165   1.621  -0.036  0.00  0.00    +0.150 S 
ENDBRANCH   7  21
BRANCH   9  26
ATOM     26  C   LIG    1        1.296  -2.179  -0.022  0.00  0.00    +0.510 C 
ATOM     27  F   LIG    1        0.646  -2.666  -1.161  0.00  0.00    -0.160 F 
ATOM     28  F   LIG    1        0.667  -2.679   1.123  0.00  0.00    -0.160 F 
ATOM     29  F   LIG    1        2.633  -2.592  -0.036  0.00  0.00    -0.170 F 
ENDBRANCH   9  26
TORSDOF 4
