REMARK  Name = ZINCrD00000l34dC.0
REMARK                            x       y       z     vdW  Elec       q    Type
REMARK                         _______ _______ _______ _____ _____    ______ ____
ROOT
ATOM      1  O   LIG    1        0.778   7.691   1.003  0.00  0.00    -0.530 OA
ATOM      2  C   LIG    1        0.425   7.048   0.033  0.00  0.00    +0.560 C 
ATOM      3  N   LIG    1        0.321   5.707   0.115  0.00  0.00    -0.610 N 
ATOM      4  C   LIG    1       -0.204   4.926  -1.014  0.00  0.00    +0.290 C 
ATOM      5  C   LIG    1       -1.357   4.050  -0.514  0.00  0.00    +0.040 C 
ATOM      6  C   LIG    1       -0.873   3.202   0.665  0.00  0.00    +0.130 C 
ATOM      7  C   LIG    1       -0.433   4.120   1.808  0.00  0.00    +0.040 C 
ATOM      8  C   LIG    1        0.730   4.997   1.335  0.00  0.00    +0.290 C 
ENDROOT
BRANCH   2   9
ATOM      9  C   LIG    1        0.110   7.737  -1.235  0.00  0.00    -0.130 A 
ATOM     10  C   LIG    1        0.476   7.160  -2.454  0.00  0.00    +0.050 A 
ATOM     11  C   LIG    1        0.177   7.801  -3.635  0.00  0.00    +0.040 A 
ATOM     12  C   LIG    1       -0.481   9.031  -3.615  0.00  0.00    +0.010 A 
ATOM     13  C   LIG    1       -0.842   9.610  -2.399  0.00  0.00    +0.040 A 
ATOM     14  C   LIG    1       -0.549   8.969  -1.216  0.00  0.00    +0.080 A 
BRANCH  12  15
ATOM     15  C   LIG    1       -0.796   9.723  -4.888  0.00  0.00    +0.110 A 
ATOM     16  N   LIG    1       -1.409  10.882  -5.008  0.00  0.00    -0.280 NA
ATOM     17  N   LIG    1       -1.511  11.181  -6.373  0.00  0.00    -0.470 N 
ATOM     18  H   LIG    1       -1.918  11.975  -6.753  0.00  0.00    +0.440 HD
ATOM     19  C   LIG    1       -0.942  10.172  -7.068  0.00  0.00    +0.240 A 
ATOM     20  C   LIG    1       -0.487   9.259  -6.182  0.00  0.00    -0.110 A 
ENDBRANCH  12  15
ENDBRANCH   2   9
BRANCH   6  21
ATOM     21  C   LIG    1       -1.994   2.314   1.138  0.00  0.00    +0.190 A 
ATOM     22  N   LIG    1       -1.989   1.003   1.175  0.00  0.00    -0.480 NA
ATOM     23  C   LIG    1       -3.192   0.650   1.663  0.00  0.00    +0.200 A 
ATOM     24  N   LIG    1       -3.854   1.744   1.894  0.00  0.00    -0.380 NA
ATOM     25  O   LIG    1       -3.184   2.711   1.599  0.00  0.00    +0.080 OA
BRANCH  23  26
ATOM     26  C   LIG    1       -3.681  -0.756   1.900  0.00  0.00    +0.060 C 
ATOM     27  C   LIG    1       -5.154  -0.938   2.271  0.00  0.00    +0.050 C 
ATOM     28  C   LIG    1       -4.068  -1.138   3.330  0.00  0.00    +0.050 C 
ENDBRANCH  23  26
ENDBRANCH   6  21
TORSDOF 4
