REMARK  Name = ZINCkj000005gpeq.1
REMARK                            x       y       z     vdW  Elec       q    Type
REMARK                         _______ _______ _______ _____ _____    ______ ____
ROOT
ATOM      1  N   LIG    1       -2.826   1.380   0.037  0.00  0.00    -1.010 NA
ATOM      2  C   LIG    1       -2.178   1.033  -1.236  0.00  0.00    +0.310 C 
ATOM      3  C   LIG    1       -0.752   1.593  -1.232  0.00  0.00    +0.040 C 
ATOM      4  C   LIG    1       -0.013   1.086   0.008  0.00  0.00    +0.230 C 
ATOM      5  C   LIG    1       -0.729   1.579   1.268  0.00  0.00    +0.020 C 
ATOM      6  C   LIG    1       -2.154   1.019   1.293  0.00  0.00    +0.310 C 
ENDROOT
BRANCH   1   7
ATOM      7  S   LIG    1       -4.284   2.164   0.055  0.00  0.00    +2.600 S 
ATOM      8  O   LIG    1       -4.319   2.869  -1.178  0.00  0.00    -0.950 OA
ATOM      9  O   LIG    1       -4.295   2.856   1.296  0.00  0.00    -0.950 OA
BRANCH   7  11
ATOM     10  C   LIG    1       -6.920   1.434   0.076  0.00  0.00    +0.080 C 
ATOM     11  C   LIG    1       -5.514   0.830   0.059  0.00  0.00    -0.370 C 
ENDBRANCH   7  11
ENDBRANCH   1   7
BRANCH   4  12
ATOM     12  N   LIG    1        1.362   1.593  -0.002  0.00  0.00    -0.650 NA
ATOM     13  H   LIG    1        1.574   2.409  -0.482  0.00  0.00    +0.430 HD
BRANCH  12  14
ATOM     14  C   LIG    1        2.358   0.906   0.673  0.00  0.00    +0.490 C 
ATOM     15  C   LIG    1        2.065  -0.269   1.366  0.00  0.00    -0.080 C 
ATOM     16  C   LIG    1        3.093  -0.917   2.023  0.00  0.00    +0.230 C 
ATOM     17  N   LIG    1        4.315  -0.406   1.974  0.00  0.00    -0.540 NA
ATOM     18  C   LIG    1        4.560   0.706   1.310  0.00  0.00    +0.440 C 
ATOM     19  C   LIG    1        5.965   1.249   1.283  0.00  0.00    +0.240 C 
ATOM     20  H   LIG    1        5.040  -0.857   2.433  0.00  0.00    +0.450 HD
ATOM     21  C   LIG    1        2.829  -2.189   2.786  0.00  0.00    +0.200 C 
ATOM     22  N   LIG    1        3.611   1.354   0.666  0.00  0.00    -0.530 NA
ENDBRANCH  12  14
ENDBRANCH   4  12
TORSDOF 4
