REMARK  Name = ZINCbw0000000Hnr.0
REMARK                            x       y       z     vdW  Elec       q    Type
REMARK                         _______ _______ _______ _____ _____    ______ ____
ROOT
ATOM      1  C   LIG    1       -0.219   1.231   2.523  0.00  0.00    -0.290 A 
ATOM      2  C   LIG    1       -0.767   1.615   3.722  0.00  0.00    -0.020 A 
ATOM      3  C   LIG    1       -0.078   1.136   4.809  0.00  0.00    +0.020 A 
ATOM      4  C   LIG    1        1.000   0.396   4.519  0.00  0.00    -0.030 A 
ATOM      5 BR   LIG    1       -2.316   2.690   3.862  0.00  0.00    +0.010 Br
ATOM      6  S   LIG    1        1.208   0.251   2.832  0.00  0.00    +0.280 S 
ENDROOT
BRANCH   1   7
ATOM      7  C   LIG    1       -0.718   1.572   1.248  0.00  0.00    +0.420 C 
ATOM      8  O   LIG    1       -1.716   2.257   1.150  0.00  0.00    -0.410 OA
BRANCH   7   9
ATOM      9  C   LIG    1       -0.013   1.086   0.008  0.00  0.00    +0.210 C 
BRANCH   9  11
ATOM     10  N   LIG    1       -1.274   1.950  -2.105  0.00  0.00    -0.400 NA
ATOM     11  C   LIG    1       -0.725   1.573  -1.185  0.00  0.00    +0.210 C 
ENDBRANCH   9  11
ENDBRANCH   7   9
ENDBRANCH   1   7
TORSDOF 3
