REMARK  Name = ZINCkj000005gV19.0
REMARK                            x       y       z     vdW  Elec       q    Type
REMARK                         _______ _______ _______ _____ _____    ______ ____
ROOT
ATOM      1  C   LIG    1        2.747   7.908   3.803  0.00  0.00    +0.200 A 
ATOM      2  N   LIG    1        3.439   8.930   3.369  0.00  0.00    -0.280 NA
ATOM      3  N   LIG    1        3.912   8.670   2.199  0.00  0.00    -0.260 NA
ATOM      4  C   LIG    1        3.545   7.478   1.838  0.00  0.00    +0.160 A 
ATOM      5  C   LIG    1        3.857   6.746   0.557  0.00  0.00    +0.220 C 
ATOM      6  C   LIG    1        3.546   5.258   0.770  0.00  0.00    +0.060 C 
ATOM      7  C   LIG    1        2.155   5.116   1.393  0.00  0.00    +0.170 C 
ATOM      8  C   LIG    1        2.182   5.635   2.835  0.00  0.00    +0.320 C 
ATOM      9  N   LIG    1        2.795   6.963   2.845  0.00  0.00    -0.480 N 
ENDROOT
BRANCH   7  10
ATOM     10  N   LIG    1        1.760   3.701   1.390  0.00  0.00    -0.500 N 
ATOM     11  H   LIG    1        2.468   3.153   1.855  0.00  0.00    +0.430 HD
ATOM     12  H   LIG    1        0.881   3.596   1.873  0.00  0.00    +0.440 HD
BRANCH  10  13
ATOM     13  C   LIG    1        1.615   3.236   0.004  0.00  0.00    +0.420 C 
BRANCH  13  14
ATOM     14  C   LIG    1        1.210   1.785   0.000  0.00  0.00    +0.120 A 
ATOM     15  N   LIG    1       -0.016   1.337   0.009  0.00  0.00    -0.430 NA
ATOM     16  C   LIG    1        0.002  -0.004   0.002  0.00  0.00    +0.220 A 
ATOM     17  C   LIG    1        1.289  -0.404  -0.012  0.00  0.00    +0.050 A 
ATOM     18 CL   LIG    1        1.865  -2.041  -0.026  0.00  0.00    +0.030 Cl
ATOM     19  N   LIG    1        2.056   0.731  -0.014  0.00  0.00    -0.440 N 
ATOM     20  C   LIG    1        3.519   0.791  -0.027  0.00  0.00    +0.350 C 
ENDBRANCH  13  14
ENDBRANCH  10  13
ENDBRANCH   7  10
BRANCH   1  22
ATOM     21  C   LIG    1        2.979   7.223   6.175  0.00  0.00    +0.050 C 
ATOM     22  C   LIG    1        2.032   7.808   5.126  0.00  0.00    +0.150 C 
ENDBRANCH   1  22
TORSDOF 4
