REMARK  Name = ZINCtV000002OYEh.0
REMARK                            x       y       z     vdW  Elec       q    Type
REMARK                         _______ _______ _______ _____ _____    ______ ____
ROOT
ATOM      1  C   LIG    1        2.776  -3.624  -0.045  0.00  0.00    -0.060 A 
ATOM      2  C   LIG    1        1.990  -2.482  -0.044  0.00  0.00    +0.060 A 
ATOM      3  C   LIG    1        2.608  -1.218  -0.043  0.00  0.00    +0.230 A 
ATOM      4  N   LIG    1        3.919  -1.077  -0.048  0.00  0.00    -0.440 NA
ATOM      5  C   LIG    1        4.749  -2.122  -0.043  0.00  0.00    +0.130 A 
ATOM      6  C   LIG    1        6.144  -1.940  -0.043  0.00  0.00    +0.050 A 
ATOM      7  C   LIG    1        6.966  -3.025  -0.043  0.00  0.00    +0.040 A 
ATOM      8  C   LIG    1        6.450  -4.318  -0.045  0.00  0.00    +0.030 A 
ATOM      9  C   LIG    1        5.103  -4.533  -0.046  0.00  0.00    +0.050 A 
ATOM     10  C   LIG    1        4.229  -3.441  -0.045  0.00  0.00    -0.060 A 
ENDROOT
BRANCH   3  11
ATOM     11  C   LIG    1        1.761  -0.011  -0.043  0.00  0.00    -0.170 A 
ATOM     12  C   LIG    1        2.215   1.260  -0.041  0.00  0.00    +0.070 A 
ATOM     13  C   LIG    1        1.231   2.224  -0.042  0.00  0.00    +0.010 A 
ATOM     14  C   LIG    1       -0.022   1.754  -0.043  0.00  0.00    -0.030 A 
ATOM     15  S   LIG    1        0.002  -0.004  -0.044  0.00  0.00    +0.140 S 
ENDBRANCH   3  11
BRANCH   1  17
ATOM     16  O   LIG    1        2.879  -5.955  -0.151  0.00  0.00    -0.490 OA
ATOM     17  C   LIG    1        2.172  -4.973  -0.046  0.00  0.00    +0.520 C 
BRANCH  17  18
ATOM     18  O   LIG    1        0.837  -5.113   0.069  0.00  0.00    -0.340 OA
BRANCH  18  19
ATOM     19  C   LIG    1        0.313  -6.467   0.060  0.00  0.00    +0.290 C 
BRANCH  19  20
ATOM     20  C   LIG    1       -1.187  -6.426   0.198  0.00  0.00    -0.100 A 
ATOM     21  C   LIG    1       -1.767  -6.462   1.452  0.00  0.00    +0.080 A 
ATOM     22  C   LIG    1       -3.143  -6.421   1.578  0.00  0.00    +0.020 A 
ATOM     23  C   LIG    1       -3.939  -6.352   0.450  0.00  0.00    +0.080 A 
ATOM     24  C   LIG    1       -3.359  -6.321  -0.804  0.00  0.00    -0.190 A 
ATOM     25  C   LIG    1       -1.983  -6.358  -0.930  0.00  0.00    +0.100 A 
BRANCH  24  26
ATOM     26  C   LIG    1       -4.226  -6.246  -2.034  0.00  0.00    +0.510 C 
ATOM     27  F   LIG    1       -3.541  -5.567  -3.048  0.00  0.00    -0.180 F 
ATOM     28  F   LIG    1       -5.408  -5.561  -1.731  0.00  0.00    -0.170 F 
ATOM     29  F   LIG    1       -4.535  -7.540  -2.466  0.00  0.00    -0.170 F 
ENDBRANCH  24  26
ENDBRANCH  19  20
ENDBRANCH  18  19
ENDBRANCH  17  18
ENDBRANCH   1  17
TORSDOF 6
