REMARK  Name = ZINCqH0000006RJV.0
REMARK                            x       y       z     vdW  Elec       q    Type
REMARK                         _______ _______ _______ _____ _____    ______ ____
ROOT
ATOM      1  N   LIG    1        1.139   2.192   0.003  0.00  0.00    -0.660 N 
ATOM      2  H   LIG    1        1.980   1.713  -0.056  0.00  0.00    +0.420 HD
ATOM      3  C   LIG    1       -0.012   1.515   0.179  0.00  0.00    +0.540 C 
ATOM      4  O   LIG    1       -1.051   2.118   0.346  0.00  0.00    -0.490 OA
ENDROOT
BRANCH   1   7
ATOM      5  C   LIG    1        2.166   5.715   0.303  0.00  0.00    +0.190 A 
ATOM      6  C   LIG    1        2.184   4.332   0.400  0.00  0.00    -0.070 A 
ATOM      7  C   LIG    1        1.122   3.588  -0.095  0.00  0.00    +0.220 A 
ATOM      8  C   LIG    1        0.045   4.229  -0.692  0.00  0.00    -0.040 A 
ATOM      9  C   LIG    1        0.025   5.612  -0.784  0.00  0.00    +0.190 A 
ATOM     10  C   LIG    1        1.087   6.355  -0.289  0.00  0.00    -0.170 A 
BRANCH   5  12
ATOM     11  C   LIG    1        3.120   7.864   0.653  0.00  0.00    +0.250 C 
ATOM     12  O   LIG    1        3.206   6.444   0.787  0.00  0.00    -0.310 OA
ENDBRANCH   5  12
BRANCH   9  13
ATOM     13  O   LIG    1       -1.032   6.240  -1.363  0.00  0.00    -0.310 OA
ATOM     14  C   LIG    1       -0.983   7.666  -1.429  0.00  0.00    +0.250 C 
ENDBRANCH   9  13
ENDBRANCH   1   7
BRANCH   3  15
ATOM     15  C   LIG    1       -0.009   0.008   0.164  0.00  0.00    +0.000 C 
ATOM     16  C   LIG    1        0.342  -0.516   1.558  0.00  0.00    +0.090 C 
BRANCH  15  17
ATOM     17  S   LIG    1       -1.653  -0.595  -0.313  0.00  0.00    +0.090 S 
BRANCH  17  18
ATOM     18  C   LIG    1       -1.420  -2.338  -0.420  0.00  0.00    +0.240 A 
ATOM     19  N   LIG    1       -0.278  -2.965  -0.190  0.00  0.00    -0.520 NA
ATOM     20  C   LIG    1       -0.482  -4.285  -0.368  0.00  0.00    +0.010 A 
ATOM     21  C   LIG    1        0.323  -5.417  -0.272  0.00  0.00    +0.210 A 
ATOM     22  C   LIG    1       -0.238  -6.665  -0.534  0.00  0.00    -0.120 A 
ATOM     23  C   LIG    1       -1.551  -6.770  -0.879  0.00  0.00    +0.360 A 
ATOM     24  N   LIG    1       -2.341  -5.685  -0.976  0.00  0.00    -0.470 N 
ATOM     25  H   LIG    1       -3.273  -5.791  -1.223  0.00  0.00    +0.440 HD
ATOM     26 CL   LIG    1        0.741  -8.093  -0.421  0.00  0.00    -0.020 Cl
ATOM     27  C   LIG    1       -1.845  -4.437  -0.730  0.00  0.00    +0.250 A 
ATOM     28  N   LIG    1       -2.369  -3.217  -0.741  0.00  0.00    -0.530 NA
ENDBRANCH  17  18
ENDBRANCH  15  17
ENDBRANCH   3  15
TORSDOF 6
