REMARK  Name = ZINCkj000005faeq.0
REMARK                            x       y       z     vdW  Elec       q    Type
REMARK                         _______ _______ _______ _____ _____    ______ ____
ROOT
ATOM      1  C   LIG    1        0.711   3.557   1.340  0.00  0.00    +0.220 C 
ENDROOT
BRANCH   1   2
ATOM      2  O   LIG    1        1.298   3.082   2.553  0.00  0.00    -0.540 OA
ATOM      3  H   LIG    1        0.828   3.357   3.351  0.00  0.00    +0.390 HD
ENDBRANCH   1   2
BRANCH   1   4
ATOM      4  C   LIG    1        0.690   5.087   1.348  0.00  0.00    +0.160 C 
BRANCH   4   5
ATOM      5  O   LIG    1        2.031   5.582   1.338  0.00  0.00    -0.370 OA
BRANCH   5   6
ATOM      6  C   LIG    1        2.124   7.008   1.345  0.00  0.00    +0.200 C 
BRANCH   6   7
ATOM      7  C   LIG    1        3.597   7.422   1.333  0.00  0.00    +0.190 C 
BRANCH   7   8
ATOM      8  O   LIG    1        4.198   7.010   0.104  0.00  0.00    -0.380 OA
BRANCH   8  10
ATOM      9  C   LIG    1        6.292   6.314  -0.883  0.00  0.00    +0.040 C 
ATOM     10  C   LIG    1        5.581   7.350  -0.010  0.00  0.00    +0.140 C 
ATOM     11  C   LIG    1        5.715   8.734  -0.650  0.00  0.00    +0.010 C 
ENDBRANCH   8  10
ENDBRANCH   7   8
ENDBRANCH   6   7
ENDBRANCH   5   6
ENDBRANCH   4   5
ENDBRANCH   1   4
BRANCH   1  12
ATOM     12  C   LIG    1       -0.720   3.028   1.225  0.00  0.00    +0.250 C 
BRANCH  12  13
ATOM     13  N   LIG    1       -0.700   1.560   1.217  0.00  0.00    -0.380 N 
ATOM     14  C   LIG    1       -0.013   1.086   0.008  0.00  0.00    +0.320 C 
ATOM     15  H   LIG    1       -0.212   1.225   2.034  0.00  0.00    +0.430 HD
BRANCH  13  16
ATOM     16  C   LIG    1       -2.078   1.051   1.227  0.00  0.00    +0.330 C 
BRANCH  16  17
ATOM     17  C   LIG    1       -2.059  -0.451   1.343  0.00  0.00    -0.220 A 
ATOM     18  C   LIG    1       -2.074  -1.060   2.588  0.00  0.00    +0.090 A 
ATOM     19  C   LIG    1       -2.055  -2.445   2.646  0.00  0.00    -0.020 A 
ATOM     20  C   LIG    1       -2.022  -3.168   1.469  0.00  0.00    +0.310 A 
ATOM     21  N   LIG    1       -2.008  -2.555   0.301  0.00  0.00    -0.480 NA
ATOM     22  C   LIG    1       -2.031  -1.240   0.208  0.00  0.00    +0.290 A 
ENDBRANCH  16  17
ENDBRANCH  13  16
ENDBRANCH  12  13
ENDBRANCH   1  12
TORSDOF 11
