REMARK  Name = ZINCkj000005faeq.1
REMARK                            x       y       z     vdW  Elec       q    Type
REMARK                         _______ _______ _______ _____ _____    ______ ____
ROOT
ATOM      1  C   LIG    1        1.434   1.949  -0.083  0.00  0.00    +0.210 C 
ENDROOT
BRANCH   1   2
ATOM      2  O   LIG    1        2.242   1.375   0.946  0.00  0.00    -0.540 OA
ATOM      3  H   LIG    1        1.939   1.575   1.842  0.00  0.00    +0.390 HD
ENDBRANCH   1   2
BRANCH   1   4
ATOM      4  C   LIG    1        1.430   3.472   0.063  0.00  0.00    +0.160 C 
BRANCH   4   5
ATOM      5  O   LIG    1        2.748   3.976  -0.166  0.00  0.00    -0.370 OA
BRANCH   5   6
ATOM      6  C   LIG    1        2.854   5.397  -0.053  0.00  0.00    +0.200 C 
BRANCH   6   7
ATOM      7  C   LIG    1        4.300   5.822  -0.316  0.00  0.00    +0.190 C 
BRANCH   7   8
ATOM      8  O   LIG    1        4.646   5.523  -1.670  0.00  0.00    -0.380 OA
BRANCH   8  10
ATOM      9  C   LIG    1        6.919   4.705  -1.741  0.00  0.00    +0.020 C 
ATOM     10  C   LIG    1        5.984   5.883  -2.021  0.00  0.00    +0.140 C 
ATOM     11  C   LIG    1        6.043   6.238  -3.508  0.00  0.00    +0.040 C 
ENDBRANCH   8  10
ENDBRANCH   7   8
ENDBRANCH   6   7
ENDBRANCH   5   6
ENDBRANCH   4   5
ENDBRANCH   1   4
BRANCH   1  12
ATOM     12  C   LIG    1        0.003   1.421   0.038  0.00  0.00    +0.240 C 
BRANCH  12  13
ATOM     13  N   LIG    1        0.007  -0.041  -0.100  0.00  0.00    -0.380 N 
ATOM     14  C   LIG    1       -1.341  -0.562   0.166  0.00  0.00    +0.320 C 
ATOM     15  H   LIG    1        0.658  -0.439   0.560  0.00  0.00    +0.430 HD
BRANCH  13  16
ATOM     16  C   LIG    1        0.411  -0.403  -1.466  0.00  0.00    +0.320 C 
BRANCH  16  17
ATOM     17  C   LIG    1        0.534  -1.901  -1.573  0.00  0.00    -0.220 A 
ATOM     18  C   LIG    1       -0.558  -2.670  -1.944  0.00  0.00    +0.090 A 
ATOM     19  C   LIG    1       -0.398  -4.045  -2.030  0.00  0.00    -0.020 A 
ATOM     20  C   LIG    1        0.836  -4.598  -1.745  0.00  0.00    +0.310 A 
ATOM     21  N   LIG    1        1.853  -3.836  -1.395  0.00  0.00    -0.470 NA
ATOM     22  C   LIG    1        1.739  -2.525  -1.308  0.00  0.00    +0.300 A 
ENDBRANCH  16  17
ENDBRANCH  13  16
ENDBRANCH  12  13
ENDBRANCH   1  12
TORSDOF 11
