REMARK  Name = ZINCrD0000074ANH.0
REMARK                            x       y       z     vdW  Elec       q    Type
REMARK                         _______ _______ _______ _____ _____    ______ ____
ROOT
ATOM      1  C   LIG    1        2.364   4.533  -1.841  0.00  0.00    +0.220 C 
ENDROOT
BRANCH   1   2
ATOM      2  O   LIG    1        1.241   5.382  -2.197  0.00  0.00    -0.340 OA
BRANCH   2   3
ATOM      3  C   LIG    1        1.113   5.712  -3.491  0.00  0.00    +0.460 C 
ATOM      4  O   LIG    1        1.913   5.306  -4.300  0.00  0.00    -0.510 OA
BRANCH   3   5
ATOM      5  C   LIG    1       -0.028   6.590  -3.936  0.00  0.00    +0.130 C 
BRANCH   5   6
ATOM      6  C   LIG    1        0.058   6.812  -5.447  0.00  0.00    +0.060 C 
BRANCH   6   7
ATOM      7  C   LIG    1       -1.084   7.690  -5.891  0.00  0.00    +0.430 C 
ATOM      8  O   LIG    1       -1.888   8.099  -5.078  0.00  0.00    -0.450 OA
BRANCH   7  13
ATOM      9  C   LIG    1       -0.736   8.433 -11.179  0.00  0.00    +0.140 C 
ATOM     10  C   LIG    1       -1.057   8.383  -9.708  0.00  0.00    -0.180 A 
ATOM     11  C   LIG    1       -2.099   9.002  -9.136  0.00  0.00    -0.020 A 
ATOM     12  C   LIG    1       -2.210   8.827  -7.780  0.00  0.00    +0.120 A 
ATOM     13  C   LIG    1       -1.218   8.038  -7.254  0.00  0.00    -0.320 A 
ATOM     14  S   LIG    1       -0.138   7.535  -8.547  0.00  0.00    +0.230 S 
ENDBRANCH   7  13
ENDBRANCH   6   7
ENDBRANCH   5   6
ENDBRANCH   3   5
ENDBRANCH   2   3
ENDBRANCH   1   2
BRANCH   1  15
ATOM     15  C   LIG    1        2.344   4.266  -0.334  0.00  0.00    +0.330 C 
BRANCH  15  16
ATOM     16  N   LIG    1        1.149   3.492   0.009  0.00  0.00    -0.550 N 
ATOM     17  C   LIG    1       -0.003   4.117   0.337  0.00  0.00    +0.490 C 
ATOM     18  C   LIG    1       -1.211   3.304   0.725  0.00  0.00    +0.230 C 
ATOM     19  O   LIG    1       -1.196   2.057   0.030  0.00  0.00    -0.300 OA
ATOM     20  C   LIG    1       -0.017   1.379   0.010  0.00  0.00    +0.080 A 
ATOM     21  C   LIG    1        0.002  -0.004   0.002  0.00  0.00    +0.030 A 
ATOM     22  C   LIG    1        1.211  -0.677  -0.013  0.00  0.00    +0.020 A 
ATOM     23  C   LIG    1        2.400   0.028  -0.021  0.00  0.00    +0.020 A 
ATOM     24  C   LIG    1        2.389   1.411  -0.013  0.00  0.00    +0.000 A 
ATOM     25  C   LIG    1       -1.187   3.042   2.232  0.00  0.00    +0.050 C 
ATOM     26  O   LIG    1       -0.064   5.329   0.320  0.00  0.00    -0.490 OA
ATOM     27  C   LIG    1        1.183   2.090   0.002  0.00  0.00    +0.100 A 
ENDBRANCH  15  16
ENDBRANCH   1  15
TORSDOF 8
