REMARK  Name = ZINCqH0000031Fpn.0
REMARK                            x       y       z     vdW  Elec       q    Type
REMARK                         _______ _______ _______ _____ _____    ______ ____
ROOT
ATOM      1  C   LIG    1       -1.268  -0.564  -2.649  0.00  0.00    +0.510 C 
ATOM      2  N   LIG    1       -0.108  -0.399  -1.983  0.00  0.00    -0.600 N 
ATOM      3  C   LIG    1        1.160  -0.641  -2.700  0.00  0.00    +0.260 C 
ATOM      4  C   LIG    1        2.223   0.424  -2.374  0.00  0.00    +0.020 C 
ATOM      5  C   LIG    1        1.585   1.790  -2.311  0.00  0.00    +0.010 C 
ATOM      6  C   LIG    1        1.165   2.086  -0.875  0.00  0.00    +0.000 C 
ATOM      7  C   LIG    1       -0.156   1.554  -0.508  0.00  0.00    +0.020 C 
ATOM      8  C   LIG    1       -0.156   0.007  -0.597  0.00  0.00    +0.320 C 
ATOM      9  O   LIG    1       -2.319  -0.277  -2.116  0.00  0.00    -0.500 OA
ENDROOT
BRANCH   8  10
ATOM     10  C   LIG    1       -1.411  -0.532   0.040  0.00  0.00    +0.040 A 
ATOM     11  C   LIG    1       -1.607  -1.801   0.451  0.00  0.00    -0.080 A 
ATOM     12  C   LIG    1       -2.909  -1.876   0.985  0.00  0.00    -0.070 A 
ATOM     13  C   LIG    1       -3.459  -0.649   0.879  0.00  0.00    +0.140 A 
ATOM     14  N   LIG    1       -2.543   0.181   0.306  0.00  0.00    -0.410 N 
ATOM     15  C   LIG    1       -2.742   1.604   0.018  0.00  0.00    +0.300 C 
ENDBRANCH   8  10
BRANCH   1  16
ATOM     16  C   LIG    1       -1.260  -1.106  -4.055  0.00  0.00    +0.060 C 
BRANCH  16  17
ATOM     17  C   LIG    1       -2.695  -1.195  -4.576  0.00  0.00    +0.350 C 
BRANCH  17  20
ATOM     18  C   LIG    1       -5.551  -3.099  -2.882  0.00  0.00    +0.100 C 
ATOM     19  C   LIG    1       -4.783  -2.088  -3.694  0.00  0.00    +0.520 C 
ATOM     20  N   LIG    1       -3.442  -2.177  -3.787  0.00  0.00    -0.720 N 
ATOM     21  H   LIG    1       -2.971  -2.892  -3.331  0.00  0.00    +0.400 HD
ATOM     22  O   LIG    1       -5.372  -1.194  -4.264  0.00  0.00    -0.540 OA
ENDBRANCH  17  20
BRANCH  17  23
ATOM     23  C   LIG    1       -2.679  -1.619  -6.022  0.00  0.00    -0.190 A 
ATOM     24  C   LIG    1       -2.819  -0.800  -7.066  0.00  0.00    +0.020 A 
ATOM     25  C   LIG    1       -2.768  -1.419  -8.303  0.00  0.00    +0.010 A 
ATOM     26  C   LIG    1       -2.596  -2.741  -8.264  0.00  0.00    -0.050 A 
ATOM     27  S   LIG    1       -2.481  -3.272  -6.591  0.00  0.00    +0.100 S 
ENDBRANCH  17  23
ENDBRANCH  16  17
ENDBRANCH   1  16
TORSDOF 5
