REMARK  Name = ZINCpe000000Uh9M.0
REMARK                            x       y       z     vdW  Elec       q    Type
REMARK                         _______ _______ _______ _____ _____    ______ ____
ROOT
ATOM      1  C   LIG    1       -3.777   5.085   3.720  0.00  0.00    +0.370 C 
ENDROOT
BRANCH   1   4
ATOM      2  N   LIG    1       -7.122   6.199   2.905  0.00  0.00    -0.540 N 
ATOM      3  C   LIG    1       -6.227   5.246   3.227  0.00  0.00    +0.690 A 
ATOM      4  N   LIG    1       -5.008   5.800   3.372  0.00  0.00    -0.530 N 
ATOM      5  C   LIG    1       -5.117   7.169   3.141  0.00  0.00    +0.090 A 
ATOM      6  C   LIG    1       -4.203   8.210   3.145  0.00  0.00    +0.030 A 
ATOM      7  C   LIG    1       -4.623   9.495   2.862  0.00  0.00    +0.020 A 
ATOM      8  C   LIG    1       -5.952   9.746   2.569  0.00  0.00    +0.020 A 
ATOM      9  C   LIG    1       -6.870   8.714   2.556  0.00  0.00    +0.030 A 
ATOM     10  O   LIG    1       -6.480   4.064   3.365  0.00  0.00    -0.550 OA
ATOM     11  C   LIG    1       -6.457   7.421   2.839  0.00  0.00    +0.100 A 
BRANCH   2  13
ATOM     12  C   LIG    1       -9.317   6.133   3.982  0.00  0.00    +0.030 C 
ATOM     13  C   LIG    1       -8.551   5.986   2.665  0.00  0.00    +0.310 C 
ENDBRANCH   2  13
ENDBRANCH   1   4
BRANCH   1  14
ATOM     14  C   LIG    1       -3.092   4.622   2.461  0.00  0.00    +0.500 C 
ATOM     15  N   LIG    1       -1.933   3.937   2.536  0.00  0.00    -0.600 N 
ATOM     16  C   LIG    1       -1.327   3.634   3.840  0.00  0.00    +0.270 C 
ATOM     17  C   LIG    1       -1.070   2.127   3.926  0.00  0.00    +0.040 C 
ATOM     18  C   LIG    1       -0.230   1.687   2.724  0.00  0.00    +0.070 C 
ATOM     19  C   LIG    1       -0.997   1.974   1.431  0.00  0.00    -0.460 C 
ATOM     20  C   LIG    1       -1.253   3.480   1.317  0.00  0.00    +0.330 C 
ATOM     21  O   LIG    1       -3.583   4.865   1.379  0.00  0.00    -0.520 OA
BRANCH  19  22
ATOM     22  S   LIG    1       -0.017   1.417   0.010  0.00  0.00    +2.430 S 
ATOM     23  O   LIG    1        1.213   2.127   0.002  0.00  0.00    -0.930 OA
ATOM     24  O   LIG    1        0.002  -0.004   0.002  0.00  0.00    -0.930 OA
ATOM     25  C   LIG    1       -1.024   1.989  -1.387  0.00  0.00    -0.270 C 
ENDBRANCH  19  22
ENDBRANCH   1  14
TORSDOF 4
