REMARK  Name = ZINCtV00000L6kRc.0
REMARK                            x       y       z     vdW  Elec       q    Type
REMARK                         _______ _______ _______ _____ _____    ______ ____
ROOT
ATOM      1  C   LIG    1        2.444   1.444  -0.035  0.00  0.00    +0.170 C 
ATOM      2  C   LIG    1        1.137   2.194   0.003  0.00  0.00    +0.170 A 
ATOM      3  C   LIG    1       -0.018   1.479   0.010  0.00  0.00    -0.260 A 
ATOM      4  C   LIG    1       -1.294   2.221   0.020  0.00  0.00    +0.440 A 
ATOM      5  C   LIG    1       -1.200   3.665  -0.261  0.00  0.00    -0.250 A 
ATOM      6  C   LIG    1       -2.334   4.426  -0.538  0.00  0.00    +0.160 A 
ATOM      7  C   LIG    1       -2.205   5.758  -0.812  0.00  0.00    -0.090 A 
ATOM      8  C   LIG    1       -0.947   6.356  -0.813  0.00  0.00    +0.190 A 
ATOM      9  C   LIG    1        0.188   5.614  -0.536  0.00  0.00    -0.030 A 
ATOM     10  C   LIG    1        0.075   4.258  -0.252  0.00  0.00    +0.180 A 
ATOM     11  O   LIG    1       -2.359   1.675   0.250  0.00  0.00    -0.450 OA
ATOM     12  O   LIG    1        1.170   3.526   0.028  0.00  0.00    -0.210 OA
ENDROOT
BRANCH   3  13
ATOM     13  C   LIG    1        0.002  -0.004   0.002  0.00  0.00    -0.040 A 
ATOM     14  C   LIG    1       -0.006  -0.698  -1.208  0.00  0.00    +0.130 A 
ATOM     15  C   LIG    1        0.019  -2.081  -1.209  0.00  0.00    +0.000 A 
ATOM     16  C   LIG    1        0.040  -2.775  -0.013  0.00  0.00    +0.080 A 
ATOM     17  C   LIG    1        0.042  -2.092   1.190  0.00  0.00    +0.020 A 
ATOM     18  F   LIG    1       -0.032  -0.021  -2.377  0.00  0.00    -0.130 F 
ATOM     19  C   LIG    1        0.023  -0.711   1.204  0.00  0.00    +0.010 A 
ATOM     20 CL   LIG    1        0.026   0.144   2.715  0.00  0.00    -0.050 Cl
ENDBRANCH   3  13
BRANCH   8  21
ATOM     21  O   LIG    1       -0.833   7.680  -1.090  0.00  0.00    -0.300 OA
BRANCH  21  22
ATOM     22  C   LIG    1       -2.041   8.392  -1.368  0.00  0.00    +0.260 C 
BRANCH  22  23
ATOM     23  C   LIG    1       -1.719   9.837  -1.649  0.00  0.00    -0.110 A 
ATOM     24  C   LIG    1       -1.696  10.754  -0.614  0.00  0.00    +0.080 A 
ATOM     25  C   LIG    1       -1.395  12.078  -0.870  0.00  0.00    -0.020 A 
ATOM     26  C   LIG    1       -1.129  12.489  -2.166  0.00  0.00    +0.110 A 
ATOM     27  C   LIG    1       -1.158  11.571  -3.202  0.00  0.00    -0.020 A 
ATOM     28  F   LIG    1       -0.841  13.785  -2.418  0.00  0.00    -0.140 F 
ATOM     29  C   LIG    1       -1.452  10.246  -2.942  0.00  0.00    +0.080 A 
ENDBRANCH  22  23
ENDBRANCH  21  22
ENDBRANCH   8  21
TORSDOF 4
