REMARK  Name = ZINCqH0000031Pkx.0
REMARK                            x       y       z     vdW  Elec       q    Type
REMARK                         _______ _______ _______ _____ _____    ______ ____
ROOT
ATOM      1  C   LIG    1       -0.036   0.859   2.856  0.00  0.00    +0.660 C 
ATOM      2  N   LIG    1       -0.689   1.271   3.961  0.00  0.00    -0.600 N 
ATOM      3  C   LIG    1       -1.456   2.525   3.953  0.00  0.00    +0.290 C 
ATOM      4  C   LIG    1       -2.897   2.215   4.392  0.00  0.00    +0.260 C 
ATOM      5  N   LIG    1       -2.849   1.421   5.628  0.00  0.00    -0.620 N 
ATOM      6  C   LIG    1       -2.078   0.170   5.637  0.00  0.00    +0.300 C 
ATOM      7  C   LIG    1       -3.501   1.833   6.733  0.00  0.00    +0.710 C 
ATOM      8  N   LIG    1       -4.122   3.030   6.743  0.00  0.00    -0.690 N 
ATOM      9  H   LIG    1       -4.195   3.545   5.924  0.00  0.00    +0.410 HD
ATOM     10  O   LIG    1       -3.530   1.125   7.721  0.00  0.00    -0.560 OA
ATOM     11  C   LIG    1       -0.641   0.477   5.197  0.00  0.00    +0.300 C 
ATOM     12  O   LIG    1        0.599  -0.177   2.876  0.00  0.00    -0.560 OA
ENDROOT
BRANCH   8  13
ATOM     13  C   LIG    1       -4.659   3.530   7.935  0.00  0.00    +0.200 A 
ATOM     14  C   LIG    1       -4.053   3.235   9.149  0.00  0.00    +0.030 A 
ATOM     15  C   LIG    1       -4.583   3.734  10.323  0.00  0.00    +0.090 A 
ATOM     16  C   LIG    1       -5.723   4.517  10.290  0.00  0.00    -0.200 A 
ATOM     17  C   LIG    1       -6.331   4.808   9.083  0.00  0.00    +0.090 A 
ATOM     18  C   LIG    1       -5.803   4.316   7.906  0.00  0.00    -0.010 A 
BRANCH  16  19
ATOM     19  C   LIG    1       -6.301   5.055  11.573  0.00  0.00    +0.510 C 
ATOM     20  F   LIG    1       -6.940   6.274  11.322  0.00  0.00    -0.180 F 
ATOM     21  F   LIG    1       -5.274   5.250  12.503  0.00  0.00    -0.180 F 
ATOM     22  F   LIG    1       -7.228   4.141  12.087  0.00  0.00    -0.180 F 
ENDBRANCH  16  19
ENDBRANCH   8  13
BRANCH   1  23
ATOM     23  O   LIG    1       -0.088   1.596   1.730  0.00  0.00    -0.360 OA
BRANCH  23  25
ATOM     24  C   LIG    1        0.094  -0.286   0.194  0.00  0.00    +0.040 C 
ATOM     25  C   LIG    1        0.639   1.091   0.578  0.00  0.00    +0.140 C 
ATOM     26  C   LIG    1        0.464   2.055  -0.597  0.00  0.00    +0.080 C 
ATOM     27  C   LIG    1        2.125   0.973   0.925  0.00  0.00    +0.040 C 
ENDBRANCH  23  25
ENDBRANCH   1  23
TORSDOF 4
