REMARK  Name = ZINCrH000004u03L.0
REMARK                            x       y       z     vdW  Elec       q    Type
REMARK                         _______ _______ _______ _____ _____    ______ ____
ROOT
ATOM      1  C   LIG    1       -2.431  -0.316   0.100  0.00  0.00    +0.510 C 
ATOM      2  N   LIG    1       -2.434   1.030   0.032  0.00  0.00    -0.560 N 
ATOM      3  O   LIG    1       -3.480  -0.922   0.169  0.00  0.00    -0.500 OA
ENDROOT
BRANCH   2   4
ATOM      4  C   LIG    1       -3.694   1.767   0.163  0.00  0.00    +0.250 C 
ATOM      5  C   LIG    1       -4.376   1.381   1.476  0.00  0.00    +0.010 C 
ATOM      6  C   LIG    1       -5.691   2.151   1.613  0.00  0.00    +0.020 C 
ATOM      7  C   LIG    1       -6.610   1.804   0.440  0.00  0.00    +0.000 C 
ATOM      8  C   LIG    1       -5.927   2.191  -0.873  0.00  0.00    +0.020 C 
ATOM      9  C   LIG    1       -4.612   1.421  -1.010  0.00  0.00    +0.010 C 
ENDBRANCH   2   4
BRANCH   2  10
ATOM     10  C   LIG    1       -1.235   1.724  -0.165  0.00  0.00    +0.120 A 
ATOM     11  C   LIG    1       -0.744   2.559   0.829  0.00  0.00    +0.010 A 
ATOM     12  C   LIG    1        0.444   3.238   0.634  0.00  0.00    +0.030 A 
ATOM     13  C   LIG    1        1.140   3.089  -0.551  0.00  0.00    +0.020 A 
ATOM     14  C   LIG    1        0.651   2.261  -1.545  0.00  0.00    +0.030 A 
ATOM     15  C   LIG    1       -0.536   1.581  -1.356  0.00  0.00    -0.010 A 
ENDBRANCH   2  10
BRANCH   1  16
ATOM     16  C   LIG    1       -1.125  -1.068   0.091  0.00  0.00    +0.360 C 
BRANCH  16  21
ATOM     17  O   LIG    1       -2.057  -6.324   1.103  0.00  0.00    -0.470 OA
ATOM     18  C   LIG    1       -1.852  -5.154   0.829  0.00  0.00    +0.390 A 
ATOM     19  C   LIG    1       -1.607  -4.181   1.836  0.00  0.00    +0.170 A 
ATOM     20  N   LIG    1       -1.392  -2.940   1.513  0.00  0.00    -0.180 NA
ATOM     21  N   LIG    1       -1.381  -2.493   0.312  0.00  0.00    -0.330 N 
ATOM     22  C   LIG    1       -1.605  -3.301  -0.774  0.00  0.00    +0.170 A 
ATOM     23  C   LIG    1       -1.585  -2.807  -2.075  0.00  0.00    -0.040 A 
ATOM     24  C   LIG    1       -1.812  -3.662  -3.131  0.00  0.00    +0.090 A 
ATOM     25  C   LIG    1       -2.053  -5.012  -2.915  0.00  0.00    -0.010 A 
ATOM     26  C   LIG    1       -2.072  -5.521  -1.646  0.00  0.00    +0.120 A 
ATOM     27  C   LIG    1       -1.846  -4.674  -0.564  0.00  0.00    -0.200 A 
ENDBRANCH  16  21
ENDBRANCH   1  16
TORSDOF 4
