REMARK  Name = ZINCpe00000MJIVk.0
REMARK                            x       y       z     vdW  Elec       q    Type
REMARK                         _______ _______ _______ _____ _____    ______ ____
ROOT
ATOM      1  C   LIG    1       -0.225   0.878   1.572  0.00  0.00    -0.080 C 
ATOM      2  C   LIG    1       -1.269   1.936   1.256  0.00  0.00    +0.030 C 
ATOM      3  C   LIG    1       -2.019   1.629  -0.035  0.00  0.00    +0.220 C 
ATOM      4  O   LIG    1       -1.063   1.508  -1.094  0.00  0.00    -0.370 OA
ATOM      5  C   LIG    1       -0.239   0.375  -0.946  0.00  0.00    +0.230 C 
ATOM      6  C   LIG    1        0.893   1.544   2.413  0.00  0.00    +0.300 C 
ATOM      7  N   LIG    1        1.900   1.988   1.433  0.00  0.00    -0.610 N 
ATOM      8  C   LIG    1        2.716   3.053   1.559  0.00  0.00    +0.590 C 
ATOM      9  O   LIG    1        2.593   3.805   2.506  0.00  0.00    -0.530 OA
ATOM     10  C   LIG    1        1.854   1.059   0.293  0.00  0.00    +0.270 C 
ATOM     11  C   LIG    1        0.506   0.334   0.358  0.00  0.00    -0.020 C 
ENDROOT
BRANCH   8  12
ATOM     12  C   LIG    1        3.759   3.307   0.546  0.00  0.00    -0.230 A 
ATOM     13  C   LIG    1        4.038   2.352  -0.443  0.00  0.00    +0.140 A 
ATOM     14  C   LIG    1        5.019   2.638  -1.372  0.00  0.00    -0.050 A 
ATOM     15  C   LIG    1        5.701   3.848  -1.290  0.00  0.00    +0.350 A 
ATOM     16  N   LIG    1        5.418   4.727  -0.341  0.00  0.00    -0.540 NA
ATOM     17  C   LIG    1        4.487   4.498   0.561  0.00  0.00    +0.380 A 
BRANCH  15  18
ATOM     18  O   LIG    1        6.668   4.131  -2.196  0.00  0.00    -0.300 OA
BRANCH  18  19
ATOM     19  C   LIG    1        7.334   5.388  -2.062  0.00  0.00    +0.240 C 
BRANCH  19  20
ATOM     20  C   LIG    1        8.386   5.528  -3.164  0.00  0.00    -0.040 C 
ATOM     21  C   LIG    1        9.852   5.617  -2.735  0.00  0.00    +0.020 C 
ATOM     22  C   LIG    1        9.132   6.861  -3.264  0.00  0.00    +0.030 C 
ENDBRANCH  19  20
ENDBRANCH  18  19
ENDBRANCH  15  18
ENDBRANCH   8  12
BRANCH   1  26
ATOM     23  N   LIG    1       -1.547   0.002   3.470  0.00  0.00    -0.850 N 
ATOM     24  H   LIG    1       -1.947  -0.727   3.970  0.00  0.00    +0.410 HD
ATOM     25  H   LIG    1       -1.652   0.916   3.778  0.00  0.00    +0.400 HD
ATOM     26  C   LIG    1       -0.846  -0.254   2.349  0.00  0.00    +0.530 C 
ATOM     27  O   LIG    1       -0.714  -1.397   1.964  0.00  0.00    -0.530 OA
ENDBRANCH   1  26
TORSDOF 5
