REMARK  Name = ZINCrD00000F5LBz.0
REMARK                            x       y       z     vdW  Elec       q    Type
REMARK                         _______ _______ _______ _____ _____    ______ ____
ROOT
ATOM      1  N   LIG    1       -2.038  -4.453  -0.002  0.00  0.00    -0.710 N 
ATOM      2  H   LIG    1       -1.146  -4.832  -0.012  0.00  0.00    +0.400 HD
ATOM      3  C   LIG    1       -2.202  -3.115   0.007  0.00  0.00    +0.570 C 
ATOM      4  O   LIG    1       -3.321  -2.639   0.020  0.00  0.00    -0.530 OA
ENDROOT
BRANCH   3   5
ATOM      5  C   LIG    1       -1.024  -2.228   0.000  0.00  0.00    -0.140 A 
ATOM      6  C   LIG    1        0.267  -2.747  -0.015  0.00  0.00    +0.070 A 
ATOM      7  C   LIG    1        1.390  -1.926  -0.021  0.00  0.00    +0.000 A 
ATOM      8  C   LIG    1        1.275  -0.568  -0.013  0.00  0.00    -0.040 A 
ATOM      9  C   LIG    1        2.269   0.570  -0.016  0.00  0.00    +0.100 C 
ATOM     10  C   LIG    1        1.417   1.857  -0.002  0.00  0.00    +0.100 C 
ATOM     11  C   LIG    1       -0.017   1.387   0.010  0.00  0.00    -0.080 A 
ATOM     12  C   LIG    1       -1.228   2.009   0.029  0.00  0.00    +0.030 A 
ATOM     13  C   LIG    1       -2.406   1.261   0.032  0.00  0.00    +0.030 A 
ATOM     14  C   LIG    1       -2.401  -0.106   0.025  0.00  0.00    +0.050 A 
ATOM     15  C   LIG    1        0.002  -0.004   0.002  0.00  0.00    -0.090 A 
ATOM     16  C   LIG    1       -1.173  -0.775   0.009  0.00  0.00    -0.000 A 
ENDBRANCH   3   5
BRANCH   1  19
ATOM     17  C   LIG    1       -3.789  -7.310   0.527  0.00  0.00    +0.280 C 
ATOM     18  C   LIG    1       -3.430  -6.057   1.346  0.00  0.00    +0.010 C 
ATOM     19  C   LIG    1       -3.209  -5.334   0.005  0.00  0.00    +0.260 C 
ATOM     20  C   LIG    1       -2.942  -6.714  -0.597  0.00  0.00    -0.120 C 
ATOM     21  C   LIG    1       -1.515  -7.201  -0.855  0.00  0.00    +0.040 C 
ATOM     22  C   LIG    1       -2.101  -8.031  -2.012  0.00  0.00    +0.010 C 
ATOM     23  C   LIG    1       -3.252  -7.011  -2.064  0.00  0.00    +0.040 C 
BRANCH  17  26
ATOM     24  O   LIG    1       -5.249  -9.214   1.757  0.00  0.00    -0.510 OA
ATOM     25  C   LIG    1       -4.060  -9.441   1.678  0.00  0.00    +0.500 C 
ATOM     26  N   LIG    1       -3.243  -8.551   1.081  0.00  0.00    -0.720 N 
ATOM     27  H   LIG    1       -2.292  -8.733   1.018  0.00  0.00    +0.400 HD
BRANCH  25  28
ATOM     28  C   LIG    1       -3.498 -10.717   2.248  0.00  0.00    +0.170 C 
ATOM     29 CL   LIG    1       -4.831 -11.691   2.974  0.00  0.00    -0.130 Cl
ENDBRANCH  25  28
ENDBRANCH  17  26
ENDBRANCH   1  19
TORSDOF 4
