REMARK  Name = ZINCtV00000L6ktN.0
REMARK                            x       y       z     vdW  Elec       q    Type
REMARK                         _______ _______ _______ _____ _____    ______ ____
ROOT
ATOM      1  C   LIG    1        0.689  -1.991   1.345  0.00  0.00    +0.120 A 
ATOM      2  N   LIG    1       -0.380  -2.706   1.141  0.00  0.00    -0.430 NA
ATOM      3  C   LIG    1       -0.414  -3.905   1.693  0.00  0.00    +0.110 A 
ATOM      4  C   LIG    1        0.674  -4.240   2.416  0.00  0.00    -0.040 A 
ATOM      5  S   LIG    1        1.810  -2.894   2.358  0.00  0.00    +0.120 S 
ENDROOT
BRANCH   1  16
ATOM      6  O   LIG    1       -0.856  -0.593  -0.715  0.00  0.00    -0.400 OA
ATOM      7  C   LIG    1       -0.079   0.046  -0.029  0.00  0.00    +0.530 A 
ATOM      8  O   LIG    1       -0.111   1.396  -0.021  0.00  0.00    -0.270 OA
ATOM      9  C   LIG    1        1.087   2.028  -0.037  0.00  0.00    +0.140 A 
ATOM     10  C   LIG    1        1.209   3.296  -0.588  0.00  0.00    +0.020 A 
ATOM     11  C   LIG    1        2.436   3.928  -0.591  0.00  0.00    +0.080 A 
ATOM     12  C   LIG    1        3.552   3.308  -0.048  0.00  0.00    +0.000 A 
ATOM     13  C   LIG    1        3.456   2.060   0.499  0.00  0.00    +0.090 A 
ATOM     14  C   LIG    1        2.222   1.401   0.511  0.00  0.00    -0.150 A 
ATOM     15  C   LIG    1        2.092   0.060   1.087  0.00  0.00    +0.180 A 
ATOM     16  C   LIG    1        0.921  -0.634   0.814  0.00  0.00    -0.140 A 
ENDBRANCH   1  16
BRANCH   3  17
ATOM     17  C   LIG    1       -1.571  -4.819   1.532  0.00  0.00    +0.010 A 
ATOM     18  C   LIG    1       -1.557  -6.076   2.135  0.00  0.00    +0.020 A 
ATOM     19  C   LIG    1       -2.635  -6.922   1.989  0.00  0.00    +0.080 A 
ATOM     20  C   LIG    1       -3.732  -6.527   1.231  0.00  0.00    -0.130 A 
ATOM     21  C   LIG    1       -3.746  -5.276   0.625  0.00  0.00    +0.070 A 
ATOM     22  C   LIG    1       -2.672  -4.425   0.773  0.00  0.00    +0.050 A 
BRANCH  20  23
ATOM     23  S   LIG    1       -5.107  -7.613   1.040  0.00  0.00    -0.010 S 
BRANCH  23  24
ATOM     24  C   LIG    1       -4.759  -8.429  -0.482  0.00  0.00    -0.100 A 
ATOM     25  C   LIG    1       -3.553  -8.202  -1.134  0.00  0.00    +0.000 A 
ATOM     26  C   LIG    1       -3.281  -8.847  -2.325  0.00  0.00    +0.020 A 
ATOM     27  C   LIG    1       -4.212  -9.710  -2.874  0.00  0.00    +0.000 A 
ATOM     28  C   LIG    1       -5.416  -9.934  -2.230  0.00  0.00    +0.030 A 
ATOM     29  C   LIG    1       -5.692  -9.296  -1.037  0.00  0.00    +0.030 A 
ENDBRANCH  23  24
ENDBRANCH  20  23
ENDBRANCH   3  17
TORSDOF 4
