REMARK  Name = ZINCwl0000000DUH.0
REMARK                            x       y       z     vdW  Elec       q    Type
REMARK                         _______ _______ _______ _____ _____    ______ ____
ROOT
ATOM      1  C   LIG    1        0.499   1.671  -8.978  0.00  0.00    +0.590 C 
ATOM      2  N   LIG    1        0.241   1.707  -7.656  0.00  0.00    -0.620 N 
ATOM      3  C   LIG    1       -0.776   0.827  -7.067  0.00  0.00    +0.270 C 
ATOM      4  C   LIG    1       -1.769   1.682  -6.273  0.00  0.00    +0.020 C 
ATOM      5  C   LIG    1       -1.004   2.529  -5.253  0.00  0.00    +0.250 C 
ATOM      6  C   LIG    1       -0.038   3.463  -5.985  0.00  0.00    +0.020 C 
ATOM      7  C   LIG    1        0.973   2.628  -6.776  0.00  0.00    +0.300 C 
ATOM      8  O   LIG    1        1.252   2.487  -9.474  0.00  0.00    -0.510 OA
ENDROOT
BRANCH   1  14
ATOM      9  C   LIG    1       -2.146  -2.946 -11.822  0.00  0.00    +0.170 A 
ATOM     10  C   LIG    1       -1.994  -2.134 -12.944  0.00  0.00    -0.090 A 
ATOM     11  C   LIG    1       -1.416  -0.904 -12.837  0.00  0.00    +0.110 A 
ATOM     12  C   LIG    1       -0.968  -0.449 -11.589  0.00  0.00    -0.150 A 
ATOM     13  C   LIG    1       -0.343   0.746 -11.160  0.00  0.00    +0.080 A 
ATOM     14  C   LIG    1       -0.130   0.645  -9.821  0.00  0.00    -0.010 A 
ATOM     15  N   LIG    1       -0.596  -0.581  -9.380  0.00  0.00    -0.580 N 
ATOM     16  H   LIG    1       -0.560  -0.903  -8.466  0.00  0.00    +0.420 HD
ATOM     17  C   LIG    1       -1.119  -1.266 -10.451  0.00  0.00    +0.150 A 
ATOM     18  C   LIG    1       -1.712  -2.517 -10.581  0.00  0.00    -0.050 A 
BRANCH   9  20
ATOM     19  C   LIG    1       -3.153  -4.552 -13.256  0.00  0.00    +0.250 C 
ATOM     20  O   LIG    1       -2.726  -4.168 -11.947  0.00  0.00    -0.310 OA
ENDBRANCH   9  20
ENDBRANCH   1  14
BRANCH   5  21
ATOM     21  N   LIG    1       -1.953   3.323  -4.469  0.00  0.00    -0.600 N 
ATOM     22  C   LIG    1       -2.016   3.170  -3.131  0.00  0.00    +0.530 C 
ATOM     23  O   LIG    1       -1.288   2.375  -2.577  0.00  0.00    -0.510 OA
ATOM     24  C   LIG    1       -2.832   4.285  -5.139  0.00  0.00    +0.290 C 
BRANCH  22  25
ATOM     25  C   LIG    1       -2.992   3.988  -2.325  0.00  0.00    -0.020 C 
ATOM     26  C   LIG    1       -2.691   5.475  -2.516  0.00  0.00    +0.330 C 
ATOM     27  N   LIG    1       -3.596   6.295  -1.703  0.00  0.00    -0.610 NA
ATOM     28  C   LIG    1       -4.013   5.833  -0.554  0.00  0.00    +0.620 C 
ATOM     29  N   LIG    1       -4.812   6.407   0.370  0.00  0.00    -0.520 NA
ATOM     30  C   LIG    1       -4.968   5.602   1.387  0.00  0.00    +0.700 C 
ATOM     31  N   LIG    1       -4.275   4.448   1.170  0.00  0.00    -0.450 N 
ATOM     32  H   LIG    1       -4.210   3.689   1.770  0.00  0.00    +0.480 HD
ATOM     33  N   LIG    1       -3.679   4.570  -0.082  0.00  0.00    -0.410 NA
ATOM     34  H   LIG    1       -3.880   7.168  -2.014  0.00  0.00    +0.460 HD
ATOM     35  C   LIG    1       -2.861   3.621  -0.838  0.00  0.00    +0.400 C 
ENDBRANCH  22  25
ENDBRANCH   5  21
TORSDOF 4
