REMARK  Name = ZINCqH0000038doj.0
REMARK                            x       y       z     vdW  Elec       q    Type
REMARK                         _______ _______ _______ _____ _____    ______ ____
ROOT
ATOM      1  C   LIG    1       -4.058   1.853   4.845  0.00  0.00    +0.320 C 
ATOM      2  C   LIG    1       -4.827   3.045   4.275  0.00  0.00    +0.220 C 
ATOM      3  O   LIG    1       -4.348   4.249   4.878  0.00  0.00    -0.370 OA
ATOM      4  C   LIG    1       -2.972   4.529   4.613  0.00  0.00    +0.220 C 
ATOM      5  C   LIG    1       -2.106   3.411   5.205  0.00  0.00    +0.250 C 
ATOM      6  N   LIG    1       -2.616   2.120   4.717  0.00  0.00    -0.630 N 
ATOM      7  C   LIG    1       -1.789   1.212   4.162  0.00  0.00    +0.710 C 
ATOM      8  N   LIG    1       -0.489   1.513   3.970  0.00  0.00    -0.730 N 
ATOM      9  H   LIG    1       -0.133   2.355   4.295  0.00  0.00    +0.400 HD
ATOM     10  O   LIG    1       -2.215   0.121   3.837  0.00  0.00    -0.550 OA
ENDROOT
BRANCH   1  15
ATOM     11  C   LIG    1       -4.448  -1.482   1.082  0.00  0.00    +0.160 C 
ATOM     12  C   LIG    1       -4.583  -0.844   2.440  0.00  0.00    +0.000 A 
ATOM     13  C   LIG    1       -5.197  -1.387   3.507  0.00  0.00    -0.080 A 
ATOM     14  C   LIG    1       -5.083  -0.454   4.563  0.00  0.00    -0.060 A 
ATOM     15  C   LIG    1       -4.413   0.606   4.076  0.00  0.00    +0.020 A 
ATOM     16  O   LIG    1       -4.110   0.363   2.791  0.00  0.00    -0.150 OA
ENDBRANCH   1  15
BRANCH   8  17
ATOM     17  C   LIG    1        0.385   0.570   3.268  0.00  0.00    +0.330 C 
BRANCH  17  18
ATOM     18  C   LIG    1        1.813   0.797   3.694  0.00  0.00    +0.120 A 
ATOM     19  N   LIG    1        2.253   2.027   3.867  0.00  0.00    -0.470 NA
ATOM     20  C   LIG    1        3.493   2.274   4.244  0.00  0.00    +0.250 A 
ATOM     21  C   LIG    1        4.384   1.240   4.460  0.00  0.00    -0.030 A 
ATOM     22  C   LIG    1        3.959  -0.068   4.283  0.00  0.00    +0.070 A 
ATOM     23  C   LIG    1        2.647  -0.287   3.892  0.00  0.00    -0.120 A 
ATOM     24  C   LIG    1        2.137  -1.690   3.686  0.00  0.00    +0.110 C 
ENDBRANCH  17  18
BRANCH  17  25
ATOM     25  C   LIG    1        0.262   0.787   1.758  0.00  0.00    -0.020 C 
ATOM     26  C   LIG    1        0.793   2.176   1.398  0.00  0.00    +0.020 C 
ATOM     27  C   LIG    1        1.078  -0.278   1.022  0.00  0.00    +0.020 C 
ENDBRANCH  17  25
ENDBRANCH   8  17
TORSDOF 4
