REMARK  Name = ZINCrD000000AhBu.0
REMARK                            x       y       z     vdW  Elec       q    Type
REMARK                         _______ _______ _______ _____ _____    ______ ____
ROOT
ATOM      1  O   LIG    1        7.726   0.835  -0.298  0.00  0.00    -0.540 OA
ATOM      2  C   LIG    1        7.033   0.951  -1.287  0.00  0.00    +0.510 C 
ATOM      3  N   LIG    1        7.603   1.011  -2.507  0.00  0.00    -0.720 N 
ATOM      4  H   LIG    1        7.048   1.104  -3.297  0.00  0.00    +0.410 HD
ENDROOT
BRANCH   3   5
ATOM      5  C   LIG    1        9.060   0.938  -2.638  0.00  0.00    +0.280 C 
BRANCH   5   6
ATOM      6  C   LIG    1        9.444   1.029  -4.117  0.00  0.00    +0.250 C 
BRANCH   6   7
ATOM      7  N   LIG    1        8.734  -0.012  -4.872  0.00  0.00    -0.520 NA
ATOM      8  C   LIG    1        8.837  -1.314  -4.198  0.00  0.00    +0.150 C 
ATOM      9  C   LIG    1        8.036  -2.355  -4.985  0.00  0.00    +0.230 C 
ATOM     10  O   LIG    1        8.518  -2.402  -6.330  0.00  0.00    -0.380 OA
ATOM     11  C   LIG    1        8.432  -1.151  -7.017  0.00  0.00    +0.220 C 
ATOM     12  C   LIG    1        9.237  -0.098  -6.251  0.00  0.00    +0.160 C 
ENDBRANCH   6   7
BRANCH   6  13
ATOM     13  C   LIG    1       10.930   0.831  -4.263  0.00  0.00    -0.220 A 
ATOM     14  C   LIG    1       11.803   1.781  -4.603  0.00  0.00    +0.020 A 
ATOM     15  C   LIG    1       13.121   1.364  -4.675  0.00  0.00    +0.000 A 
ATOM     16  C   LIG    1       13.319   0.075  -4.393  0.00  0.00    -0.060 A 
ATOM     17  S   LIG    1       11.781  -0.686  -4.005  0.00  0.00    +0.120 S 
ENDBRANCH   6  13
ENDBRANCH   5   6
ENDBRANCH   3   5
BRANCH   2  18
ATOM     18  C   LIG    1        5.534   1.026  -1.151  0.00  0.00    +0.050 C 
BRANCH  18  19
ATOM     19  C   LIG    1        5.150   0.935   0.327  0.00  0.00    +0.130 C 
BRANCH  19  20
ATOM     20  C   LIG    1        3.651   1.010   0.463  0.00  0.00    -0.170 A 
ATOM     21  C   LIG    1        2.926   2.112   0.710  0.00  0.00    +0.220 A 
ATOM     22  N   LIG    1        1.597   1.794   0.765  0.00  0.00    -0.600 N 
ATOM     23  H   LIG    1        0.879   2.425   0.932  0.00  0.00    +0.420 HD
ATOM     24  C   LIG    1        1.429   0.444   0.549  0.00  0.00    +0.090 A 
ATOM     25  C   LIG    1        0.315  -0.387   0.499  0.00  0.00    -0.010 A 
ATOM     26  C   LIG    1        0.476  -1.733   0.256  0.00  0.00    +0.020 A 
ATOM     27  C   LIG    1        1.740  -2.271   0.060  0.00  0.00    -0.030 A 
ATOM     28  C   LIG    1        2.849  -1.473   0.105  0.00  0.00    +0.050 A 
ATOM     29  C   LIG    1        2.709  -0.106   0.350  0.00  0.00    -0.100 A 
ENDBRANCH  19  20
ENDBRANCH  18  19
ENDBRANCH   2  18
TORSDOF 7
