REMARK  Name = ZINCpk00000y6uio.0
REMARK                            x       y       z     vdW  Elec       q    Type
REMARK                         _______ _______ _______ _____ _____    ______ ____
ROOT
ATOM      1  C   LIG    1       -1.529   3.677   2.608  0.00  0.00    +0.470 A 
ATOM      2  C   LIG    1       -2.623   2.895   2.293  0.00  0.00    -0.020 A 
ATOM      3  C   LIG    1       -2.434   1.538   2.041  0.00  0.00    +0.160 A 
ATOM      4  N   LIG    1       -1.228   1.012   2.094  0.00  0.00    -0.410 NA
ATOM      5  C   LIG    1       -0.158   1.759   2.393  0.00  0.00    +0.450 A 
ATOM      6  N   LIG    1        1.133   1.469   2.506  0.00  0.00    -0.510 NA
ATOM      7  C   LIG    1        1.812   2.564   2.824  0.00  0.00    +0.500 A 
ATOM      8  N   LIG    1        0.989   3.579   2.925  0.00  0.00    -0.310 NA
ATOM      9  N   LIG    1       -0.296   3.093   2.652  0.00  0.00    -0.330 N 
ENDROOT
BRANCH   1  15
ATOM     10  C   LIG    1       -1.055   6.034   2.001  0.00  0.00    +0.360 C 
ATOM     11  C   LIG    1       -2.132   7.058   1.607  0.00  0.00    +0.250 C 
ATOM     12  O   LIG    1       -2.773   7.542   2.790  0.00  0.00    -0.360 OA
ATOM     13  C   LIG    1       -3.467   6.537   3.533  0.00  0.00    +0.230 C 
ATOM     14  C   LIG    1       -2.463   5.487   4.022  0.00  0.00    +0.290 C 
ATOM     15  N   LIG    1       -1.679   5.021   2.867  0.00  0.00    -0.640 N 
BRANCH  10  20
ATOM     16  C   LIG    1        1.917   4.577  -1.757  0.00  0.00    +0.210 C 
ATOM     17  C   LIG    1        0.742   4.750  -0.829  0.00  0.00    +0.170 A 
ATOM     18  N   LIG    1       -0.419   4.177  -0.944  0.00  0.00    -0.370 NA
ATOM     19  O   LIG    1       -1.149   4.522  -0.039  0.00  0.00    +0.080 OA
ATOM     20  C   LIG    1       -0.503   5.373   0.764  0.00  0.00    +0.150 A 
ATOM     21  N   LIG    1        0.700   5.529   0.266  0.00  0.00    -0.440 NA
ENDBRANCH  10  20
ENDBRANCH   1  15
BRANCH   3  22
ATOM     22  C   LIG    1       -3.616   0.667   1.701  0.00  0.00    +0.530 C 
ATOM     23  F   LIG    1       -4.530   0.688   2.759  0.00  0.00    -0.160 F 
ATOM     24  F   LIG    1       -4.232   1.151   0.542  0.00  0.00    -0.160 F 
ATOM     25  F   LIG    1       -3.182  -0.645   1.486  0.00  0.00    -0.150 F 
ENDBRANCH   3  22
TORSDOF 3
