REMARK  Name = ZINCrg000000p4cu.0
REMARK                            x       y       z     vdW  Elec       q    Type
REMARK                         _______ _______ _______ _____ _____    ______ ____
ROOT
ATOM      1  C   LIG    1        2.440   3.930  -0.000  0.00  0.00    +0.560 C 
ATOM      2  N   LIG    1        3.612   3.265  -0.015  0.00  0.00    -0.710 N 
ATOM      3  H   LIG    1        3.620   2.295  -0.020  0.00  0.00    +0.410 HD
ATOM      4  O   LIG    1        2.431   5.145   0.007  0.00  0.00    -0.520 OA
ENDROOT
BRANCH   1  11
ATOM      5  C   LIG    1       -4.879   2.411   0.038  0.00  0.00    +0.340 C 
ATOM      6  N   LIG    1       -3.414   2.430   0.031  0.00  0.00    -0.580 N 
ATOM      7  C   LIG    1       -2.640   1.330   0.022  0.00  0.00    +0.570 C 
ATOM      8  C   LIG    1       -1.221   1.753   0.017  0.00  0.00    -0.110 A 
ATOM      9  C   LIG    1       -0.013   1.076   0.008  0.00  0.00    +0.100 A 
ATOM     10  C   LIG    1        1.177   1.786   0.000  0.00  0.00    +0.090 A 
ATOM     11  C   LIG    1        1.164   3.180   0.008  0.00  0.00    -0.110 A 
ATOM     12  C   LIG    1       -0.051   3.871   0.024  0.00  0.00    +0.170 A 
ATOM     13  C   LIG    1       -1.240   3.163   0.031  0.00  0.00    -0.150 A 
ATOM     14  O   LIG    1       -3.037   0.183   0.017  0.00  0.00    -0.450 OA
ATOM     15  C   LIG    1       -2.668   3.548   0.048  0.00  0.00    +0.580 C 
ATOM     16  O   LIG    1       -3.095   4.685   0.059  0.00  0.00    -0.450 OA
ENDBRANCH   1  11
BRANCH   2  17
ATOM     17  C   LIG    1        4.875   4.007  -0.023  0.00  0.00    +0.320 C 
BRANCH  17  18
ATOM     18  C   LIG    1        6.028   3.037  -0.039  0.00  0.00    +0.510 C 
ATOM     19  N   LIG    1        7.295   3.496  -0.049  0.00  0.00    -0.720 N 
ATOM     20  H   LIG    1        7.465   4.451  -0.045  0.00  0.00    +0.410 HD
ATOM     21  O   LIG    1        5.816   1.843  -0.044  0.00  0.00    -0.530 OA
BRANCH  19  22
ATOM     22  C   LIG    1        8.416   2.553  -0.065  0.00  0.00    +0.260 C 
BRANCH  22  23
ATOM     23  C   LIG    1        9.735   3.328  -0.073  0.00  0.00    +0.070 C 
BRANCH  23  24
ATOM     24  C   LIG    1       10.888   2.358  -0.089  0.00  0.00    -0.090 A 
ATOM     25  C   LIG    1       11.432   1.911   1.100  0.00  0.00    +0.010 A 
ATOM     26  C   LIG    1       12.486   1.017   1.085  0.00  0.00    +0.000 A 
ATOM     27  C   LIG    1       13.004   0.578  -0.119  0.00  0.00    +0.000 A 
ATOM     28  C   LIG    1       12.463   1.029  -1.309  0.00  0.00    +0.000 A 
ATOM     29  C   LIG    1       11.405   1.919  -1.294  0.00  0.00    +0.010 A 
ENDBRANCH  23  24
ENDBRANCH  22  23
ENDBRANCH  19  22
ENDBRANCH  17  18
ENDBRANCH   2  17
TORSDOF 6
