REMARK  Name = ZINCtV00000srpxH.0
REMARK                            x       y       z     vdW  Elec       q    Type
REMARK                         _______ _______ _______ _____ _____    ______ ____
ROOT
ATOM      1  C   LIG    1        2.220   6.665   0.406  0.00  0.00    +0.190 C 
ATOM      2  C   LIG    1        1.518   5.337   0.284  0.00  0.00    +0.300 A 
ATOM      3  N   LIG    1        0.231   5.163   0.369  0.00  0.00    -0.490 NA
ATOM      4  C   LIG    1       -0.064   3.846   0.215  0.00  0.00    +0.070 A 
ATOM      5  C   LIG    1       -1.259   3.123   0.216  0.00  0.00    +0.080 A 
ATOM      6  C   LIG    1       -1.232   1.754   0.023  0.00  0.00    +0.140 A 
ATOM      7  C   LIG    1       -0.020   1.093  -0.165  0.00  0.00    +0.020 A 
ATOM      8  C   LIG    1        1.165   1.797  -0.169  0.00  0.00    +0.050 A 
ATOM      9  C   LIG    1        1.153   3.172   0.020  0.00  0.00    +0.040 A 
ATOM     10  N   LIG    1        2.138   4.143   0.069  0.00  0.00    -0.450 N 
ENDROOT
BRANCH  10  11
ATOM     11  C   LIG    1        3.517   3.937  -0.076  0.00  0.00    +0.120 A 
ATOM     12  C   LIG    1        4.212   3.195   0.869  0.00  0.00    +0.020 A 
ATOM     13  C   LIG    1        5.570   2.990   0.721  0.00  0.00    +0.030 A 
ATOM     14  C   LIG    1        6.239   3.531  -0.362  0.00  0.00    +0.020 A 
ATOM     15  C   LIG    1        5.550   4.274  -1.302  0.00  0.00    +0.030 A 
ATOM     16  C   LIG    1        4.191   4.479  -1.162  0.00  0.00    +0.020 A 
ENDBRANCH  10  11
BRANCH   6  17
ATOM     17  N   LIG    1       -2.429   1.028   0.019  0.00  0.00    -0.660 N 
ATOM     18  H   LIG    1       -2.448   0.122   0.366  0.00  0.00    +0.410 HD
ATOM     19  C   LIG    1       -3.555   1.587  -0.466  0.00  0.00    +0.590 C 
ATOM     20  O   LIG    1       -3.513   2.685  -0.988  0.00  0.00    -0.480 OA
BRANCH  19  21
ATOM     21  C   LIG    1       -4.833   0.871  -0.364  0.00  0.00    -0.230 A 
ATOM     22  C   LIG    1       -6.005   1.337  -0.813  0.00  0.00    +0.040 A 
ATOM     23  C   LIG    1       -7.109   0.491  -0.615  0.00  0.00    -0.090 A 
ATOM     24  C   LIG    1       -8.462   0.698  -0.974  0.00  0.00    +0.080 A 
ATOM     25  C   LIG    1       -9.401  -0.245  -0.698  0.00  0.00    +0.020 A 
ATOM     26  C   LIG    1       -9.052  -1.428  -0.060  0.00  0.00    +0.060 A 
ATOM     27  C   LIG    1       -7.746  -1.659   0.301  0.00  0.00    +0.050 A 
ATOM     28  C   LIG    1       -6.762  -0.704   0.028  0.00  0.00    -0.120 A 
ATOM     29 CL   LIG    1       -6.150   2.884  -1.588  0.00  0.00    -0.000 Cl
ATOM     30  S   LIG    1       -5.032  -0.717   0.355  0.00  0.00    +0.160 S 
ENDBRANCH  19  21
ENDBRANCH   6  17
TORSDOF 3
