REMARK  Name = ZINCtV00000XGH2P.0
REMARK                            x       y       z     vdW  Elec       q    Type
REMARK                         _______ _______ _______ _____ _____    ______ ____
ROOT
ATOM      1  O   LIG    1       -1.972   5.246   0.048  0.00  0.00    -0.500 OA
ATOM      2  C   LIG    1       -2.127   4.034   0.043  0.00  0.00    +0.550 A 
ATOM      3  N   LIG    1       -3.362   3.514   0.052  0.00  0.00    -0.570 NA
ATOM      4  C   LIG    1       -3.551   2.212   0.047  0.00  0.00    +0.490 A 
ATOM      5  N   LIG    1       -2.514   1.336   0.033  0.00  0.00    -0.610 N 
ATOM      6  H   LIG    1       -2.690   0.382   0.030  0.00  0.00    +0.420 HD
ATOM      7  C   LIG    1       -1.197   1.799   0.017  0.00  0.00    +0.170 A 
ATOM      8  C   LIG    1       -0.013   1.076   0.008  0.00  0.00    +0.020 A 
ATOM      9  C   LIG    1        1.115   1.808   0.001  0.00  0.00    -0.120 A 
ATOM     10  S   LIG    1        0.726   3.520   0.013  0.00  0.00    +0.290 S 
ATOM     11  C   LIG    1       -0.998   3.171   0.028  0.00  0.00    -0.330 A 
ENDROOT
BRANCH   9  12
ATOM     12  C   LIG    1        2.484   1.251  -0.015  0.00  0.00    -0.020 A 
ATOM     13  C   LIG    1        2.852   0.268   0.905  0.00  0.00    +0.080 A 
ATOM     14  C   LIG    1        4.130  -0.251   0.881  0.00  0.00    +0.050 A 
ATOM     15  C   LIG    1        5.051   0.209  -0.044  0.00  0.00    -0.020 A 
ATOM     16  C   LIG    1        4.695   1.188  -0.956  0.00  0.00    +0.050 A 
ATOM     17 CL   LIG    1        6.659  -0.445  -0.062  0.00  0.00    -0.050 Cl
ATOM     18  C   LIG    1        3.418   1.712  -0.947  0.00  0.00    -0.010 A 
ATOM     19 CL   LIG    1        2.972   2.939  -2.091  0.00  0.00    -0.040 Cl
ENDBRANCH   9  12
BRANCH   4  20
ATOM     20  C   LIG    1       -4.932   1.689   0.059  0.00  0.00    -0.080 A 
ATOM     21  C   LIG    1       -5.157   0.310   0.048  0.00  0.00    +0.040 A 
ATOM     22  C   LIG    1       -6.444  -0.177   0.064  0.00  0.00    +0.040 A 
ATOM     23  C   LIG    1       -7.524   0.706   0.079  0.00  0.00    +0.020 A 
ATOM     24  C   LIG    1       -7.301   2.083   0.084  0.00  0.00    +0.040 A 
ATOM     25  C   LIG    1       -6.014   2.572   0.074  0.00  0.00    +0.110 A 
BRANCH  23  26
ATOM     26  C   LIG    1       -8.911   0.181   0.089  0.00  0.00    +0.100 A 
ATOM     27  N   LIG    1      -10.013   0.902   0.103  0.00  0.00    -0.270 NA
ATOM     28  N   LIG    1      -11.106   0.026   0.108  0.00  0.00    -0.470 N 
ATOM     29  H   LIG    1      -12.041   0.283   0.118  0.00  0.00    +0.440 HD
ATOM     30  C   LIG    1      -10.632  -1.239   0.097  0.00  0.00    +0.240 A 
ATOM     31  C   LIG    1       -9.283  -1.178   0.080  0.00  0.00    -0.110 A 
ENDBRANCH  23  26
ENDBRANCH   4  20
TORSDOF 3
