REMARK  Name = ZINCtV00000L6jOP.0
REMARK                            x       y       z     vdW  Elec       q    Type
REMARK                         _______ _______ _______ _____ _____    ______ ____
ROOT
ATOM      1  C   LIG    1        6.069  -0.590   0.740  0.00  0.00    +0.290 C 
ATOM      2  C   LIG    1        4.961   0.123  -0.051  0.00  0.00    +0.090 C 
ATOM      3  C   LIG    1        3.691  -0.679  -0.036  0.00  0.00    +0.220 C 
ATOM      4  N   LIG    1        3.682  -1.984  -0.043  0.00  0.00    -0.410 NA
ATOM      5  C   LIG    1        4.868  -2.648   0.018  0.00  0.00    +0.350 A 
ATOM      6  N   LIG    1        5.141  -3.906  -0.205  0.00  0.00    -0.420 NA
ATOM      7  C   LIG    1        6.462  -4.111  -0.024  0.00  0.00    +0.040 A 
ATOM      8  C   LIG    1        7.030  -2.926   0.346  0.00  0.00    +0.190 A 
ATOM      9  N   LIG    1        6.032  -2.010   0.384  0.00  0.00    -0.480 N 
ENDROOT
BRANCH   1  14
ATOM     10  F   LIG    1       11.070   1.583  -0.634  0.00  0.00    -0.130 F 
ATOM     11  C   LIG    1        9.869   1.061  -0.304  0.00  0.00    +0.120 A 
ATOM     12  C   LIG    1        9.442   1.083   1.013  0.00  0.00    -0.010 A 
ATOM     13  C   LIG    1        8.212   0.549   1.349  0.00  0.00    +0.080 A 
ATOM     14  C   LIG    1        7.409  -0.007   0.372  0.00  0.00    -0.130 A 
ATOM     15  C   LIG    1        7.837  -0.035  -0.943  0.00  0.00    +0.070 A 
ATOM     16  C   LIG    1        9.063   0.503  -1.282  0.00  0.00    -0.010 A 
ENDBRANCH   1  14
BRANCH   3  17
ATOM     17  C   LIG    1        2.405   0.036  -0.021  0.00  0.00    -0.070 A 
ATOM     18  C   LIG    1        1.203  -0.680  -0.013  0.00  0.00    +0.100 A 
ATOM     19  C   LIG    1        0.002  -0.004   0.002  0.00  0.00    +0.020 A 
ATOM     20  C   LIG    1       -0.017   1.381   0.010  0.00  0.00    -0.010 A 
ATOM     21  C   LIG    1        1.170   2.097   0.002  0.00  0.00    +0.020 A 
ATOM     22 CL   LIG    1       -1.534   2.224   0.021  0.00  0.00    -0.060 Cl
ATOM     23  C   LIG    1        2.378   1.434  -0.013  0.00  0.00    +0.060 A 
ENDBRANCH   3  17
BRANCH   7  24
ATOM     24  C   LIG    1        7.174  -5.401  -0.197  0.00  0.00    -0.000 A 
ATOM     25  C   LIG    1        8.549  -5.475   0.017  0.00  0.00    +0.010 A 
ATOM     26  C   LIG    1        9.206  -6.678  -0.140  0.00  0.00    +0.000 A 
ATOM     27  C   LIG    1        8.504  -7.808  -0.520  0.00  0.00    +0.000 A 
ATOM     28  C   LIG    1        7.139  -7.739  -0.740  0.00  0.00    +0.000 A 
ATOM     29  C   LIG    1        6.472  -6.542  -0.580  0.00  0.00    +0.040 A 
ENDBRANCH   7  24
TORSDOF 3
