REMARK  Name = ZINCrH000004qrrF.0
REMARK                            x       y       z     vdW  Elec       q    Type
REMARK                         _______ _______ _______ _____ _____    ______ ____
ROOT
ATOM      1  C   LIG    1        3.454   1.805  -0.728  0.00  0.00    +0.600 C 
ATOM      2  N   LIG    1        2.440   1.256  -0.032  0.00  0.00    -0.670 N 
ATOM      3  H   LIG    1        2.571   0.416   0.435  0.00  0.00    +0.410 HD
ATOM      4  O   LIG    1        3.317   2.899  -1.242  0.00  0.00    -0.530 OA
ENDROOT
BRANCH   1   8
ATOM      5  C   LIG    1        7.097  -1.747  -0.355  0.00  0.00    +0.120 C 
ATOM      6  C   LIG    1        6.323  -0.498  -0.691  0.00  0.00    +0.020 A 
ATOM      7  C   LIG    1        5.059  -0.237  -0.315  0.00  0.00    -0.020 A 
ATOM      8  C   LIG    1        4.729   1.082  -0.867  0.00  0.00    -0.240 A 
ATOM      9  C   LIG    1        5.843   1.500  -1.542  0.00  0.00    +0.120 A 
ATOM     10  C   LIG    1        5.985   2.803  -2.286  0.00  0.00    +0.140 C 
ATOM     11  N   LIG    1        6.791   0.552  -1.426  0.00  0.00    -0.440 N 
BRANCH  11  12
ATOM     12  C   LIG    1        8.132   0.633  -2.010  0.00  0.00    +0.410 C 
BRANCH  12  13
ATOM     13  C   LIG    1        8.113   0.044  -3.397  0.00  0.00    -0.050 A 
ATOM     14  C   LIG    1        7.863   0.718  -4.535  0.00  0.00    -0.030 A 
ATOM     15  C   LIG    1        7.946  -0.218  -5.591  0.00  0.00    -0.070 A 
ATOM     16  C   LIG    1        8.242  -1.407  -5.037  0.00  0.00    +0.190 A 
ATOM     17  O   LIG    1        8.347  -1.241  -3.708  0.00  0.00    -0.170 OA
ENDBRANCH  12  13
ENDBRANCH  11  12
ENDBRANCH   1   8
BRANCH   2  18
ATOM     18  C   LIG    1        1.202   1.894   0.018  0.00  0.00    +0.180 A 
ATOM     19  C   LIG    1        0.032   1.141   0.035  0.00  0.00    -0.030 A 
ATOM     20  C   LIG    1       -1.192   1.768   0.078  0.00  0.00    +0.070 A 
ATOM     21  C   LIG    1       -1.259   3.164   0.115  0.00  0.00    -0.160 A 
ATOM     22  C   LIG    1       -0.083   3.918   0.097  0.00  0.00    +0.100 A 
ATOM     23  C   LIG    1        1.138   3.284   0.049  0.00  0.00    +0.020 A 
BRANCH  21  24
ATOM     24  C   LIG    1       -2.570   3.840   0.167  0.00  0.00    +0.560 C 
ATOM     25  N   LIG    1       -3.667   3.221  -0.313  0.00  0.00    -0.620 N 
ATOM     26  C   LIG    1       -3.542   1.927  -0.987  0.00  0.00    +0.280 C 
ATOM     27  C   LIG    1       -4.985   3.843  -0.160  0.00  0.00    +0.300 C 
ATOM     28  O   LIG    1       -2.660   4.955   0.643  0.00  0.00    -0.540 OA
ENDBRANCH  21  24
ENDBRANCH   2  18
TORSDOF 5
