REMARK  Name = ZINCqH0000003T9A.0
REMARK                            x       y       z     vdW  Elec       q    Type
REMARK                         _______ _______ _______ _____ _____    ______ ____
ROOT
ATOM      1  N   LIG    1       -5.009   4.539  -0.626  0.00  0.00    -0.670 N 
ATOM      2  H   LIG    1       -4.830   3.586  -0.605  0.00  0.00    +0.410 HD
ATOM      3  C   LIG    1       -4.027   5.416  -0.336  0.00  0.00    +0.570 C 
ATOM      4  O   LIG    1       -4.273   6.605  -0.278  0.00  0.00    -0.490 OA
ENDROOT
BRANCH   3   5
ATOM      5  C   LIG    1       -2.654   4.932  -0.088  0.00  0.00    -0.200 A 
ATOM      6  C   LIG    1       -2.339   3.591  -0.275  0.00  0.00    +0.150 A 
ATOM      7  C   LIG    1       -1.018   3.183  -0.026  0.00  0.00    -0.130 A 
ATOM      8  C   LIG    1       -0.625   1.845  -0.199  0.00  0.00    +0.100 A 
ATOM      9  C   LIG    1        0.662   1.483   0.058  0.00  0.00    +0.000 A 
ATOM     10  C   LIG    1        1.599   2.426   0.481  0.00  0.00    +0.140 A 
ATOM     11  C   LIG    1        1.251   3.734   0.653  0.00  0.00    +0.010 A 
ATOM     12  F   LIG    1        2.870   2.039   0.722  0.00  0.00    -0.130 F 
ATOM     13  C   LIG    1       -0.068   4.144   0.403  0.00  0.00    +0.180 A 
ATOM     14  N   LIG    1       -0.431   5.423   0.566  0.00  0.00    -0.480 NA
ATOM     15  C   LIG    1       -1.655   5.824   0.339  0.00  0.00    +0.230 A 
ATOM     16  C   LIG    1       -2.002   7.277   0.541  0.00  0.00    +0.160 C 
ENDBRANCH   3   5
BRANCH   1  20
ATOM     17  C   LIG    1       -8.811   5.921  -1.617  0.00  0.00    -0.680 A 
ATOM     18  C   LIG    1       -7.695   6.657  -1.973  0.00  0.00    +0.150 A 
ATOM     19  C   LIG    1       -6.433   6.201  -1.646  0.00  0.00    +0.010 A 
ATOM     20  C   LIG    1       -6.285   5.003  -0.959  0.00  0.00    +0.200 A 
ATOM     21  C   LIG    1       -7.408   4.264  -0.609  0.00  0.00    -0.030 A 
ATOM     22  C   LIG    1       -8.667   4.728  -0.933  0.00  0.00    +0.150 A 
BRANCH  17  23
ATOM     23  S   LIG    1      -10.419   6.507  -2.035  0.00  0.00    +2.500 S 
ATOM     24  O   LIG    1      -10.266   7.916  -2.129  0.00  0.00    -0.930 OA
ATOM     25  O   LIG    1      -11.270   5.926  -1.056  0.00  0.00    -0.940 OA
BRANCH  23  27
ATOM     26  C   LIG    1      -12.135   6.233  -4.148  0.00  0.00    +0.080 C 
ATOM     27  C   LIG    1      -10.750   5.792  -3.670  0.00  0.00    -0.330 C 
ENDBRANCH  23  27
ENDBRANCH  17  23
ENDBRANCH   1  20
TORSDOF 4
