REMARK  Name = ZINCrD00000F5LAx.0
REMARK                            x       y       z     vdW  Elec       q    Type
REMARK                         _______ _______ _______ _____ _____    ______ ____
ROOT
ATOM      1  C   LIG    1        2.376   0.171  -0.637  0.00  0.00    +0.110 C 
ATOM      2  C   LIG    1        1.146  -0.724  -0.469  0.00  0.00    +0.160 C 
ATOM      3  C   LIG    1        1.087  -1.714  -1.598  0.00  0.00    +0.520 C 
ATOM      4  N   LIG    1       -0.095  -2.164  -2.062  0.00  0.00    -0.660 N 
ATOM      5  H   LIG    1       -0.112  -2.826  -2.769  0.00  0.00    +0.420 HD
ATOM      6  C   LIG    1       -1.298  -1.685  -1.533  0.00  0.00    +0.140 A 
ATOM      7  C   LIG    1       -2.494  -2.335  -1.792  0.00  0.00    +0.020 A 
ATOM      8  C   LIG    1       -3.674  -1.840  -1.267  0.00  0.00    +0.040 A 
ATOM      9  C   LIG    1       -3.667  -0.699  -0.485  0.00  0.00    +0.040 A 
ATOM     10  C   LIG    1       -2.477  -0.045  -0.220  0.00  0.00    +0.010 A 
ATOM     11  C   LIG    1       -1.294  -0.536  -0.740  0.00  0.00    +0.110 A 
ATOM     12  O   LIG    1        2.117  -2.111  -2.101  0.00  0.00    -0.500 OA
ATOM     13  C   LIG    1        1.236  -1.476   0.861  0.00  0.00    +0.080 C 
ATOM     14  N   LIG    1       -0.070   0.102  -0.485  0.00  0.00    -0.550 N 
ATOM     15  C   LIG    1       -0.011   1.431  -0.268  0.00  0.00    +0.530 C 
ATOM     16  O   LIG    1        1.038   1.946   0.060  0.00  0.00    -0.470 OA
ENDROOT
BRANCH  15  17
ATOM     17  C   LIG    1       -1.245   2.279  -0.438  0.00  0.00    +0.270 C 
BRANCH  17  18
ATOM     18  O   LIG    1       -0.859   3.666  -0.619  0.00  0.00    -0.310 OA
BRANCH  18  19
ATOM     19  C   LIG    1       -1.852   4.561  -0.787  0.00  0.00    +0.520 C 
ATOM     20  O   LIG    1       -3.009   4.192  -0.781  0.00  0.00    -0.470 OA
BRANCH  19  21
ATOM     21  C   LIG    1       -1.533   5.993  -0.977  0.00  0.00    +0.120 A 
ATOM     22  N   LIG    1       -0.266   6.391  -0.981  0.00  0.00    -0.410 NA
ATOM     23  C   LIG    1        0.060   7.655  -1.148  0.00  0.00    +0.170 A 
ATOM     24  C   LIG    1       -0.916   8.626  -1.326  0.00  0.00    +0.060 A 
ATOM     25  C   LIG    1       -2.250   8.255  -1.328  0.00  0.00    +0.110 A 
ATOM     26 CL   LIG    1        1.734   8.115  -1.145  0.00  0.00    -0.000 Cl
ATOM     27  C   LIG    1       -2.565   6.914  -1.155  0.00  0.00    -0.030 A 
ATOM     28 CL   LIG    1       -4.221   6.391  -1.156  0.00  0.00    +0.000 Cl
ENDBRANCH  19  21
ENDBRANCH  18  19
ENDBRANCH  17  18
ENDBRANCH  15  17
TORSDOF 4
