REMARK  Name = ZINCrH000004sSUA.0
REMARK                            x       y       z     vdW  Elec       q    Type
REMARK                         _______ _______ _______ _____ _____    ______ ____
ROOT
ATOM      1  C   LIG    1        0.002  -0.004   0.002  0.00  0.00    +0.610 C 
ATOM      2  N   LIG    1       -0.027   1.326  -0.214  0.00  0.00    -0.590 N 
ATOM      3  C   LIG    1        1.201   2.128  -0.191  0.00  0.00    +0.290 C 
ATOM      4  C   LIG    1        1.397   2.832  -1.521  0.00  0.00    -0.030 C 
ATOM      5  C   LIG    1        0.118   3.185  -2.220  0.00  0.00    -0.050 A 
ATOM      6  C   LIG    1        0.212   3.918  -3.398  0.00  0.00    +0.020 A 
ATOM      7  C   LIG    1       -0.923   4.282  -4.102  0.00  0.00    +0.050 A 
ATOM      8  C   LIG    1       -2.176   3.913  -3.626  0.00  0.00    +0.050 A 
ATOM      9  O   LIG    1       -3.302   4.268  -4.291  0.00  0.00    -0.310 OA
ATOM     10  C   LIG    1       -3.197   4.757  -5.619  0.00  0.00    +0.220 C 
ATOM     11  C   LIG    1       -1.952   5.610  -5.808  0.00  0.00    +0.220 C 
ATOM     12  C   LIG    1       -2.269   3.180  -2.454  0.00  0.00    +0.040 A 
ATOM     13  O   LIG    1       -0.802   4.992  -5.251  0.00  0.00    -0.310 OA
ATOM     14  C   LIG    1       -1.128   2.821  -1.756  0.00  0.00    -0.080 A 
ATOM     15  C   LIG    1        2.259   1.946  -2.453  0.00  0.00    +0.030 C 
ATOM     16  C   LIG    1        3.697   2.207  -1.940  0.00  0.00    +0.010 C 
ATOM     17  C   LIG    1        3.706   3.709  -1.586  0.00  0.00    +0.010 C 
ATOM     18  C   LIG    1        2.243   4.106  -1.319  0.00  0.00    +0.030 C 
ATOM     19  C   LIG    1       -1.289   2.027  -0.487  0.00  0.00    +0.300 C 
ATOM     20  C   LIG    1       -1.615   2.974   0.670  0.00  0.00    +0.040 C 
ATOM     21  O   LIG    1        1.068  -0.581   0.099  0.00  0.00    -0.530 OA
ENDROOT
BRANCH   1  24
ATOM     22  C   LIG    1       -0.265  -3.118   0.225  0.00  0.00    +0.210 C 
ATOM     23  C   LIG    1       -1.385  -2.111   0.218  0.00  0.00    +0.050 A 
ATOM     24  C   LIG    1       -1.258  -0.759   0.121  0.00  0.00    -0.080 A 
ATOM     25  N   LIG    1       -2.514  -0.236   0.149  0.00  0.00    -0.460 NA
ATOM     26  C   LIG    1       -3.365  -1.212   0.262  0.00  0.00    +0.440 A 
ATOM     27  O   LIG    1       -2.699  -2.375   0.310  0.00  0.00    -0.200 OA
ENDBRANCH   1  24
TORSDOF 1
