REMARK  Name = ZINCrD00000760q4.0
REMARK                            x       y       z     vdW  Elec       q    Type
REMARK                         _______ _______ _______ _____ _____    ______ ____
ROOT
ATOM      1  C   LIG    1        1.018  10.292   0.048  0.00  0.00    -0.130 A 
ATOM      2  C   LIG    1        1.536  11.520   0.409  0.00  0.00    +0.270 A 
ATOM      3  C   LIG    1        2.508  11.600   1.389  0.00  0.00    -0.720 A 
ATOM      4  C   LIG    1        2.961  10.453   2.014  0.00  0.00    +0.240 A 
ATOM      5  C   LIG    1        2.443   9.222   1.661  0.00  0.00    -0.050 A 
ATOM      6  C   LIG    1        1.466   9.138   0.677  0.00  0.00    +0.330 A 
ENDROOT
BRANCH   1   8
ATOM      7  O   LIG    1       -0.012   9.277  -1.793  0.00  0.00    -0.170 OA
ATOM      8  N   LIG    1       -0.019  10.207  -1.006  0.00  0.00    +0.030 N 
ATOM      9  O   LIG    1       -0.879  11.066  -1.085  0.00  0.00    -0.130 OA
ENDBRANCH   1   8
BRANCH   3  10
ATOM     10  S   LIG    1        3.172  13.168   1.843  0.00  0.00    +2.500 S 
ATOM     11  O   LIG    1        3.610  12.989   3.183  0.00  0.00    -0.850 OA
ATOM     12  O   LIG    1        2.139  14.091   1.527  0.00  0.00    -0.850 OA
BRANCH  10  13
ATOM     13  C   LIG    1        4.590  13.396   0.735  0.00  0.00    -0.020 C 
ATOM     14  F   LIG    1        5.510  12.362   0.935  0.00  0.00    -0.160 F 
ATOM     15  F   LIG    1        5.202  14.624   1.008  0.00  0.00    -0.160 F 
ATOM     16  F   LIG    1        4.151  13.379  -0.594  0.00  0.00    -0.160 F 
ENDBRANCH  10  13
ENDBRANCH   3  10
BRANCH   6  17
ATOM     17  N   LIG    1        0.940   7.895   0.318  0.00  0.00    -0.700 N 
ATOM     18  H   LIG    1        0.200   7.844  -0.307  0.00  0.00    +0.420 HD
BRANCH  17  19
ATOM     19  C   LIG    1        1.507   6.668   0.883  0.00  0.00    +0.300 C 
BRANCH  19  20
ATOM     20  C   LIG    1        0.755   5.456   0.330  0.00  0.00    +0.170 C 
ATOM     21  C   LIG    1        1.330   4.142   0.909  0.00  0.00    +0.100 C 
ATOM     22  C   LIG    1        0.082   3.295   1.065  0.00  0.00    -0.180 A 
ATOM     23  C   LIG    1       -0.100   1.944   1.257  0.00  0.00    +0.060 A 
ATOM     24  C   LIG    1       -1.380   1.426   1.357  0.00  0.00    -0.010 A 
ATOM     25  C   LIG    1       -2.471   2.269   1.255  0.00  0.00    +0.050 A 
ATOM     26  C   LIG    1       -2.290   3.624   1.070  0.00  0.00    +0.000 A 
ATOM     27  C   LIG    1       -1.006   4.154   0.973  0.00  0.00    +0.100 A 
ATOM     28  O   LIG    1       -0.604   5.443   0.799  0.00  0.00    -0.300 OA
ENDBRANCH  19  20
ENDBRANCH  17  19
ENDBRANCH   6  17
TORSDOF 6
