REMARK  Name = ZINCvU0000000A8t.0
REMARK                            x       y       z     vdW  Elec       q    Type
REMARK                         _______ _______ _______ _____ _____    ______ ____
ROOT
ATOM      1  C   LIG    1        0.385   1.263  -0.670  0.00  0.00    +0.100 C 
ATOM      2  C   LIG    1       -0.580   1.624   0.461  0.00  0.00    +0.130 C 
ENDROOT
BRANCH   2   3
ATOM      3  C   LIG    1       -1.956   1.108   0.131  0.00  0.00    +0.190 A 
ATOM      4  N   LIG    1       -2.785   1.624  -0.734  0.00  0.00    -0.260 NA
ATOM      5  N   LIG    1       -3.866   0.927  -0.763  0.00  0.00    -0.250 NA
ATOM      6  C   LIG    1       -3.767  -0.060   0.097  0.00  0.00    +0.200 A 
ATOM      7  O   LIG    1       -2.555   0.037   0.679  0.00  0.00    -0.210 OA
BRANCH   6   8
ATOM      8  C   LIG    1       -4.794  -1.087   0.375  0.00  0.00    +0.030 A 
ATOM      9  C   LIG    1       -4.548  -2.087   1.317  0.00  0.00    +0.080 A 
ATOM     10  C   LIG    1       -5.512  -3.039   1.575  0.00  0.00    +0.120 A 
ATOM     11  C   LIG    1       -6.716  -3.011   0.895  0.00  0.00    -0.020 A 
ATOM     12  C   LIG    1       -6.964  -2.025  -0.044  0.00  0.00    +0.120 A 
ATOM     13  C   LIG    1       -6.011  -1.064  -0.308  0.00  0.00    +0.100 A 
BRANCH  11  14
ATOM     14  N   LIG    1       -7.744  -4.039   1.173  0.00  0.00    +0.020 N 
ATOM     15  O   LIG    1       -7.528  -4.908   1.999  0.00  0.00    -0.150 OA
ATOM     16  O   LIG    1       -8.806  -4.016   0.576  0.00  0.00    -0.150 OA
ENDBRANCH  11  14
ENDBRANCH   6   8
ENDBRANCH   2   3
BRANCH   2  17
ATOM     17  S   LIG    1       -0.639   3.423   0.651  0.00  0.00    +0.080 S 
BRANCH  17  18
ATOM     18  C   LIG    1        1.017   3.731   1.168  0.00  0.00    +0.140 A 
ATOM     19  N   LIG    1        1.961   2.835   1.339  0.00  0.00    -0.280 NA
ATOM     20  N   LIG    1        3.045   3.410   1.720  0.00  0.00    -0.270 NA
ATOM     21  C   LIG    1        2.860   4.696   1.816  0.00  0.00    +0.200 A 
ATOM     22  N   LIG    1        1.563   4.948   1.462  0.00  0.00    -0.420 N 
BRANCH  22  23
ATOM     23  C   LIG    1        0.897   6.252   1.411  0.00  0.00    +0.190 C 
ATOM     24  C   LIG    1       -0.632   6.263   1.378  0.00  0.00    +0.070 C 
ATOM     25  C   LIG    1        0.164   6.621   0.121  0.00  0.00    +0.060 C 
ENDBRANCH  22  23
BRANCH  21  26
ATOM     26  C   LIG    1        3.886   5.718   2.233  0.00  0.00    +0.260 C 
BRANCH  26  27
ATOM     27  C   LIG    1        4.623   6.215   1.016  0.00  0.00    -0.190 A 
ATOM     28  C   LIG    1        4.257   7.258   0.268  0.00  0.00    +0.020 A 
ATOM     29  C   LIG    1        5.093   7.530  -0.801  0.00  0.00    +0.000 A 
ATOM     30  C   LIG    1        6.132   6.703  -0.928  0.00  0.00    -0.040 A 
ATOM     31  S   LIG    1        6.092   5.505   0.359  0.00  0.00    +0.130 S 
ENDBRANCH  26  27
ENDBRANCH  21  26
ENDBRANCH  17  18
ENDBRANCH   2  17
TORSDOF 8
