REMARK  Name = ZINCpk00001AZirb.0
REMARK                            x       y       z     vdW  Elec       q    Type
REMARK                         _______ _______ _______ _____ _____    ______ ____
ROOT
ATOM      1  C   LIG    1       -2.432   5.667   0.044  0.00  0.00    +0.140 A 
ATOM      2  C   LIG    1       -1.206   6.330   0.026  0.00  0.00    -0.020 A 
ATOM      3  C   LIG    1       -0.038   5.590   0.017  0.00  0.00    +0.290 A 
ATOM      4  N   LIG    1       -0.069   4.274   0.025  0.00  0.00    -0.480 NA
ATOM      5  C   LIG    1       -1.214   3.600   0.043  0.00  0.00    +0.110 A 
ATOM      6  C   LIG    1       -2.431   4.272   0.047  0.00  0.00    -0.010 A 
ENDROOT
BRANCH   1  10
ATOM      7  O   LIG    1       -5.595   3.890  -1.516  0.00  0.00    -0.530 OA
ATOM      8  C   LIG    1       -4.912   4.882  -1.372  0.00  0.00    +0.490 C 
ATOM      9  C   LIG    1       -4.782   5.472   0.004  0.00  0.00    +0.290 C 
ATOM     10  N   LIG    1       -3.628   6.380   0.054  0.00  0.00    -0.470 N 
ATOM     11  C   LIG    1       -3.683   7.333  -1.066  0.00  0.00    +0.250 C 
ATOM     12  C   LIG    1       -3.433   6.573  -2.370  0.00  0.00    +0.230 C 
ATOM     13  N   LIG    1       -4.305   5.404  -2.443  0.00  0.00    -0.720 N 
ATOM     14  H   LIG    1       -4.451   4.987  -3.307  0.00  0.00    +0.410 HD
ENDBRANCH   1  10
BRANCH   5  15
ATOM     15  C   LIG    1       -1.194   2.119   0.052  0.00  0.00    +0.570 C 
ATOM     16  N   LIG    1       -0.018   1.461   0.042  0.00  0.00    -0.710 N 
ATOM     17  H   LIG    1        0.816   1.957   0.025  0.00  0.00    +0.410 HD
ATOM     18  O   LIG    1       -2.238   1.497   0.068  0.00  0.00    -0.520 OA
BRANCH  16  19
ATOM     19  C   LIG    1        0.003  -0.004   0.051  0.00  0.00    +0.310 C 
BRANCH  19  20
ATOM     20  C   LIG    1        1.430  -0.487   0.031  0.00  0.00    -0.050 C 
ATOM     21  C   LIG    1        1.862  -1.317   0.969  0.00  0.00    +0.030 C 
BRANCH  21  22
ATOM     22  C   LIG    1        3.262  -1.791   0.949  0.00  0.00    -0.060 A 
ATOM     23  C   LIG    1        4.130  -1.371  -0.060  0.00  0.00    +0.010 A 
ATOM     24  C   LIG    1        5.437  -1.811  -0.069  0.00  0.00    +0.000 A 
ATOM     25  C   LIG    1        5.885  -2.678   0.912  0.00  0.00    +0.000 A 
ATOM     26  C   LIG    1        5.028  -3.104   1.911  0.00  0.00    +0.000 A 
ATOM     27  C   LIG    1        3.720  -2.665   1.936  0.00  0.00    +0.020 A 
ENDBRANCH  21  22
ENDBRANCH  19  20
ENDBRANCH  16  19
ENDBRANCH   5  15
TORSDOF 5
