REMARK  Name = ZINCpe000000XaXc.0
REMARK                            x       y       z     vdW  Elec       q    Type
REMARK                         _______ _______ _______ _____ _____    ______ ____
ROOT
ATOM      1  C   LIG    1       -0.964   2.244   4.997  0.00  0.00    +0.150 A 
ATOM      2  C   LIG    1       -2.163   2.684   4.453  0.00  0.00    +0.020 A 
ATOM      3  C   LIG    1       -2.237   2.994   3.109  0.00  0.00    +0.050 A 
ATOM      4  C   LIG    1       -1.118   2.869   2.306  0.00  0.00    -0.130 A 
ATOM      5  C   LIG    1        0.076   2.426   2.845  0.00  0.00    +0.030 A 
ATOM      6  C   LIG    1        0.158   2.118   4.189  0.00  0.00    -0.010 A 
ENDROOT
BRANCH   4   7
ATOM      7  C   LIG    1       -1.202   3.208   0.841  0.00  0.00    +0.300 C 
ATOM      8  C   LIG    1       -1.349   1.921   0.020  0.00  0.00    +0.100 C 
ATOM      9  C   LIG    1       -0.029   1.192   0.009  0.00  0.00    +0.520 C 
ATOM     10  N   LIG    1        1.122   1.887  -0.005  0.00  0.00    -0.680 N 
ATOM     11  H   LIG    1        1.966   1.414  -0.082  0.00  0.00    +0.430 HD
ATOM     12  C   LIG    1        1.122   3.228   0.088  0.00  0.00    +0.710 C 
ATOM     13  O   LIG    1        2.147   3.838  -0.146  0.00  0.00    -0.550 OA
ATOM     14  O   LIG    1       -0.006  -0.020   0.006  0.00  0.00    -0.490 OA
ATOM     15  N   LIG    1        0.017   3.909   0.432  0.00  0.00    -0.720 N 
ATOM     16  H   LIG    1        0.027   4.879   0.409  0.00  0.00    +0.430 HD
ENDBRANCH   4   7
BRANCH   1  18
ATOM     17  C   LIG    1       -1.600   2.636   7.256  0.00  0.00    +0.520 C 
ATOM     18  N   LIG    1       -0.886   1.929   6.358  0.00  0.00    -0.670 N 
ATOM     19  H   LIG    1       -0.318   1.201   6.656  0.00  0.00    +0.410 HD
ATOM     20  O   LIG    1       -2.374   3.490   6.878  0.00  0.00    -0.510 OA
BRANCH  17  22
ATOM     21  C   LIG    1        0.017   2.615   9.136  0.00  0.00    +0.060 C 
ATOM     22  C   LIG    1       -1.437   2.366   8.730  0.00  0.00    +0.000 C 
BRANCH  22  23
ATOM     23  C   LIG    1       -2.355   3.298   9.523  0.00  0.00    +0.240 C 
ATOM     24  C   LIG    1       -2.156   3.080  11.040  0.00  0.00    +0.050 C 
ATOM     25  C   LIG    1       -2.331   4.515  11.590  0.00  0.00    +0.050 C 
ATOM     26  C   LIG    1       -1.976   5.407  10.421  0.00  0.00    +0.520 C 
ATOM     27  O   LIG    1       -1.715   6.588  10.503  0.00  0.00    -0.530 OA
ATOM     28  N   LIG    1       -1.991   4.699   9.278  0.00  0.00    -0.720 N 
ATOM     29  H   LIG    1       -1.788   5.067   8.404  0.00  0.00    +0.410 HD
ENDBRANCH  22  23
ENDBRANCH  17  22
ENDBRANCH   1  18
TORSDOF 4
