REMARK  Name = ZINCrD000000AlaJ.0
REMARK                            x       y       z     vdW  Elec       q    Type
REMARK                         _______ _______ _______ _____ _____    ______ ____
ROOT
ATOM      1  N   LIG    1        2.489   4.177   0.014  0.00  0.00    -0.520 NA
ATOM      2  C   LIG    1        3.188   3.829   1.257  0.00  0.00    +0.180 C 
ATOM      3  C   LIG    1        4.659   4.238   1.148  0.00  0.00    +0.050 C 
ATOM      4  C   LIG    1        4.747   5.745   0.896  0.00  0.00    -0.010 C 
ATOM      5  C   LIG    1        3.970   6.088  -0.378  0.00  0.00    +0.060 C 
ATOM      6  C   LIG    1        2.519   5.626  -0.225  0.00  0.00    +0.180 C 
ENDROOT
BRANCH   4   7
ATOM      7  C   LIG    1        6.190   6.146   0.729  0.00  0.00    +0.520 C 
ATOM      8  N   LIG    1        7.068   5.938   1.730  0.00  0.00    -0.670 N 
ATOM      9  H   LIG    1        6.758   5.593   2.583  0.00  0.00    +0.410 HD
ATOM     10  O   LIG    1        6.562   6.655  -0.307  0.00  0.00    -0.520 OA
BRANCH   8  11
ATOM     11  C   LIG    1        8.425   6.219   1.541  0.00  0.00    +0.140 A 
ATOM     12  C   LIG    1        9.391   5.428   2.148  0.00  0.00    -0.030 A 
ATOM     13  C   LIG    1       10.730   5.705   1.955  0.00  0.00    +0.030 A 
ATOM     14  C   LIG    1       11.109   6.776   1.167  0.00  0.00    -0.010 A 
ATOM     15  C   LIG    1       10.150   7.570   0.566  0.00  0.00    +0.030 A 
ATOM     16  C   LIG    1        8.809   7.294   0.750  0.00  0.00    +0.020 A 
ENDBRANCH   8  11
ENDBRANCH   4   7
BRANCH   1  17
ATOM     17  C   LIG    1        1.108   3.675   0.028  0.00  0.00    +0.220 C 
BRANCH  17  19
ATOM     18  O   LIG    1        2.177   1.571   0.017  0.00  0.00    -0.520 OA
ATOM     19  C   LIG    1        1.122   2.168   0.028  0.00  0.00    +0.510 C 
ATOM     20  N   LIG    1       -0.039   1.484   0.040  0.00  0.00    -0.730 N 
ATOM     21  H   LIG    1       -0.884   1.961   0.045  0.00  0.00    +0.400 HD
BRANCH  20  22
ATOM     22  C   LIG    1       -0.026   0.019   0.040  0.00  0.00    +0.320 C 
BRANCH  22  23
ATOM     23  C   LIG    1       -1.442  -0.496   0.055  0.00  0.00    -0.100 A 
ATOM     24  C   LIG    1       -2.077  -0.738   1.259  0.00  0.00    +0.030 A 
ATOM     25  C   LIG    1       -3.379  -1.205   1.273  0.00  0.00    +0.030 A 
ATOM     26  C   LIG    1       -4.041  -1.442   0.083  0.00  0.00    +0.040 A 
ATOM     27  C   LIG    1       -3.404  -1.206  -1.122  0.00  0.00    -0.040 A 
ATOM     28 CL   LIG    1       -4.236  -1.502  -2.617  0.00  0.00    -0.060 Cl
ATOM     29  C   LIG    1       -2.104  -0.733  -1.136  0.00  0.00    +0.050 A 
ENDBRANCH  22  23
ENDBRANCH  20  22
ENDBRANCH  17  19
ENDBRANCH   1  17
TORSDOF 6
