REMARK  Name = ZINCkj000005jPYl.0
REMARK                            x       y       z     vdW  Elec       q    Type
REMARK                         _______ _______ _______ _____ _____    ______ ____
ROOT
ATOM      1  N   LIG    1        0.832  -0.496  -1.148  0.00  0.00    -0.380 N 
ATOM      2  C   LIG    1       -0.045   0.180  -2.112  0.00  0.00    +0.280 C 
ATOM      3  C   LIG    1        0.211   1.688  -2.070  0.00  0.00    +0.110 C 
ATOM      4  C   LIG    1       -0.080   2.211  -0.661  0.00  0.00    -0.460 C 
ATOM      5  C   LIG    1        0.786   1.447   0.345  0.00  0.00    +0.100 C 
ATOM      6  C   LIG    1        0.509  -0.052   0.214  0.00  0.00    +0.270 C 
ATOM      7  H   LIG    1        1.793  -0.272  -1.355  0.00  0.00    +0.430 HD
ENDROOT
BRANCH   4   8
ATOM      8  S   LIG    1        0.310   3.980  -0.577  0.00  0.00    +2.620 S 
ATOM      9  O   LIG    1       -0.670   4.740  -1.270  0.00  0.00    -0.940 OA
ATOM     10  O   LIG    1        1.697   4.196  -0.800  0.00  0.00    -0.940 OA
BRANCH   8  11
ATOM     11  N   LIG    1        0.086   4.378   1.015  0.00  0.00    -1.250 NA
ATOM     12  H   LIG    1        0.236   5.289   1.313  0.00  0.00    +0.430 HD
ATOM     13  H   LIG    1       -0.196   3.700   1.649  0.00  0.00    +0.410 HD
ENDBRANCH   8  11
ENDBRANCH   4   8
BRANCH   1  14
ATOM     14  C   LIG    1        0.638  -1.949  -1.247  0.00  0.00    +0.280 C 
BRANCH  14  15
ATOM     15  C   LIG    1        1.128  -2.436  -2.612  0.00  0.00    +0.200 C 
BRANCH  15  16
ATOM     16  O   LIG    1        2.534  -2.206  -2.724  0.00  0.00    -0.390 OA
BRANCH  16  23
ATOM     17  C   LIG    1        4.609  -4.200  -2.754  0.00  0.00    +0.020 C 
ATOM     18  C   LIG    1        4.551  -3.046  -3.757  0.00  0.00    -0.010 C 
ATOM     19  C   LIG    1        5.151  -3.498  -5.090  0.00  0.00    +0.020 C 
ATOM     20  C   LIG    1        5.092  -2.344  -6.093  0.00  0.00    +0.010 C 
ATOM     21  C   LIG    1        3.636  -1.926  -6.305  0.00  0.00    +0.020 C 
ATOM     22  C   LIG    1        3.036  -1.474  -4.972  0.00  0.00    -0.010 C 
ATOM     23  C   LIG    1        3.094  -2.628  -3.969  0.00  0.00    +0.170 C 
ENDBRANCH  16  23
ENDBRANCH  15  16
ENDBRANCH  14  15
ENDBRANCH   1  14
TORSDOF 6
