REMARK  Name = ZINCvU0000000IUV.0
REMARK                            x       y       z     vdW  Elec       q    Type
REMARK                         _______ _______ _______ _____ _____    ______ ____
ROOT
ATOM      1  C   LIG    1       -0.056   3.845   0.022  0.00  0.00    +0.100 A 
ATOM      2  C   LIG    1       -1.244   3.132   0.030  0.00  0.00    -0.010 A 
ATOM      3  C   LIG    1       -1.220   1.749   0.017  0.00  0.00    -0.130 A 
ATOM      4  C   LIG    1       -0.013   1.076   0.008  0.00  0.00    +0.040 A 
ATOM      5  C   LIG    1        1.176   1.782   0.000  0.00  0.00    -0.040 A 
ATOM      6  C   LIG    1        1.159   3.167   0.007  0.00  0.00    +0.110 A 
ENDROOT
BRANCH   3   7
ATOM      7  C   LIG    1       -2.512   0.975   0.020  0.00  0.00    +0.550 C 
ATOM      8  N   LIG    1       -3.547   1.758  -0.654  0.00  0.00    -0.740 N 
ATOM      9  H   LIG    1       -4.103   2.360  -0.135  0.00  0.00    +0.410 HD
ATOM     10  C   LIG    1       -3.743   1.659  -1.986  0.00  0.00    +0.580 C 
ATOM     11  C   LIG    1       -2.953   0.684  -2.759  0.00  0.00    -0.200 A 
ATOM     12  C   LIG    1       -2.897   0.724  -4.149  0.00  0.00    +0.110 A 
ATOM     13  C   LIG    1       -2.147  -0.216  -4.827  0.00  0.00    -0.040 A 
ATOM     14  C   LIG    1       -1.452  -1.195  -4.134  0.00  0.00    +0.080 A 
ATOM     15  C   LIG    1       -1.497  -1.244  -2.753  0.00  0.00    -0.050 A 
ATOM     16  C   LIG    1       -2.243  -0.308  -2.059  0.00  0.00    +0.240 A 
ATOM     17  O   LIG    1       -4.562   2.366  -2.541  0.00  0.00    -0.530 OA
ATOM     18  N   LIG    1       -2.314  -0.304  -0.673  0.00  0.00    -0.750 N 
ATOM     19  H   LIG    1       -2.233  -1.132  -0.174  0.00  0.00    +0.410 HD
ENDBRANCH   3   7
BRANCH   1  21
ATOM     20  C   LIG    1       -1.362   5.833   0.044  0.00  0.00    +0.250 C 
ATOM     21  O   LIG    1       -0.078   5.205   0.029  0.00  0.00    -0.300 OA
ENDBRANCH   1  21
BRANCH   6  22
ATOM     22  O   LIG    1        2.328   3.863   0.001  0.00  0.00    -0.300 OA
BRANCH  22  23
ATOM     23  C   LIG    1        3.537   3.101  -0.014  0.00  0.00    +0.260 C 
BRANCH  23  24
ATOM     24  C   LIG    1        4.719   4.035  -0.020  0.00  0.00    -0.100 A 
ATOM     25  C   LIG    1        5.254   4.465  -1.220  0.00  0.00    +0.080 A 
ATOM     26  C   LIG    1        6.336   5.326  -1.225  0.00  0.00    +0.020 A 
ATOM     27  C   LIG    1        6.889   5.748  -0.031  0.00  0.00    +0.080 A 
ATOM     28  C   LIG    1        6.357   5.315   1.169  0.00  0.00    -0.190 A 
ATOM     29  C   LIG    1        5.272   4.458   1.175  0.00  0.00    +0.090 A 
BRANCH  28  30
ATOM     30  C   LIG    1        6.959   5.776   2.471  0.00  0.00    +0.510 C 
ATOM     31  F   LIG    1        5.966   5.820   3.455  0.00  0.00    -0.180 F 
ATOM     32  F   LIG    1        7.508   7.051   2.305  0.00  0.00    -0.180 F 
ATOM     33  F   LIG    1        7.963   4.883   2.862  0.00  0.00    -0.180 F 
ENDBRANCH  28  30
ENDBRANCH  23  24
ENDBRANCH  22  23
ENDBRANCH   6  22
TORSDOF 6
