REMARK  Name = ZINCrD000000CFVZ.0
REMARK                            x       y       z     vdW  Elec       q    Type
REMARK                         _______ _______ _______ _____ _____    ______ ____
ROOT
ATOM      1  N   LIG    1        0.038   1.563  -0.022  0.00  0.00    -0.580 N 
ATOM      2  C   LIG    1        1.207   2.230   0.042  0.00  0.00    +0.620 C 
ATOM      3  O   LIG    1        2.252   1.617   0.153  0.00  0.00    -0.500 OA
ENDROOT
BRANCH   2   4
ATOM      4  C   LIG    1        1.220   3.695  -0.024  0.00  0.00    -0.070 A 
ATOM      5  C   LIG    1        2.332   4.486  -0.086  0.00  0.00    +0.050 A 
ATOM      6  C   LIG    1        1.880   5.814  -0.135  0.00  0.00    -0.060 A 
ATOM      7  C   LIG    1        0.530   5.776  -0.100  0.00  0.00    +0.190 A 
ATOM      8  O   LIG    1        0.136   4.497  -0.038  0.00  0.00    -0.170 OA
ENDBRANCH   2   4
BRANCH   1   9
ATOM      9  C   LIG    1       -1.226   2.303  -0.069  0.00  0.00    +0.390 C 
BRANCH   9  13
ATOM     10  O   LIG    1       -0.449   2.264   4.513  0.00  0.00    -0.470 OA
ATOM     11  C   LIG    1       -1.177   2.609   3.599  0.00  0.00    +0.530 A 
ATOM     12  N   LIG    1       -0.876   2.309   2.321  0.00  0.00    -0.560 NA
ATOM     13  C   LIG    1       -1.641   2.675   1.331  0.00  0.00    +0.420 A 
ATOM     14  N   LIG    1       -2.785   3.363   1.494  0.00  0.00    -0.620 N 
ATOM     15  H   LIG    1       -3.316   3.605   0.719  0.00  0.00    +0.420 HD
ATOM     16  C   LIG    1       -3.209   3.728   2.756  0.00  0.00    +0.180 A 
ATOM     17  C   LIG    1       -4.384   4.439   2.960  0.00  0.00    -0.020 A 
ATOM     18  C   LIG    1       -4.763   4.779   4.242  0.00  0.00    +0.080 A 
ATOM     19  C   LIG    1       -3.981   4.419   5.331  0.00  0.00    -0.020 A 
ATOM     20  C   LIG    1       -2.811   3.713   5.149  0.00  0.00    +0.110 A 
ATOM     21  C   LIG    1       -2.417   3.362   3.860  0.00  0.00    -0.210 A 
ENDBRANCH   9  13
ENDBRANCH   1   9
BRANCH   1  22
ATOM     22  C   LIG    1        0.031   0.098  -0.051  0.00  0.00    +0.350 C 
BRANCH  22  23
ATOM     23  C   LIG    1       -0.033  -0.432   1.358  0.00  0.00    -0.090 A 
ATOM     24  C   LIG    1        1.134  -0.687   2.054  0.00  0.00    +0.040 A 
ATOM     25  C   LIG    1        1.075  -1.169   3.349  0.00  0.00    +0.000 A 
ATOM     26  C   LIG    1       -0.150  -1.405   3.943  0.00  0.00    +0.000 A 
ATOM     27  C   LIG    1       -1.317  -1.155   3.245  0.00  0.00    -0.010 A 
ATOM     28  C   LIG    1       -1.258  -0.668   1.953  0.00  0.00    +0.010 A 
ENDBRANCH  22  23
ENDBRANCH   1  22
TORSDOF 5
