REMARK  Name = ZINCnE000001Ublm.1
REMARK                            x       y       z     vdW  Elec       q    Type
REMARK                         _______ _______ _______ _____ _____    ______ ____
ROOT
ATOM      1  O   LIG    1       -1.164  -4.870   1.839  0.00  0.00    -1.020 OA
ATOM      2  S   LIG    1        0.085  -4.456   2.375  0.00  0.00    +2.600 S 
ATOM      3  O   LIG    1        1.335  -4.836   1.816  0.00  0.00    -1.020 OA
ENDROOT
BRANCH   2   4
ATOM      4  C   LIG    1        0.107  -4.993   4.054  0.00  0.00    -0.600 A 
ATOM      5  C   LIG    1       -0.948  -5.684   4.565  0.00  0.00    +0.170 A 
ATOM      6  C   LIG    1       -0.943  -6.121   5.888  0.00  0.00    +0.000 A 
ATOM      7  C   LIG    1        0.111  -5.859   6.711  0.00  0.00    +0.160 A 
ATOM      8  C   LIG    1        1.218  -5.140   6.220  0.00  0.00    +0.090 A 
ATOM      9  N   LIG    1        2.266  -4.868   7.003  0.00  0.00    -0.460 NA
ATOM     10  C   LIG    1        3.299  -4.199   6.551  0.00  0.00    +0.330 A 
ATOM     11  C   LIG    1        3.357  -3.741   5.236  0.00  0.00    -0.150 A 
ATOM     12  C   LIG    1        2.318  -3.986   4.382  0.00  0.00    +0.160 A 
ATOM     13  I   LIG    1        5.034  -2.677   4.569  0.00  0.00    -0.010 I 
ATOM     14  F   LIG    1        0.093  -6.285   7.993  0.00  0.00    -0.120 F 
ATOM     15  C   LIG    1        1.212  -4.704   4.872  0.00  0.00    -0.000 A 
ENDBRANCH   2   4
BRANCH   2  16
ATOM     16  N   LIG    1        0.062  -2.801   2.390  0.00  0.00    -1.090 NA
BRANCH  16  17
ATOM     17  C   LIG    1        0.042  -2.092   1.187  0.00  0.00    +0.290 A 
ATOM     18  C   LIG    1        0.040  -2.775  -0.023  0.00  0.00    -0.170 A 
ATOM     19  C   LIG    1        0.019  -2.074  -1.213  0.00  0.00    +0.060 A 
ATOM     20  C   LIG    1       -0.006  -0.692  -1.204  0.00  0.00    -0.130 A 
ATOM     21  C   LIG    1        0.002  -0.004   0.002  0.00  0.00    +0.130 A 
ATOM     22  C   LIG    1        0.023  -0.704   1.198  0.00  0.00    -0.080 A 
BRANCH  21  23
ATOM     23  O   LIG    1       -0.016   1.355   0.009  0.00  0.00    -0.510 OA
ATOM     24  H   LIG    1        0.862   1.760   0.003  0.00  0.00    +0.380 HD
ENDBRANCH  21  23
ENDBRANCH  16  17
ENDBRANCH   2  16
TORSDOF 4
