REMARK  Name = ZINCpe000000TGYl.0
REMARK                            x       y       z     vdW  Elec       q    Type
REMARK                         _______ _______ _______ _____ _____    ______ ____
ROOT
ATOM      1  C   LIG    1       -3.483  -4.518  -1.564  0.00  0.00    +0.650 C 
ATOM      2  N   LIG    1       -2.283  -3.912  -1.471  0.00  0.00    -0.600 N 
ATOM      3  C   LIG    1       -1.050  -4.706  -1.377  0.00  0.00    +0.310 C 
ATOM      4  C   LIG    1       -0.284  -4.274  -0.120  0.00  0.00    +0.280 C 
ATOM      5  N   LIG    1       -0.184  -2.807  -0.112  0.00  0.00    -0.600 N 
ATOM      6  C   LIG    1       -1.418  -2.013  -0.201  0.00  0.00    +0.290 C 
ATOM      7  C   LIG    1        1.016  -2.201  -0.019  0.00  0.00    +0.600 C 
ATOM      8  O   LIG    1        1.079  -0.993   0.103  0.00  0.00    -0.520 OA
ATOM      9  C   LIG    1       -2.184  -2.446  -1.463  0.00  0.00    +0.290 C 
ATOM     10  O   LIG    1       -3.553  -5.731  -1.570  0.00  0.00    -0.570 OA
ENDROOT
BRANCH   7  11
ATOM     11  C   LIG    1        2.254  -3.005  -0.065  0.00  0.00    +0.060 A 
ATOM     12  N   LIG    1        2.275  -4.155  -0.692  0.00  0.00    -0.190 NA
ATOM     13  N   LIG    1        3.304  -4.910  -0.779  0.00  0.00    -0.370 N 
ATOM     14  C   LIG    1        4.498  -4.607  -0.229  0.00  0.00    +0.520 A 
ATOM     15  C   LIG    1        4.628  -3.343   0.509  0.00  0.00    -0.140 A 
ATOM     16  C   LIG    1        5.815  -2.938   1.112  0.00  0.00    +0.090 A 
ATOM     17  C   LIG    1        5.854  -1.737   1.787  0.00  0.00    +0.030 A 
ATOM     18  C   LIG    1        4.726  -0.932   1.870  0.00  0.00    +0.060 A 
ATOM     19  C   LIG    1        3.540  -1.315   1.279  0.00  0.00    +0.070 A 
ATOM     20  O   LIG    1        5.446  -5.363  -0.342  0.00  0.00    -0.490 OA
ATOM     21  C   LIG    1        3.178  -6.174  -1.508  0.00  0.00    +0.360 C 
ATOM     22  C   LIG    1        3.479  -2.523   0.593  0.00  0.00    -0.030 A 
ENDBRANCH   7  11
BRANCH   1  23
ATOM     23  O   LIG    1       -4.605  -3.779  -1.651  0.00  0.00    -0.370 OA
BRANCH  23  25
ATOM     24  C   LIG    1       -7.017  -3.499  -1.837  0.00  0.00    +0.070 C 
ATOM     25  C   LIG    1       -5.863  -4.499  -1.748  0.00  0.00    +0.220 C 
ENDBRANCH  23  25
ENDBRANCH   1  23
TORSDOF 3
