REMARK  Name = ZINCvU00000007Ng.0
REMARK                            x       y       z     vdW  Elec       q    Type
REMARK                         _______ _______ _______ _____ _____    ______ ____
ROOT
ATOM      1  C   LIG    1       -0.016   1.344   0.009  0.00  0.00    +0.570 C 
ATOM      2  N   LIG    1        0.002  -0.004   0.002  0.00  0.00    -0.700 N 
ATOM      3  H   LIG    1        0.849  -0.478  -0.009  0.00  0.00    +0.410 HD
ATOM      4  O   LIG    1       -1.077   1.937   0.018  0.00  0.00    -0.530 OA
ENDROOT
BRANCH   1   7
ATOM      5  C   LIG    1        2.424   4.199   0.002  0.00  0.00    +0.120 A 
ATOM      6  C   LIG    1        1.235   3.496   0.003  0.00  0.00    +0.020 A 
ATOM      7  C   LIG    1        1.252   2.099   0.001  0.00  0.00    -0.090 A 
ATOM      8  C   LIG    1        2.472   1.419  -0.014  0.00  0.00    +0.040 A 
ATOM      9  C   LIG    1        3.656   2.126  -0.021  0.00  0.00    -0.030 A 
ATOM     10 CL   LIG    1        5.171   1.279  -0.040  0.00  0.00    -0.030 Cl
ATOM     11  C   LIG    1        3.638   3.515  -0.014  0.00  0.00    +0.110 A 
BRANCH   5  13
ATOM     12  C   LIG    1        1.130   6.195   0.025  0.00  0.00    +0.250 C 
ATOM     13  O   LIG    1        2.410   5.559   0.009  0.00  0.00    -0.300 OA
ENDBRANCH   5  13
BRANCH  11  14
ATOM     14  O   LIG    1        4.806   4.207  -0.021  0.00  0.00    -0.310 OA
BRANCH  14  15
ATOM     15  C   LIG    1        5.352   4.545  -1.298  0.00  0.00    +0.190 C 
BRANCH  15  16
ATOM     16  C   LIG    1        6.659   5.318  -1.107  0.00  0.00    -0.010 C 
ATOM     17  C   LIG    1        7.178   5.787  -2.467  0.00  0.00    +0.030 C 
ATOM     18  C   LIG    1        7.698   4.407  -0.451  0.00  0.00    +0.020 C 
ENDBRANCH  15  16
ENDBRANCH  14  15
ENDBRANCH  11  14
ENDBRANCH   1   7
BRANCH   2  19
ATOM     19  C   LIG    1       -1.256  -0.754   0.010  0.00  0.00    +0.390 C 
BRANCH  19  20
ATOM     20  C   LIG    1       -1.035  -2.114  -0.600  0.00  0.00    -0.090 A 
ATOM     21  C   LIG    1        0.126  -2.813  -0.326  0.00  0.00    +0.060 A 
ATOM     22  C   LIG    1        0.327  -4.063  -0.881  0.00  0.00    +0.040 A 
ATOM     23  C   LIG    1       -0.628  -4.609  -1.719  0.00  0.00    -0.030 A 
ATOM     24  C   LIG    1       -1.787  -3.907  -1.997  0.00  0.00    +0.030 A 
ATOM     25 CL   LIG    1       -0.373  -6.177  -2.421  0.00  0.00    -0.060 Cl
ATOM     26  C   LIG    1       -1.990  -2.659  -1.437  0.00  0.00    +0.040 A 
ENDBRANCH  19  20
BRANCH  19  27
ATOM     27  C   LIG    1       -1.738  -0.912   1.429  0.00  0.00    +0.190 A 
ATOM     28  N   LIG    1       -0.999  -1.254   2.449  0.00  0.00    -0.470 NA
ATOM     29  C   LIG    1       -1.761  -1.296   3.553  0.00  0.00    +0.140 A 
ATOM     30  C   LIG    1       -3.019  -0.967   3.203  0.00  0.00    +0.130 A 
ATOM     31  N   LIG    1       -3.004  -0.717   1.857  0.00  0.00    -0.450 N 
ATOM     32  C   LIG    1       -4.148  -0.318   1.034  0.00  0.00    +0.330 C 
ENDBRANCH  19  27
ENDBRANCH   2  19
TORSDOF 8
