REMARK  Name = ZINCtV000002LoLr.0
REMARK                            x       y       z     vdW  Elec       q    Type
REMARK                         _______ _______ _______ _____ _____    ______ ____
ROOT
ATOM      1  N   LIG    1        4.364   4.038  -4.950  0.00  0.00    -0.690 N 
ATOM      2  H   LIG    1        4.941   3.276  -5.117  0.00  0.00    +0.410 HD
ENDROOT
BRANCH   1   6
ATOM      3  C   LIG    1        2.880   4.126  -1.413  0.00  0.00    -0.260 A 
ATOM      4  C   LIG    1        2.488   5.161  -2.157  0.00  0.00    +0.260 A 
ATOM      5  N   LIG    1        2.976   5.171  -3.385  0.00  0.00    -0.550 NA
ATOM      6  C   LIG    1        3.761   4.192  -3.712  0.00  0.00    +0.320 A 
ATOM      7  S   LIG    1        3.952   3.125  -2.389  0.00  0.00    +0.090 S 
BRANCH   3   8
ATOM      8  C   LIG    1        2.481   3.862   0.016  0.00  0.00    +0.200 C 
BRANCH   8  13
ATOM      9  F   LIG    1       -2.195   0.740   0.102  0.00  0.00    -0.140 F 
ATOM     10  C   LIG    1       -1.072   1.490   0.084  0.00  0.00    +0.100 A 
ATOM     11  C   LIG    1        0.170   0.878   0.079  0.00  0.00    -0.010 A 
ATOM     12  C   LIG    1        1.319   1.646   0.054  0.00  0.00    +0.050 A 
ATOM     13  C   LIG    1        1.228   3.026   0.041  0.00  0.00    -0.090 A 
ATOM     14  C   LIG    1       -0.011   3.638   0.052  0.00  0.00    +0.050 A 
ATOM     15  C   LIG    1       -1.161   2.872   0.075  0.00  0.00    -0.010 A 
ENDBRANCH   8  13
ENDBRANCH   3   8
ENDBRANCH   1   6
BRANCH   1  16
ATOM     16  C   LIG    1        4.130   5.025  -6.007  0.00  0.00    +0.340 C 
BRANCH  16  17
ATOM     17  C   LIG    1        4.895   4.628  -7.244  0.00  0.00    -0.110 A 
ATOM     18  C   LIG    1        6.187   5.082  -7.432  0.00  0.00    +0.060 A 
ATOM     19  C   LIG    1        6.892   4.715  -8.562  0.00  0.00    +0.020 A 
ATOM     20  C   LIG    1        6.298   3.899  -9.514  0.00  0.00    +0.090 A 
ATOM     21  C   LIG    1        4.999   3.449  -9.325  0.00  0.00    -0.010 A 
ATOM     22  C   LIG    1        4.301   3.814  -8.191  0.00  0.00    +0.050 A 
BRANCH  20  23
ATOM     23  O   LIG    1        6.987   3.541 -10.629  0.00  0.00    -0.250 OA
BRANCH  23  24
ATOM     24  C   LIG    1        6.561   4.025 -11.825  0.00  0.00    +0.150 A 
ATOM     25  C   LIG    1        7.152   3.588 -13.002  0.00  0.00    -0.010 A 
ATOM     26  C   LIG    1        6.719   4.080 -14.217  0.00  0.00    +0.090 A 
ATOM     27  C   LIG    1        5.696   5.009 -14.263  0.00  0.00    -0.050 A 
ATOM     28  C   LIG    1        5.104   5.449 -13.091  0.00  0.00    +0.140 A 
ATOM     29  F   LIG    1        4.105   6.357 -13.138  0.00  0.00    -0.130 F 
ATOM     30  C   LIG    1        5.531   4.953 -11.872  0.00  0.00    -0.090 A 
ENDBRANCH  23  24
ENDBRANCH  20  23
ENDBRANCH  16  17
ENDBRANCH   1  16
TORSDOF 7
