REMARK  Name = ZINCrD0000074EJB.0
REMARK                            x       y       z     vdW  Elec       q    Type
REMARK                         _______ _______ _______ _____ _____    ______ ____
ROOT
ATOM      1  N   LIG    1        5.080   2.493  -1.942  0.00  0.00    -0.640 N 
ATOM      2  H   LIG    1        5.674   2.137  -1.262  0.00  0.00    +0.420 HD
ATOM      3  C   LIG    1        3.930   3.097  -1.583  0.00  0.00    +0.480 C 
ATOM      4  O   LIG    1        3.188   3.542  -2.432  0.00  0.00    -0.450 OA
ENDROOT
BRANCH   1   8
ATOM      5  C   LIG    1        6.338   1.989  -5.535  0.00  0.00    -0.220 A 
ATOM      6  C   LIG    1        5.165   2.623  -5.488  0.00  0.00    +0.250 A 
ATOM      7  N   LIG    1        4.695   2.817  -4.270  0.00  0.00    -0.470 NA
ATOM      8  C   LIG    1        5.415   2.378  -3.286  0.00  0.00    +0.260 A 
ATOM      9  S   LIG    1        6.839   1.644  -3.882  0.00  0.00    +0.130 S 
BRANCH   5  10
ATOM     10  C   LIG    1        7.104   1.635  -6.784  0.00  0.00    +0.190 C 
BRANCH  10  15
ATOM     11  C   LIG    1       10.678   5.968  -8.145  0.00  0.00    +0.090 C 
ATOM     12  C   LIG    1        9.746   4.838  -7.790  0.00  0.00    -0.090 A 
ATOM     13  C   LIG    1       10.177   3.821  -6.959  0.00  0.00    +0.000 A 
ATOM     14  C   LIG    1        9.322   2.785  -6.633  0.00  0.00    +0.010 A 
ATOM     15  C   LIG    1        8.036   2.765  -7.139  0.00  0.00    -0.090 A 
ATOM     16  C   LIG    1        7.606   3.779  -7.974  0.00  0.00    +0.010 A 
ATOM     17  C   LIG    1        8.459   4.819  -8.295  0.00  0.00    +0.000 A 
ENDBRANCH  10  15
ENDBRANCH   5  10
ENDBRANCH   1   8
BRANCH   3  18
ATOM     18  C   LIG    1        3.568   3.222  -0.125  0.00  0.00    +0.350 C 
BRANCH  18  19
ATOM     19  N   LIG    1        2.282   3.912   0.001  0.00  0.00    -0.580 N 
ATOM     20  C   LIG    1        2.242   5.372   0.119  0.00  0.00    +0.320 C 
BRANCH  19  21
ATOM     21  C   LIG    1        1.102   3.184   0.008  0.00  0.00    +0.440 A 
ATOM     22  C   LIG    1        1.154   1.792   0.001  0.00  0.00    -0.100 A 
ATOM     23  C   LIG    1       -0.013   1.076   0.008  0.00  0.00    +0.160 A 
ATOM     24  C   LIG    1       -1.228   1.777   0.017  0.00  0.00    -0.150 A 
ATOM     25  C   LIG    1       -1.205   3.173   0.030  0.00  0.00    +0.380 A 
ATOM     26  N   LIG    1       -0.060   3.823   0.023  0.00  0.00    -0.530 NA
BRANCH  24  27
ATOM     27  C   LIG    1       -2.474   1.071   0.020  0.00  0.00    +0.260 C 
ATOM     28  N   LIG    1       -3.462   0.511   0.022  0.00  0.00    -0.420 NA
ENDBRANCH  24  27
ENDBRANCH  19  21
ENDBRANCH  18  19
ENDBRANCH   3  18
TORSDOF 7
