REMARK  Name = ZINCkj000005hBME.0
REMARK                            x       y       z     vdW  Elec       q    Type
REMARK                         _______ _______ _______ _____ _____    ______ ____
ROOT
ATOM      1  N   LIG    1       -2.857   1.940   2.489  0.00  0.00    -0.510 N 
ATOM      2  H   LIG    1       -2.871   2.947   2.427  0.00  0.00    +0.420 HD
ATOM      3  H   LIG    1       -2.390   1.662   3.338  0.00  0.00    +0.420 HD
ENDROOT
BRANCH   1   7
ATOM      4  C   LIG    1       -4.347   0.315   5.205  0.00  0.00    +0.040 C 
ATOM      5  C   LIG    1       -3.558  -0.372   4.089  0.00  0.00    +0.050 C 
ATOM      6  C   LIG    1       -4.220  -0.079   2.741  0.00  0.00    +0.070 C 
ATOM      7  C   LIG    1       -4.236   1.432   2.499  0.00  0.00    +0.170 C 
ATOM      8  C   LIG    1       -5.024   2.119   3.615  0.00  0.00    +0.080 C 
ATOM      9  C   LIG    1       -4.362   1.826   4.963  0.00  0.00    +0.040 C 
BRANCH   4  10
ATOM     10  C   LIG    1       -3.695   0.026   6.533  0.00  0.00    +0.460 C 
ATOM     11  O   LIG    1       -2.701  -0.660   6.581  0.00  0.00    -0.500 OA
BRANCH  10  13
ATOM     12  C   LIG    1       -3.537   0.210   8.903  0.00  0.00    +0.280 C 
ATOM     13  O   LIG    1       -4.218   0.530   7.661  0.00  0.00    -0.360 OA
ENDBRANCH  10  13
ENDBRANCH   4  10
ENDBRANCH   1   7
BRANCH   1  14
ATOM     14  C   LIG    1       -2.140   1.388   1.331  0.00  0.00    +0.170 C 
ATOM     15  C   LIG    1       -2.759   1.931   0.042  0.00  0.00    +0.040 C 
ATOM     16  C   LIG    1       -2.012   1.356  -1.163  0.00  0.00    +0.040 C 
ATOM     17  C   LIG    1       -0.539   1.764  -1.093  0.00  0.00    +0.050 C 
ATOM     18  C   LIG    1        0.079   1.221   0.197  0.00  0.00    +0.010 C 
ATOM     19  C   LIG    1       -0.668   1.796   1.402  0.00  0.00    +0.070 C 
BRANCH  18  20
ATOM     20  C   LIG    1       -0.027  -0.282   0.211  0.00  0.00    +0.520 C 
ATOM     21  O   LIG    1       -0.640  -0.839   1.097  0.00  0.00    -0.550 OA
ATOM     22  N   LIG    1        0.559  -1.008  -0.762  0.00  0.00    -0.840 N 
ATOM     23  H   LIG    1        0.490  -1.976  -0.753  0.00  0.00    +0.410 HD
ATOM     24  H   LIG    1        1.049  -0.563  -1.471  0.00  0.00    +0.410 HD
ENDBRANCH  18  20
ENDBRANCH   1  14
TORSDOF 5
