REMARK  Name = ZINCqH0000003Hyv.0
REMARK                            x       y       z     vdW  Elec       q    Type
REMARK                         _______ _______ _______ _____ _____    ______ ____
ROOT
ATOM      1  N   LIG    1       -1.240   2.063   0.019  0.00  0.00    -0.660 N 
ATOM      2  H   LIG    1       -1.293   2.968  -0.324  0.00  0.00    +0.420 HD
ATOM      3  C   LIG    1       -2.342   1.464   0.514  0.00  0.00    +0.520 C 
ATOM      4  O   LIG    1       -2.256   0.371   1.034  0.00  0.00    -0.500 OA
ENDROOT
BRANCH   1  14
ATOM      5  C   LIG    1        1.178   2.089  -0.010  0.00  0.00    +0.080 A 
ATOM      6  C   LIG    1        2.382   1.403  -0.032  0.00  0.00    +0.000 A 
ATOM      7  C   LIG    1        2.391   0.024  -0.043  0.00  0.00    -0.150 A 
ATOM      8  C   LIG    1        1.204  -0.697  -0.039  0.00  0.00    +0.100 A 
ATOM      9  O   LIG    1        1.443  -2.038  -0.067  0.00  0.00    -0.300 OA
ATOM     10  C   LIG    1        2.796  -2.288   0.348  0.00  0.00    +0.170 C 
ATOM     11  C   LIG    1        3.379  -3.491  -0.397  0.00  0.00    +0.070 C 
ATOM     12  C   LIG    1       -0.005  -0.008  -0.016  0.00  0.00    +0.040 A 
ATOM     13  C   LIG    1        3.524  -0.984  -0.055  0.00  0.00    +0.080 C 
ATOM     14  C   LIG    1       -0.019   1.376  -0.001  0.00  0.00    +0.160 A 
BRANCH   5  15
ATOM     15  O   LIG    1        1.165   3.449   0.002  0.00  0.00    -0.320 OA
BRANCH  15  17
ATOM     16  C   LIG    1        2.217   5.625   0.006  0.00  0.00    +0.070 C 
ATOM     17  C   LIG    1        2.432   4.110  -0.010  0.00  0.00    +0.180 C 
ENDBRANCH  15  17
ENDBRANCH   5  15
ENDBRANCH   1  14
BRANCH   3  18
ATOM     18  C   LIG    1       -3.679   2.152   0.422  0.00  0.00    +0.190 C 
BRANCH  18  19
ATOM     19  C   LIG    1       -4.738   1.279   1.045  0.00  0.00    +0.150 A 
ATOM     20  N   LIG    1       -5.451   0.384   0.434  0.00  0.00    -0.270 NA
ATOM     21  O   LIG    1       -6.334  -0.230   1.351  0.00  0.00    -0.090 OA
ATOM     22  C   LIG    1       -6.161   0.316   2.571  0.00  0.00    +0.090 A 
ATOM     23  C   LIG    1       -6.754   0.098   3.809  0.00  0.00    +0.020 A 
ATOM     24  C   LIG    1       -6.351   0.836   4.901  0.00  0.00    +0.080 A 
ATOM     25  C   LIG    1       -5.357   1.796   4.777  0.00  0.00    -0.010 A 
ATOM     26  C   LIG    1       -4.761   2.026   3.569  0.00  0.00    +0.090 A 
ATOM     27  C   LIG    1       -5.155   1.289   2.450  0.00  0.00    -0.190 A 
ENDBRANCH  18  19
ENDBRANCH   3  18
TORSDOF 5
