REMARK  Name = ZINCtV00000L6jRY.0
REMARK                            x       y       z     vdW  Elec       q    Type
REMARK                         _______ _______ _______ _____ _____    ______ ____
ROOT
ATOM      1  C   LIG    1       -2.634   0.973   6.999  0.00  0.00    +0.180 C 
ATOM      2  C   LIG    1       -2.227   1.267   5.578  0.00  0.00    +0.140 A 
ATOM      3  N   LIG    1       -2.693   2.243   4.838  0.00  0.00    -0.310 NA
ATOM      4  N   LIG    1       -2.084   2.200   3.580  0.00  0.00    -0.320 N 
ATOM      5  C   LIG    1       -1.210   1.145   3.569  0.00  0.00    +0.290 A 
ATOM      6  N   LIG    1       -0.487   0.872   2.482  0.00  0.00    -0.470 NA
ATOM      7  C   LIG    1       -0.588   1.600   1.378  0.00  0.00    +0.230 A 
ATOM      8  C   LIG    1        0.277   1.215   0.205  0.00  0.00    +0.130 C 
ATOM      9  C   LIG    1       -0.257   1.850  -1.078  0.00  0.00    +0.030 C 
ATOM     10  C   LIG    1       -0.446   3.352  -0.835  0.00  0.00    +0.030 C 
ATOM     11  C   LIG    1       -1.623   3.543   0.120  0.00  0.00    +0.100 C 
ATOM     12  C   LIG    1       -1.458   2.677   1.340  0.00  0.00    -0.180 A 
ATOM     13  C   LIG    1       -2.214   2.976   2.460  0.00  0.00    +0.420 A 
ATOM     14  C   LIG    1       -1.290   0.542   4.831  0.00  0.00    -0.210 A 
ENDROOT
BRANCH  14  15
ATOM     15  C   LIG    1       -0.526  -0.640   5.291  0.00  0.00    +0.010 A 
ATOM     16  C   LIG    1       -0.734  -1.884   4.694  0.00  0.00    +0.020 A 
ATOM     17  C   LIG    1       -0.015  -2.981   5.124  0.00  0.00    +0.000 A 
ATOM     18  C   LIG    1        0.903  -2.851   6.151  0.00  0.00    +0.000 A 
ATOM     19  C   LIG    1        1.110  -1.621   6.750  0.00  0.00    +0.000 A 
ATOM     20  C   LIG    1        0.401  -0.516   6.326  0.00  0.00    +0.010 A 
ENDBRANCH  14  15
BRANCH  13  21
ATOM     21  N   LIG    1       -3.088   4.042   2.448  0.00  0.00    -0.660 N 
ATOM     22  H   LIG    1       -3.799   4.079   1.790  0.00  0.00    +0.430 HD
BRANCH  21  23
ATOM     23  C   LIG    1       -2.949   5.070   3.385  0.00  0.00    +0.220 A 
ATOM     24  C   LIG    1       -1.852   5.092   4.237  0.00  0.00    -0.010 A 
ATOM     25  C   LIG    1       -1.715   6.112   5.159  0.00  0.00    +0.020 A 
ATOM     26  C   LIG    1       -2.674   7.106   5.242  0.00  0.00    +0.010 A 
ATOM     27  C   LIG    1       -3.771   7.083   4.398  0.00  0.00    +0.020 A 
ATOM     28 CL   LIG    1       -4.973   8.332   4.505  0.00  0.00    -0.050 Cl
ATOM     29 CL   LIG    1       -0.341   6.144   6.220  0.00  0.00    -0.050 Cl
ATOM     30  C   LIG    1       -3.911   6.068   3.471  0.00  0.00    -0.010 A 
ENDBRANCH  21  23
ENDBRANCH  13  21
TORSDOF 3
