REMARK  Name = ZINCrD0000035oXV.0
REMARK                            x       y       z     vdW  Elec       q    Type
REMARK                         _______ _______ _______ _____ _____    ______ ____
ROOT
ATOM      1  C   LIG    1       -0.792   1.593  -1.277  0.00  0.00    +0.250 C 
ATOM      2  C   LIG    1        0.093   1.157  -0.114  0.00  0.00    +0.020 C 
ATOM      3  C   LIG    1       -0.565   1.542   1.188  0.00  0.00    +0.020 C 
ATOM      4  C   LIG    1       -0.086   2.935   1.633  0.00  0.00    +0.260 C 
ATOM      5  N   LIG    1        0.021   3.875   0.500  0.00  0.00    -0.610 N 
ATOM      6  C   LIG    1       -0.975   3.954  -0.545  0.00  0.00    +0.290 C 
ATOM      7  C   LIG    1        1.089   4.693   0.437  0.00  0.00    +0.510 C 
ATOM      8  O   LIG    1        1.201   5.475  -0.484  0.00  0.00    -0.520 OA
ATOM      9  C   LIG    1       -0.598   2.989  -1.697  0.00  0.00    +0.000 C 
ENDROOT
BRANCH   1  11
ATOM     10  C   LIG    1        0.831   0.658  -2.989  0.00  0.00    +0.310 C 
ATOM     11  N   LIG    1       -0.519   0.721  -2.422  0.00  0.00    -0.610 N 
ATOM     12  C   LIG    1       -1.508  -0.024  -2.954  0.00  0.00    +0.590 C 
ATOM     13  O   LIG    1       -2.627   0.020  -2.476  0.00  0.00    -0.520 OA
BRANCH  12  14
ATOM     14  C   LIG    1       -1.238  -0.885  -4.107  0.00  0.00    -0.250 A 
ATOM     15  C   LIG    1       -2.171  -1.539  -4.809  0.00  0.00    +0.140 A 
ATOM     16  C   LIG    1       -1.691  -2.312  -5.888  0.00  0.00    -0.110 A 
ATOM     17  C   LIG    1       -0.325  -2.258  -6.014  0.00  0.00    -0.270 A 
ATOM     18  S   LIG    1        0.199  -3.253  -7.377  0.00  0.00    +0.170 S 
ATOM     19  C   LIG    1       -1.446  -3.723  -7.748  0.00  0.00    -0.040 A 
ATOM     20  C   LIG    1       -2.298  -3.173  -6.914  0.00  0.00    +0.060 A 
ATOM     21  S   LIG    1        0.356  -1.214  -4.761  0.00  0.00    +0.230 S 
ENDBRANCH  12  14
ENDBRANCH   1  11
BRANCH   7  22
ATOM     22  C   LIG    1        2.146   4.636   1.510  0.00  0.00    +0.160 C 
BRANCH  22  23
ATOM     23  C   LIG    1        3.224   5.645   1.207  0.00  0.00    +0.080 A 
ATOM     24  N   LIG    1        3.911   5.723   0.096  0.00  0.00    -0.260 NA
ATOM     25  N   LIG    1        4.808   6.793   0.210  0.00  0.00    -0.480 N 
ATOM     26  H   LIG    1        5.440   7.083  -0.466  0.00  0.00    +0.440 HD
ATOM     27  C   LIG    1        4.642   7.345   1.430  0.00  0.00    +0.240 A 
ATOM     28  C   LIG    1        3.669   6.654   2.067  0.00  0.00    -0.120 A 
ENDBRANCH  22  23
ENDBRANCH   7  22
TORSDOF 4
