REMARK  Name = ZINCvU00000005O0.0
REMARK                            x       y       z     vdW  Elec       q    Type
REMARK                         _______ _______ _______ _____ _____    ______ ____
ROOT
ATOM      1  S   LIG    1        2.278   4.876  -1.542  0.00  0.00    +2.420 S 
ATOM      2  O   LIG    1        1.131   5.709  -1.438  0.00  0.00    -0.910 OA
ATOM      3  O   LIG    1        2.384   3.976  -2.636  0.00  0.00    -0.900 OA
ENDROOT
BRANCH   1   4
ATOM      4  C   LIG    1        3.758   5.924  -1.511  0.00  0.00    -0.190 C 
BRANCH   4   7
ATOM      5  C   LIG    1        4.134   7.528  -4.700  0.00  0.00    +0.240 A 
ATOM      6  N   LIG    1        4.356   6.488  -3.916  0.00  0.00    -0.460 NA
ATOM      7  C   LIG    1        3.784   6.794  -2.741  0.00  0.00    +0.170 A 
ATOM      8  N   LIG    1        3.261   7.979  -2.855  0.00  0.00    -0.350 NA
ATOM      9  O   LIG    1        3.449   8.421  -3.969  0.00  0.00    +0.100 OA
BRANCH   5  15
ATOM     10  C   LIG    1        4.336  10.245  -8.880  0.00  0.00    +0.100 C 
ATOM     11  C   LIG    1        4.663   8.986  -8.120  0.00  0.00    -0.090 A 
ATOM     12  C   LIG    1        5.369   7.970  -8.740  0.00  0.00    +0.040 A 
ATOM     13  C   LIG    1        5.674   6.810  -8.049  0.00  0.00    +0.020 A 
ATOM     14  C   LIG    1        5.280   6.662  -6.735  0.00  0.00    +0.070 A 
ATOM     15  C   LIG    1        4.564   7.682  -6.106  0.00  0.00    -0.040 A 
ATOM     16  C   LIG    1        4.260   8.849  -6.808  0.00  0.00    +0.060 A 
ENDBRANCH   5  15
ENDBRANCH   4   7
ENDBRANCH   1   4
BRANCH   1  17
ATOM     17  C   LIG    1        2.451   3.936  -0.001  0.00  0.00    -0.310 C 
BRANCH  17  18
ATOM     18  C   LIG    1        2.477   4.887   1.168  0.00  0.00    -0.110 A 
ATOM     19  C   LIG    1        1.454   5.801   1.337  0.00  0.00    +0.070 A 
ATOM     20  C   LIG    1        1.475   6.671   2.411  0.00  0.00    +0.010 A 
ATOM     21  C   LIG    1        2.526   6.634   3.311  0.00  0.00    +0.110 A 
ATOM     22  C   LIG    1        3.553   5.721   3.138  0.00  0.00    -0.010 A 
ATOM     23  F   LIG    1        2.550   7.488   4.358  0.00  0.00    -0.130 F 
ATOM     24  C   LIG    1        3.527   4.849   2.066  0.00  0.00    +0.070 A 
ENDBRANCH  17  18
BRANCH  17  25
ATOM     25  C   LIG    1        1.286   2.992   0.146  0.00  0.00    -0.090 A 
ATOM     26  C   LIG    1        1.510   1.650   0.389  0.00  0.00    +0.080 A 
ATOM     27  C   LIG    1        0.442   0.783   0.524  0.00  0.00    -0.010 A 
ATOM     28  C   LIG    1       -0.853   1.259   0.410  0.00  0.00    +0.110 A 
ATOM     29  C   LIG    1       -1.077   2.604   0.172  0.00  0.00    +0.010 A 
ATOM     30  F   LIG    1       -1.898   0.411   0.536  0.00  0.00    -0.130 F 
ATOM     31  C   LIG    1       -0.007   3.469   0.038  0.00  0.00    +0.050 A 
ENDBRANCH  17  25
ENDBRANCH   1  17
TORSDOF 6
