REMARK  Name = ZINCqH0000050n4H.0
REMARK                            x       y       z     vdW  Elec       q    Type
REMARK                         _______ _______ _______ _____ _____    ______ ____
ROOT
ATOM      1  C   LIG    1       -4.138   3.966  -5.146  0.00  0.00    -0.060 A 
ATOM      2  N   LIG    1       -4.529   2.838  -4.612  0.00  0.00    -0.210 NA
ATOM      3  N   LIG    1       -4.192   2.642  -3.411  0.00  0.00    -0.240 NA
ATOM      4  C   LIG    1       -3.498   3.565  -2.819  0.00  0.00    +0.010 A 
ATOM      5  S   LIG    1       -3.238   4.854  -3.916  0.00  0.00    +0.240 S 
ENDROOT
BRANCH   1   8
ATOM      6  N   LIG    1       -5.117   3.636  -7.360  0.00  0.00    -0.700 N 
ATOM      7  H   LIG    1       -5.452   2.777  -7.057  0.00  0.00    +0.410 HD
ATOM      8  C   LIG    1       -4.406   4.416  -6.522  0.00  0.00    +0.600 C 
ATOM      9  O   LIG    1       -3.986   5.492  -6.903  0.00  0.00    -0.520 OA
BRANCH   6  10
ATOM     10  C   LIG    1       -5.383   4.084  -8.729  0.00  0.00    +0.320 C 
BRANCH  10  15
ATOM     11  C   LIG    1       -8.479   0.069 -11.502  0.00  0.00    +0.090 C 
ATOM     12  C   LIG    1       -7.672   1.115 -10.779  0.00  0.00    -0.070 A 
ATOM     13  C   LIG    1       -8.312   2.120 -10.079  0.00  0.00    +0.010 A 
ATOM     14  C   LIG    1       -7.572   3.081  -9.415  0.00  0.00    +0.040 A 
ATOM     15  C   LIG    1       -6.191   3.036  -9.452  0.00  0.00    -0.120 A 
ATOM     16  C   LIG    1       -5.550   2.034 -10.157  0.00  0.00    +0.040 A 
ATOM     17  C   LIG    1       -6.290   1.071 -10.816  0.00  0.00    +0.010 A 
ENDBRANCH  10  15
ENDBRANCH   6  10
ENDBRANCH   1   8
BRANCH   4  18
ATOM     18  C   LIG    1       -3.006   3.513  -1.395  0.00  0.00    +0.320 C 
BRANCH  18  19
ATOM     19  N   LIG    1       -1.676   2.890  -1.359  0.00  0.00    -0.530 NA
ATOM     20  C   LIG    1       -0.682   3.730  -2.042  0.00  0.00    +0.190 C 
BRANCH  19  21
ATOM     21  C   LIG    1       -1.265   2.607   0.022  0.00  0.00    +0.280 C 
BRANCH  21  22
ATOM     22  C   LIG    1       -0.022   1.755   0.012  0.00  0.00    -0.180 A 
ATOM     23  C   LIG    1        1.229   2.219   0.002  0.00  0.00    -0.100 A 
ATOM     24  C   LIG    1        2.212   1.245  -0.012  0.00  0.00    +0.010 A 
ATOM     25  C   LIG    1        1.761  -0.010  -0.015  0.00  0.00    -0.050 A 
ATOM     26  C   LIG    1        1.546   3.692   0.007  0.00  0.00    +0.100 C 
ATOM     27  S   LIG    1        0.002  -0.004   0.002  0.00  0.00    +0.120 S 
ENDBRANCH  21  22
ENDBRANCH  19  21
ENDBRANCH  18  19
ENDBRANCH   4  18
TORSDOF 7
