REMARK  Name = ZINCvU0000000GRa.0
REMARK                            x       y       z     vdW  Elec       q    Type
REMARK                         _______ _______ _______ _____ _____    ______ ____
ROOT
ATOM      1  O   LIG    1       -1.533   3.271  -2.352  0.00  0.00    -0.500 OA
ATOM      2  C   LIG    1       -0.558   2.822  -1.780  0.00  0.00    +0.570 C 
ATOM      3  N   LIG    1       -0.417   1.489  -1.634  0.00  0.00    -0.600 N 
ENDROOT
BRANCH   2   4
ATOM      4  C   LIG    1        0.471   3.736  -1.247  0.00  0.00    -0.160 A 
ATOM      5  C   LIG    1        1.163   3.406  -0.079  0.00  0.00    +0.070 A 
ATOM      6  C   LIG    1        2.126   4.259   0.413  0.00  0.00    -0.050 A 
ATOM      7  C   LIG    1        2.402   5.452  -0.245  0.00  0.00    +0.130 A 
ATOM      8  C   LIG    1        1.712   5.786  -1.405  0.00  0.00    +0.010 A 
ATOM      9  C   LIG    1        0.751   4.936  -1.905  0.00  0.00    +0.130 A 
BRANCH   7  10
ATOM     10  O   LIG    1        3.347   6.293   0.245  0.00  0.00    -0.320 OA
BRANCH  10  11
ATOM     11  C   LIG    1        4.019   5.888   1.440  0.00  0.00    +0.600 C 
ATOM     12  F   LIG    1        4.675   4.673   1.217  0.00  0.00    -0.200 F 
ATOM     13  F   LIG    1        3.084   5.731   2.470  0.00  0.00    -0.200 F 
ENDBRANCH  10  11
ENDBRANCH   7  10
ENDBRANCH   2   4
BRANCH   3  14
ATOM     14  C   LIG    1       -1.364   0.577  -2.280  0.00  0.00    +0.240 C 
ATOM     15  C   LIG    1       -1.301   0.748  -3.812  0.00  0.00    +0.020 C 
ATOM     16  C   LIG    1       -2.772   0.585  -4.272  0.00  0.00    +0.020 C 
ATOM     17  C   LIG    1       -3.564   1.294  -3.146  0.00  0.00    +0.020 C 
ATOM     18  C   LIG    1       -2.802   0.924  -1.857  0.00  0.00    +0.000 C 
ENDBRANCH   3  14
BRANCH   3  19
ATOM     19  C   LIG    1        0.683   0.953  -0.829  0.00  0.00    +0.450 C 
BRANCH  19  20
ATOM     20  C   LIG    1        0.140   0.420   0.472  0.00  0.00    +0.140 A 
ATOM     21  N   LIG    1       -0.278  -0.795   0.691  0.00  0.00    -0.260 NA
ATOM     22  N   LIG    1       -0.669  -0.902   1.912  0.00  0.00    -0.270 NA
ATOM     23  C   LIG    1       -0.522   0.254   2.516  0.00  0.00    +0.220 A 
ATOM     24  O   LIG    1       -0.006   1.113   1.615  0.00  0.00    -0.220 OA
BRANCH  23  25
ATOM     25  C   LIG    1       -0.859   0.557   3.923  0.00  0.00    -0.030 A 
ATOM     26  C   LIG    1       -0.643   1.837   4.435  0.00  0.00    +0.070 A 
ATOM     27  C   LIG    1       -0.965   2.115   5.747  0.00  0.00    +0.040 A 
ATOM     28  C   LIG    1       -1.491   1.124   6.559  0.00  0.00    -0.010 A 
ATOM     29  C   LIG    1       -1.702  -0.149   6.059  0.00  0.00    +0.040 A 
ATOM     30 CL   LIG    1       -1.887   1.480   8.212  0.00  0.00    -0.050 Cl
ATOM     31  C   LIG    1       -1.390  -0.438   4.747  0.00  0.00    +0.100 A 
ENDBRANCH  23  25
ENDBRANCH  19  20
ENDBRANCH   3  19
TORSDOF 7
