REMARK  Name = ZINCvU00000006eh.0
REMARK                            x       y       z     vdW  Elec       q    Type
REMARK                         _______ _______ _______ _____ _____    ______ ____
ROOT
ATOM      1  C   LIG    1        2.010   7.074  -4.582  0.00  0.00    -0.080 A 
ATOM      2  C   LIG    1        1.207   6.987  -5.702  0.00  0.00    +0.050 A 
ATOM      3  C   LIG    1        1.778   6.837  -6.954  0.00  0.00    +0.070 A 
ATOM      4  C   LIG    1        3.155   6.772  -7.084  0.00  0.00    +0.050 A 
ATOM      5  C   LIG    1        3.962   6.859  -5.965  0.00  0.00    -0.180 A 
ATOM      6  C   LIG    1        5.460   6.784  -6.118  0.00  0.00    +0.300 C 
ATOM      7  O   LIG    1        6.083   7.262  -4.922  0.00  0.00    -0.370 OA
ATOM      8  C   LIG    1        5.533   6.681  -3.733  0.00  0.00    +0.390 C 
ATOM      9  O   LIG    1        4.174   7.107  -3.603  0.00  0.00    -0.310 OA
ATOM     10  F   LIG    1        0.992   6.752  -8.049  0.00  0.00    -0.130 F 
ATOM     11  C   LIG    1        3.392   7.017  -4.712  0.00  0.00    +0.150 A 
ENDROOT
BRANCH   8  12
ATOM     12  C   LIG    1        6.324   7.138  -2.535  0.00  0.00    -0.090 A 
ATOM     13  C   LIG    1        5.701   7.845  -1.524  0.00  0.00    +0.050 A 
ATOM     14  C   LIG    1        6.425   8.259  -0.422  0.00  0.00    +0.010 A 
ATOM     15  C   LIG    1        7.776   7.977  -0.337  0.00  0.00    +0.020 A 
ATOM     16  C   LIG    1        8.400   7.274  -1.350  0.00  0.00    +0.010 A 
ATOM     17  C   LIG    1        7.675   6.855  -2.449  0.00  0.00    +0.040 A 
ENDBRANCH   8  12
BRANCH   1  18
ATOM     18  C   LIG    1        1.388   7.237  -3.219  0.00  0.00    +0.170 C 
BRANCH  18  19
ATOM     19  S   LIG    1        1.078   5.606  -2.498  0.00  0.00    +0.020 S 
BRANCH  19  24
ATOM     20  C   LIG    1       -1.137   5.617   2.336  0.00  0.00    +0.200 C 
ATOM     21  C   LIG    1       -0.538   6.060   1.027  0.00  0.00    +0.200 A 
ATOM     22  N   LIG    1       -0.365   7.290   0.633  0.00  0.00    -0.280 NA
ATOM     23  N   LIG    1        0.167   7.310  -0.537  0.00  0.00    -0.290 NA
ATOM     24  C   LIG    1        0.371   6.083  -0.956  0.00  0.00    +0.160 A 
ATOM     25  N   LIG    1       -0.069   5.245   0.031  0.00  0.00    -0.420 N 
BRANCH  25  26
ATOM     26  C   LIG    1       -0.050   3.842   0.023  0.00  0.00    +0.100 A 
ATOM     27  C   LIG    1        1.161   3.163   0.008  0.00  0.00    +0.030 A 
ATOM     28  C   LIG    1        1.176   1.782   0.000  0.00  0.00    +0.040 A 
ATOM     29  C   LIG    1       -0.013   1.076   0.008  0.00  0.00    +0.030 A 
ATOM     30  C   LIG    1       -1.220   1.750   0.017  0.00  0.00    +0.040 A 
ATOM     31  C   LIG    1       -1.242   3.131   0.030  0.00  0.00    +0.030 A 
ENDBRANCH  25  26
ENDBRANCH  19  24
ENDBRANCH  18  19
ENDBRANCH   1  18
TORSDOF 5
