REMARK  Name = ZINCri0000006wCP.0
REMARK                            x       y       z     vdW  Elec       q    Type
REMARK                         _______ _______ _______ _____ _____    ______ ____
ROOT
ATOM      1  C   LIG    1       -0.400   6.170  -0.224  0.00  0.00    +0.090 C 
ATOM      2  C   LIG    1        0.714   5.160  -0.123  0.00  0.00    -0.150 A 
ATOM      3  C   LIG    1        2.029   5.580  -0.119  0.00  0.00    +0.150 A 
ATOM      4  C   LIG    1        3.052   4.653  -0.033  0.00  0.00    -0.630 A 
ATOM      5  C   LIG    1        2.760   3.304   0.056  0.00  0.00    +0.150 A 
ATOM      6  C   LIG    1        1.446   2.880   0.059  0.00  0.00    -0.100 A 
ATOM      7  C   LIG    1        0.418   3.807  -0.028  0.00  0.00    +0.170 A 
ENDROOT
BRANCH   4   8
ATOM      8  S   LIG    1        4.730   5.191  -0.036  0.00  0.00    +2.560 S 
ATOM      9  O   LIG    1        5.482   4.166   0.598  0.00  0.00    -1.050 OA
ATOM     10  O   LIG    1        4.719   6.539   0.415  0.00  0.00    -1.050 OA
BRANCH   8  11
ATOM     11  N   LIG    1        5.229   5.230  -1.614  0.00  0.00    -0.900 NA
BRANCH  11  12
ATOM     12  N   LIG    1        6.537   5.626  -1.926  0.00  0.00    -0.480 N 
ATOM     13  H   LIG    1        7.149   5.878  -1.217  0.00  0.00    +0.350 HD
ATOM     14  C   LIG    1        6.943   5.658  -3.211  0.00  0.00    +0.570 C 
ATOM     15  O   LIG    1        6.211   5.246  -4.091  0.00  0.00    -0.570 OA
BRANCH  14  16
ATOM     16  C   LIG    1        8.268   6.189  -3.547  0.00  0.00    -0.010 A 
ATOM     17  C   LIG    1        9.229   6.609  -2.653  0.00  0.00    -0.030 A 
ATOM     18  C   LIG    1       10.330   7.035  -3.403  0.00  0.00    -0.080 A 
ATOM     19  C   LIG    1       10.029   6.871  -4.713  0.00  0.00    +0.150 A 
ATOM     20  N   LIG    1        8.781   6.352  -4.814  0.00  0.00    -0.410 N 
ATOM     21  C   LIG    1        8.092   6.022  -6.064  0.00  0.00    +0.310 C 
ENDBRANCH  14  16
ENDBRANCH  11  12
ENDBRANCH   8  11
ENDBRANCH   4   8
BRANCH   7  22
ATOM     22  O   LIG    1       -0.876   3.392  -0.026  0.00  0.00    -0.310 OA
BRANCH  22  23
ATOM     23  C   LIG    1       -1.105   1.984   0.069  0.00  0.00    +0.180 C 
BRANCH  23  24
ATOM     24  C   LIG    1       -2.611   1.711   0.057  0.00  0.00    +0.050 C 
BRANCH  24  25
ATOM     25  C   LIG    1       -2.856   0.204   0.158  0.00  0.00    -0.060 C 
BRANCH  25  26
ATOM     26  C   LIG    1       -4.339  -0.065   0.146  0.00  0.00    +0.490 C 
ATOM     27  O   LIG    1       -4.751  -1.210   0.218  0.00  0.00    -0.710 OA
ATOM     28  O   LIG    1       -5.126   0.862   0.064  0.00  0.00    -0.700 OA
ENDBRANCH  25  26
ENDBRANCH  24  25
ENDBRANCH  23  24
ENDBRANCH  22  23
ENDBRANCH   7  22
TORSDOF 9
