REMARK  Name = ZINCvU0000000HFM.0
REMARK                            x       y       z     vdW  Elec       q    Type
REMARK                         _______ _______ _______ _____ _____    ______ ____
ROOT
ATOM      1  S   LIG    1        2.381   3.596  -1.680  0.00  0.00    +0.070 S 
ENDROOT
BRANCH   1   5
ATOM      2  C   LIG    1        3.043   7.790  -1.637  0.00  0.00    +0.310 A 
ATOM      3  N   LIG    1        2.840   7.327  -0.444  0.00  0.00    -0.330 NA
ATOM      4  N   LIG    1        2.610   5.972  -0.361  0.00  0.00    -0.260 NA
ATOM      5  C   LIG    1        2.636   5.329  -1.487  0.00  0.00    +0.010 A 
ATOM      6  S   LIG    1        2.958   6.464  -2.793  0.00  0.00    +0.110 S 
BRANCH   2   7
ATOM      7  N   LIG    1        3.290   9.120  -1.955  0.00  0.00    -0.620 N 
ATOM      8  H   LIG    1        3.348   9.395  -2.883  0.00  0.00    +0.430 HD
BRANCH   7  12
ATOM      9  C   LIG    1        3.782  11.928   1.081  0.00  0.00    -0.100 A 
ATOM     10  C   LIG    1        4.136  10.609   1.298  0.00  0.00    +0.040 A 
ATOM     11  C   LIG    1        3.974   9.675   0.293  0.00  0.00    +0.020 A 
ATOM     12  C   LIG    1        3.455  10.062  -0.936  0.00  0.00    +0.150 A 
ATOM     13  C   LIG    1        3.106  11.390  -1.152  0.00  0.00    -0.010 A 
ATOM     14  C   LIG    1        3.265  12.317  -0.141  0.00  0.00    +0.040 A 
BRANCH   9  16
ATOM     15  C   LIG    1        5.353  13.568   2.077  0.00  0.00    +0.030 C 
ATOM     16  C   LIG    1        3.959  12.944   2.180  0.00  0.00    +0.050 C 
ENDBRANCH   9  16
ENDBRANCH   7  12
ENDBRANCH   2   7
ENDBRANCH   1   5
BRANCH   1  17
ATOM     17  C   LIG    1        2.106   3.032   0.022  0.00  0.00    +0.260 C 
BRANCH  17  18
ATOM     18  C   LIG    1        1.869   1.544   0.026  0.00  0.00    +0.180 A 
ATOM     19  N   LIG    1        2.782   0.612   0.141  0.00  0.00    -0.450 NA
ATOM     20  C   LIG    1        2.110  -0.562   0.092  0.00  0.00    +0.230 A 
ATOM     21  N   LIG    1        0.841  -0.274  -0.047  0.00  0.00    -0.350 NA
ATOM     22  O   LIG    1        0.688   0.928  -0.087  0.00  0.00    +0.090 OA
BRANCH  20  23
ATOM     23  C   LIG    1        2.701  -1.918   0.182  0.00  0.00    -0.100 A 
ATOM     24  C   LIG    1        4.078  -2.072   0.331  0.00  0.00    +0.160 A 
ATOM     25  C   LIG    1        4.625  -3.335   0.414  0.00  0.00    -0.110 A 
ATOM     26  C   LIG    1        3.807  -4.456   0.350  0.00  0.00    +0.190 A 
ATOM     27  C   LIG    1        2.435  -4.312   0.202  0.00  0.00    -0.100 A 
ATOM     28  C   LIG    1        1.877  -3.047   0.122  0.00  0.00    +0.200 A 
BRANCH  26  29
ATOM     29  O   LIG    1        4.352  -5.698   0.432  0.00  0.00    -0.310 OA
ATOM     30  C   LIG    1        5.771  -5.774   0.584  0.00  0.00    +0.240 C 
ENDBRANCH  26  29
BRANCH  28  31
ATOM     31  O   LIG    1        0.534  -2.904  -0.018  0.00  0.00    -0.290 OA
ATOM     32  C   LIG    1       -0.245  -4.101  -0.071  0.00  0.00    +0.250 C 
ENDBRANCH  28  31
ENDBRANCH  20  23
ENDBRANCH  17  18
ENDBRANCH   1  17
TORSDOF 9
