REMARK  Name = ZINCb70000002xIz.0
REMARK                            x       y       z     vdW  Elec       q    Type
REMARK                         _______ _______ _______ _____ _____    ______ ____
ROOT
ATOM      1  C   LIG    1       -0.016   1.355   0.025  0.00  0.00    +0.300 A 
ATOM      2  C   LIG    1        0.017   0.001  -0.083  0.00  0.00    -0.330 A 
ATOM      3  C   LIG    1        1.357  -0.397  -0.080  0.00  0.00    +0.110 A 
ATOM      4  N   LIG    1        2.103   0.673   0.025  0.00  0.00    -0.260 NA
ATOM      5  C   LIG    1        1.858  -1.815  -0.179  0.00  0.00    +0.170 C 
ATOM      6  N   LIG    1        1.261   1.791   0.093  0.00  0.00    -0.360 N 
ATOM      7  C   LIG    1        1.691   3.187   0.215  0.00  0.00    +0.370 C 
ENDROOT
BRANCH   1   9
ATOM      8  C   LIG    1       -1.637   2.491   1.339  0.00  0.00    +0.270 C 
ATOM      9  O   LIG    1       -1.130   2.131   0.052  0.00  0.00    -0.320 OA
ENDBRANCH   1   9
BRANCH   2  10
ATOM     10  C   LIG    1       -1.179  -0.911  -0.187  0.00  0.00    +0.360 C 
BRANCH  10  11
ATOM     11  N   LIG    1       -1.531  -1.096  -1.601  0.00  0.00    -0.640 N 
ATOM     12  H   LIG    1       -2.332  -1.706  -1.671  0.00  0.00    +0.440 HD
ATOM     13  H   LIG    1       -0.751  -1.508  -2.091  0.00  0.00    +0.430 HD
ATOM     14  H   LIG    1       -1.753  -0.202  -2.013  0.00  0.00    +0.430 HD
ENDBRANCH  10  11
ENDBRANCH   2  10
TORSDOF 3
