REMARK  Name = ZINCrD000000AjNy.0
REMARK                            x       y       z     vdW  Elec       q    Type
REMARK                         _______ _______ _______ _____ _____    ______ ____
ROOT
ATOM      1  O   LIG    1        6.888   7.479  -0.419  0.00  0.00    -0.520 OA
ATOM      2  C   LIG    1        6.620   6.935  -1.470  0.00  0.00    +0.520 C 
ATOM      3  N   LIG    1        6.899   7.549  -2.637  0.00  0.00    -0.670 N 
ATOM      4  H   LIG    1        6.748   7.086  -3.476  0.00  0.00    +0.410 HD
ENDROOT
BRANCH   3   5
ATOM      5  C   LIG    1        7.407   8.855  -2.638  0.00  0.00    +0.060 A 
ATOM      6  C   LIG    1        8.275   9.275  -1.632  0.00  0.00    +0.100 A 
ATOM      7  C   LIG    1        8.752  10.573  -1.672  0.00  0.00    -0.020 A 
ATOM      8  C   LIG    1        8.352  11.410  -2.708  0.00  0.00    +0.290 A 
ATOM      9  N   LIG    1        7.525  10.977  -3.647  0.00  0.00    -0.500 NA
ATOM     10  C   LIG    1        7.056   9.744  -3.643  0.00  0.00    +0.270 A 
BRANCH   8  11
ATOM     11  N   LIG    1        8.825  12.718  -2.758  0.00  0.00    -0.460 N 
ATOM     12  C   LIG    1       10.302  12.744  -2.916  0.00  0.00    +0.180 C 
ATOM     13  C   LIG    1       10.575  14.165  -3.470  0.00  0.00    +0.040 C 
ATOM     14  C   LIG    1        9.377  14.402  -4.418  0.00  0.00    +0.020 C 
ATOM     15  C   LIG    1        8.281  13.434  -3.932  0.00  0.00    +0.190 C 
ENDBRANCH   8  11
ENDBRANCH   3   5
BRANCH   2  16
ATOM     16  C   LIG    1        5.976   5.572  -1.470  0.00  0.00    +0.080 C 
BRANCH  16  17
ATOM     17  C   LIG    1        5.770   5.105  -0.027  0.00  0.00    +0.220 C 
BRANCH  17  18
ATOM     18  C   LIG    1        5.126   3.743  -0.028  0.00  0.00    +0.160 A 
ATOM     19  N   LIG    1        5.749   2.597  -0.038  0.00  0.00    -0.270 NA
ATOM     20  N   LIG    1        4.889   1.640  -0.035  0.00  0.00    -0.270 NA
ATOM     21  C   LIG    1        3.678   2.147  -0.023  0.00  0.00    +0.210 A 
ATOM     22  O   LIG    1        3.807   3.489  -0.024  0.00  0.00    -0.220 OA
BRANCH  21  23
ATOM     23  C   LIG    1        2.410   1.387  -0.016  0.00  0.00    -0.030 A 
ATOM     24  C   LIG    1        1.188   2.063  -0.004  0.00  0.00    +0.050 A 
ATOM     25  C   LIG    1        0.009   1.348   0.002  0.00  0.00    +0.010 A 
ATOM     26  C   LIG    1        0.034  -0.035  -0.004  0.00  0.00    +0.040 A 
ATOM     27  C   LIG    1        1.241  -0.711  -0.016  0.00  0.00    +0.020 A 
ATOM     28  C   LIG    1        2.429  -0.008  -0.022  0.00  0.00    +0.070 A 
ENDBRANCH  21  23
ENDBRANCH  17  18
ENDBRANCH  16  17
ENDBRANCH   2  16
TORSDOF 6
