REMARK  Name = ZINCvU00000006kL.0
REMARK                            x       y       z     vdW  Elec       q    Type
REMARK                         _______ _______ _______ _____ _____    ______ ____
ROOT
ATOM      1  C   LIG    1       -0.478   3.780  -2.328  0.00  0.00    +0.500 C 
ATOM      2  N   LIG    1       -0.578   4.133  -3.625  0.00  0.00    -0.670 N 
ATOM      3  H   LIG    1       -1.385   4.562  -3.950  0.00  0.00    +0.410 HD
ATOM      4  O   LIG    1        0.487   3.155  -1.942  0.00  0.00    -0.480 OA
ENDROOT
BRANCH   2   5
ATOM      5  C   LIG    1        0.485   3.881  -4.503  0.00  0.00    +0.170 A 
ATOM      6  C   LIG    1        1.777   3.765  -4.016  0.00  0.00    +0.040 A 
ATOM      7  C   LIG    1        2.823   3.510  -4.883  0.00  0.00    +0.030 A 
ATOM      8  C   LIG    1        2.587   3.383  -6.239  0.00  0.00    +0.010 A 
ATOM      9  C   LIG    1        1.303   3.503  -6.736  0.00  0.00    +0.020 A 
ATOM     10  C   LIG    1        0.246   3.752  -5.872  0.00  0.00    -0.120 A 
BRANCH  10  11
ATOM     11  S   LIG    1       -1.393   3.907  -6.502  0.00  0.00    -0.110 S 
BRANCH  11  12
ATOM     12  C   LIG    1       -1.169   3.664  -8.285  0.00  0.00    +0.140 C 
BRANCH  12  13
ATOM     13  C   LIG    1       -2.503   3.768  -8.978  0.00  0.00    -0.080 A 
ATOM     14  C   LIG    1       -3.277   2.638  -9.161  0.00  0.00    +0.020 A 
ATOM     15  C   LIG    1       -4.503   2.734  -9.792  0.00  0.00    +0.010 A 
ATOM     16  C   LIG    1       -4.951   3.960 -10.248  0.00  0.00    +0.010 A 
ATOM     17  C   LIG    1       -4.175   5.089 -10.070  0.00  0.00    +0.010 A 
ATOM     18  C   LIG    1       -2.951   4.994  -9.435  0.00  0.00    +0.030 A 
ENDBRANCH  12  13
ENDBRANCH  11  12
ENDBRANCH  10  11
ENDBRANCH   2   5
BRANCH   1  19
ATOM     19  C   LIG    1       -1.567   4.162  -1.358  0.00  0.00    +0.060 C 
BRANCH  19  31
ATOM     20  C   LIG    1       -0.015   0.003   0.013  0.00  0.00    +0.090 C 
ATOM     21  C   LIG    1       -0.025   1.510   0.017  0.00  0.00    +0.520 C 
ATOM     22  N   LIG    1       -1.197   2.176   0.027  0.00  0.00    -0.560 N 
ATOM     23  C   LIG    1       -2.397   1.476   0.035  0.00  0.00    +0.240 C 
ATOM     24  C   LIG    1       -3.461   1.995   0.660  0.00  0.00    -0.040 C 
ATOM     25  C   LIG    1       -3.346   3.316   1.307  0.00  0.00    -0.030 A 
ATOM     26  C   LIG    1       -4.336   3.776   2.173  0.00  0.00    +0.020 A 
ATOM     27  C   LIG    1       -4.198   5.012   2.773  0.00  0.00    +0.020 A 
ATOM     28  C   LIG    1       -3.087   5.793   2.511  0.00  0.00    +0.010 A 
ATOM     29  C   LIG    1       -2.110   5.349   1.635  0.00  0.00    +0.030 A 
ATOM     30  C   LIG    1       -2.239   4.122   1.025  0.00  0.00    -0.100 A 
ATOM     31  C   LIG    1       -1.210   3.643   0.037  0.00  0.00    +0.320 C 
ATOM     32  O   LIG    1        1.021   2.124   0.005  0.00  0.00    -0.480 OA
ENDBRANCH  19  31
ENDBRANCH   1  19
TORSDOF 6
