REMARK  Name = ZINCvU00000003Qg.0
REMARK                            x       y       z     vdW  Elec       q    Type
REMARK                         _______ _______ _______ _____ _____    ______ ____
ROOT
ATOM      1  C   LIG    1       -5.389  -2.190  -0.179  0.00  0.00    +0.180 A 
ATOM      2  N   LIG    1       -4.885  -0.980  -0.151  0.00  0.00    -0.480 NA
ATOM      3  C   LIG    1       -3.554  -1.145  -0.043  0.00  0.00    +0.170 A 
ATOM      4  N   LIG    1       -3.323  -2.423  -0.004  0.00  0.00    -0.370 NA
ATOM      5  O   LIG    1       -4.364  -3.041  -0.080  0.00  0.00    +0.120 OA
ENDROOT
BRANCH   3   6
ATOM      6  C   LIG    1       -2.522  -0.049   0.025  0.00  0.00    +0.070 C 
ATOM      7  C   LIG    1       -2.699   0.893  -1.167  0.00  0.00    +0.060 C 
ATOM      8  C   LIG    1       -2.699   0.737   1.327  0.00  0.00    +0.070 C 
BRANCH   6   9
ATOM      9  C   LIG    1       -1.143  -0.655  -0.013  0.00  0.00    -0.070 A 
ATOM     10  C   LIG    1       -0.253  -0.393   0.984  0.00  0.00    +0.020 A 
ATOM     11  C   LIG    1        1.027  -0.944   0.966  0.00  0.00    +0.010 A 
ATOM     12  C   LIG    1        1.424  -1.760  -0.049  0.00  0.00    +0.030 A 
ATOM     13  C   LIG    1        0.533  -2.053  -1.096  0.00  0.00    -0.050 A 
ATOM     14  C   LIG    1        0.908  -2.890  -2.160  0.00  0.00    +0.020 A 
ATOM     15  C   LIG    1        0.018  -3.152  -3.156  0.00  0.00    +0.010 A 
ATOM     16  C   LIG    1       -1.261  -2.601  -3.138  0.00  0.00    +0.000 A 
ATOM     17  C   LIG    1       -1.659  -1.785  -2.124  0.00  0.00    +0.020 A 
ATOM     18  C   LIG    1       -0.768  -1.492  -1.077  0.00  0.00    -0.030 A 
ENDBRANCH   6   9
ENDBRANCH   3   6
BRANCH   1  20
ATOM     19  C   LIG    1       -7.273  -3.355   0.937  0.00  0.00    +0.070 C 
ATOM     20  C   LIG    1       -6.848  -2.552  -0.294  0.00  0.00    +0.200 C 
BRANCH  20  21
ATOM     21  C   LIG    1       -7.064  -3.381  -1.534  0.00  0.00    -0.200 A 
ATOM     22  C   LIG    1       -7.902  -2.940  -2.504  0.00  0.00    +0.160 A 
ATOM     23  C   LIG    1       -8.090  -3.769  -3.696  0.00  0.00    -0.140 A 
ATOM     24  C   LIG    1       -8.941  -3.366  -4.730  0.00  0.00    +0.090 A 
ATOM     25  C   LIG    1       -9.094  -4.163  -5.830  0.00  0.00    -0.020 A 
ATOM     26  C   LIG    1       -8.413  -5.368  -5.929  0.00  0.00    +0.070 A 
ATOM     27  C   LIG    1       -7.569  -5.784  -4.922  0.00  0.00    -0.030 A 
ATOM     28  C   LIG    1       -7.396  -4.990  -3.793  0.00  0.00    +0.190 A 
ATOM     29  N   LIG    1       -6.558  -5.382  -2.772  0.00  0.00    -0.630 N 
ATOM     30  H   LIG    1       -6.081  -6.223  -2.841  0.00  0.00    +0.420 HD
ATOM     31  C   LIG    1       -6.388  -4.611  -1.683  0.00  0.00    +0.540 A 
ATOM     32  O   LIG    1       -5.635  -4.986  -0.801  0.00  0.00    -0.510 OA
ENDBRANCH  20  21
ENDBRANCH   1  20
TORSDOF 4
