REMARK  Name = ZINCpk00000xIbAg.0
REMARK                            x       y       z     vdW  Elec       q    Type
REMARK                         _______ _______ _______ _____ _____    ______ ____
ROOT
ATOM      1  N   LIG    1       -2.141   1.172   1.198  0.00  0.00    -0.570 N 
ATOM      2  C   LIG    1       -0.745   1.623   1.288  0.00  0.00    +0.300 C 
ATOM      3  C   LIG    1        0.013   1.129   0.052  0.00  0.00    +0.040 C 
ATOM      4  C   LIG    1       -0.718   1.595  -1.210  0.00  0.00    +0.090 C 
ATOM      5  C   LIG    1       -2.126   0.996  -1.236  0.00  0.00    +0.040 C 
ATOM      6  C   LIG    1       -2.909   1.488  -0.015  0.00  0.00    +0.300 C 
ENDROOT
BRANCH   1  10
ATOM      7  C   LIG    1       -1.795  -1.110   5.432  0.00  0.00    +0.380 C 
ATOM      8  N   LIG    1       -2.608  -0.662   4.298  0.00  0.00    -0.430 N 
ATOM      9  N   LIG    1       -2.006   0.054   3.258  0.00  0.00    -0.280 NA
ATOM     10  C   LIG    1       -2.726   0.457   2.243  0.00  0.00    +0.330 A 
ATOM     11  C   LIG    1       -4.166   0.148   2.225  0.00  0.00    +0.530 A 
ATOM     12  N   LIG    1       -4.700  -0.550   3.248  0.00  0.00    -0.550 N 
ATOM     13  C   LIG    1       -6.129  -0.873   3.247  0.00  0.00    +0.350 C 
ATOM     14  O   LIG    1       -4.863   0.514   1.297  0.00  0.00    -0.480 OA
ATOM     15  C   LIG    1       -3.922  -0.946   4.273  0.00  0.00    +0.670 A 
ATOM     16  O   LIG    1       -4.417  -1.571   5.192  0.00  0.00    -0.540 OA
ENDBRANCH   1  10
BRANCH   4  17
ATOM     17  C   LIG    1        0.044   1.140  -2.428  0.00  0.00    +0.100 A 
ATOM     18  N   LIG    1        0.294  -0.083  -2.705  0.00  0.00    -0.460 NA
ATOM     19  C   LIG    1        0.984  -0.345  -3.832  0.00  0.00    +0.080 A 
ATOM     20  C   LIG    1        1.387  -1.581  -4.373  0.00  0.00    +0.070 A 
ATOM     21  C   LIG    1        2.092  -1.627  -5.538  0.00  0.00    +0.030 A 
ATOM     22  C   LIG    1        2.425  -0.462  -6.213  0.00  0.00    +0.040 A 
ATOM     23  C   LIG    1        2.043   0.761  -5.707  0.00  0.00    +0.060 A 
ATOM     24  C   LIG    1        1.322   0.827  -4.517  0.00  0.00    -0.180 A 
ATOM     25  S   LIG    1        0.687   2.193  -3.606  0.00  0.00    +0.100 S 
ENDBRANCH   4  17
TORSDOF 2
