REMARK  Name = ZINCpk000005Wwd3.1
REMARK                            x       y       z     vdW  Elec       q    Type
REMARK                         _______ _______ _______ _____ _____    ______ ____
ROOT
ATOM      1  O   LIG    1       -1.042  -0.626   0.009  0.00  0.00    -0.530 OA
ATOM      2  C   LIG    1        0.002  -0.004   0.002  0.00  0.00    +0.570 C 
ATOM      3  N   LIG    1       -0.016   1.344   0.009  0.00  0.00    -0.720 N 
ATOM      4  H   LIG    1        0.817   1.840   0.004  0.00  0.00    +0.410 HD
ENDROOT
BRANCH   2   5
ATOM      5  C   LIG    1        1.290  -0.725  -0.014  0.00  0.00    -0.130 A 
ATOM      6  C   LIG    1        2.492  -0.004  -0.028  0.00  0.00    +0.020 A 
ATOM      7  C   LIG    1        3.688  -0.657  -0.038  0.00  0.00    +0.050 A 
ATOM      8  C   LIG    1        3.719  -2.055  -0.045  0.00  0.00    -0.080 A 
ATOM      9  C   LIG    1        4.796  -3.045  -0.061  0.00  0.00    -0.060 A 
ATOM     10  C   LIG    1        4.217  -4.258  -0.061  0.00  0.00    +0.250 A 
ATOM     11  N   LIG    1        2.858  -4.126  -0.048  0.00  0.00    -0.590 N 
ATOM     12  H   LIG    1        2.226  -4.863  -0.045  0.00  0.00    +0.420 HD
ATOM     13  C   LIG    1        2.517  -2.791  -0.037  0.00  0.00    +0.080 A 
ATOM     14  C   LIG    1        1.305  -2.118  -0.022  0.00  0.00    +0.090 A 
ENDBRANCH   2   5
BRANCH   3  15
ATOM     15  C   LIG    1       -1.295   2.059   0.019  0.00  0.00    +0.240 C 
ATOM     16  C   LIG    1       -1.649   2.713  -1.328  0.00  0.00    +0.270 C 
ATOM     17  N   LIG    1       -2.094   3.875  -0.530  0.00  0.00    -0.650 N 
ATOM     18  C   LIG    1       -2.967   4.882  -0.734  0.00  0.00    +0.540 C 
ATOM     19  O   LIG    1       -3.136   5.721   0.126  0.00  0.00    -0.530 OA
ATOM     20  C   LIG    1       -1.200   3.490   0.579  0.00  0.00    +0.280 C 
BRANCH  18  21
ATOM     21  C   LIG    1       -3.732   4.965  -2.029  0.00  0.00    +0.060 C 
BRANCH  21  22
ATOM     22  C   LIG    1       -4.647   6.191  -2.003  0.00  0.00    +0.150 C 
BRANCH  22  23
ATOM     23  C   LIG    1       -5.413   6.274  -3.299  0.00  0.00    -0.030 A 
ATOM     24  C   LIG    1       -4.992   6.842  -4.445  0.00  0.00    +0.150 A 
ATOM     25  N   LIG    1       -5.964   6.702  -5.358  0.00  0.00    -0.490 NA
ATOM     26  C   LIG    1       -6.975   6.077  -4.819  0.00  0.00    +0.400 A 
ATOM     27  N   LIG    1       -6.672   5.791  -3.535  0.00  0.00    -0.570 N 
ATOM     28  H   LIG    1       -7.240   5.330  -2.898  0.00  0.00    +0.420 HD
ENDBRANCH  22  23
ENDBRANCH  21  22
ENDBRANCH  18  21
ENDBRANCH   3  15
TORSDOF 5
