REMARK  Name = ZINCpk000005Wwd3.0
REMARK                            x       y       z     vdW  Elec       q    Type
REMARK                         _______ _______ _______ _____ _____    ______ ____
ROOT
ATOM      1  O   LIG    1       -1.327   9.019   4.202  0.00  0.00    -0.530 OA
ATOM      2  C   LIG    1       -2.229   8.547   4.867  0.00  0.00    +0.570 C 
ATOM      3  N   LIG    1       -2.869   7.438   4.445  0.00  0.00    -0.710 N 
ATOM      4  H   LIG    1       -3.588   7.061   4.975  0.00  0.00    +0.400 HD
ENDROOT
BRANCH   2   5
ATOM      5  C   LIG    1       -2.623   9.187   6.137  0.00  0.00    -0.130 A 
ATOM      6  C   LIG    1       -3.668   8.643   6.898  0.00  0.00    +0.020 A 
ATOM      7  C   LIG    1       -4.037   9.223   8.074  0.00  0.00    +0.050 A 
ATOM      8  C   LIG    1       -3.381  10.373   8.523  0.00  0.00    -0.080 A 
ATOM      9  C   LIG    1       -3.524  11.227   9.702  0.00  0.00    -0.060 A 
ATOM     10  C   LIG    1       -2.605  12.203   9.596  0.00  0.00    +0.250 A 
ATOM     11  N   LIG    1       -1.885  12.043   8.446  0.00  0.00    -0.590 N 
ATOM     12  H   LIG    1       -1.166  12.625   8.153  0.00  0.00    +0.420 HD
ATOM     13  C   LIG    1       -2.333  10.933   7.764  0.00  0.00    +0.080 A 
ATOM     14  C   LIG    1       -1.960  10.333   6.570  0.00  0.00    +0.090 A 
ENDBRANCH   2   5
BRANCH   3  15
ATOM     15  C   LIG    1       -2.478   6.802   3.184  0.00  0.00    +0.250 C 
ATOM     16  C   LIG    1       -3.591   5.978   2.523  0.00  0.00    +0.270 C 
ATOM     17  N   LIG    1       -2.572   4.974   2.179  0.00  0.00    -0.650 N 
ATOM     18  C   LIG    1       -2.412   4.044   1.218  0.00  0.00    +0.550 C 
ATOM     19  O   LIG    1       -3.260   3.906   0.361  0.00  0.00    -0.530 OA
ATOM     20  C   LIG    1       -1.808   5.428   3.351  0.00  0.00    +0.260 C 
BRANCH  18  21
ATOM     21  C   LIG    1       -1.181   3.175   1.207  0.00  0.00    +0.070 C 
BRANCH  21  22
ATOM     22  C   LIG    1       -1.247   2.211   0.020  0.00  0.00    +0.140 C 
BRANCH  22  23
ATOM     23  C   LIG    1       -0.016   1.343   0.009  0.00  0.00    +0.000 A 
ATOM     24  C   LIG    1        0.002  -0.004   0.002  0.00  0.00    +0.130 A 
ATOM     25  N   LIG    1        1.317  -0.382  -0.013  0.00  0.00    -0.570 N 
ATOM     26  H   LIG    1        1.655  -1.292  -0.021  0.00  0.00    +0.420 HD
ATOM     27  C   LIG    1        2.058   0.747  -0.014  0.00  0.00    +0.400 A 
ATOM     28  N   LIG    1        1.254   1.775  -0.000  0.00  0.00    -0.490 NA
ENDBRANCH  22  23
ENDBRANCH  21  22
ENDBRANCH  18  21
ENDBRANCH   3  15
TORSDOF 5
