REMARK  Name = ZINCqH00000369M7.0
REMARK                            x       y       z     vdW  Elec       q    Type
REMARK                         _______ _______ _______ _____ _____    ______ ____
ROOT
ATOM      1  N   LIG    1        1.118  -2.263  -3.251  0.00  0.00    -0.740 N 
ATOM      2  H   LIG    1        0.453  -2.793  -2.785  0.00  0.00    +0.400 HD
ATOM      3  C   LIG    1        1.052  -0.917  -3.214  0.00  0.00    +0.710 C 
ATOM      4  N   LIG    1        0.063  -0.309  -2.530  0.00  0.00    -0.740 N 
ATOM      5  H   LIG    1       -0.601  -0.840  -2.064  0.00  0.00    +0.400 HD
ATOM      6  O   LIG    1        1.886  -0.252  -3.799  0.00  0.00    -0.580 OA
ENDROOT
BRANCH   1  15
ATOM      7  C   LIG    1        1.054  -3.072  -8.117  0.00  0.00    +0.130 A 
ATOM      8  C   LIG    1        0.826  -1.935  -7.356  0.00  0.00    -0.080 A 
ATOM      9  C   LIG    1        1.202  -1.913  -6.030  0.00  0.00    +0.070 A 
ATOM     10  C   LIG    1        1.806  -3.021  -5.447  0.00  0.00    -0.140 A 
ATOM     11  C   LIG    1        2.029  -4.152  -6.200  0.00  0.00    -0.030 A 
ATOM     12  C   LIG    1        2.673  -5.390  -5.631  0.00  0.00    +0.080 C 
ATOM     13  C   LIG    1        3.400  -5.067  -4.327  0.00  0.00    +0.030 C 
ATOM     14  C   LIG    1        2.431  -4.314  -3.408  0.00  0.00    +0.020 C 
ATOM     15  C   LIG    1        2.193  -2.924  -3.995  0.00  0.00    +0.310 C 
ATOM     16  C   LIG    1        1.654  -4.176  -7.536  0.00  0.00    -0.030 A 
BRANCH   7  18
ATOM     17  C   LIG    1        0.076  -1.926  -9.956  0.00  0.00    +0.240 C 
ATOM     18  O   LIG    1        0.690  -3.102  -9.426  0.00  0.00    -0.320 OA
ENDBRANCH   7  18
ENDBRANCH   1  15
BRANCH   4  19
ATOM     19  C   LIG    1       -0.008   1.154  -2.490  0.00  0.00    +0.300 C 
BRANCH  19  20
ATOM     20  C   LIG    1       -0.756   1.594  -1.230  0.00  0.00    +0.150 C 
ATOM     21  C   LIG    1       -0.013   1.086   0.008  0.00  0.00    -0.010 C 
ATOM     22  C   LIG    1       -0.732   1.581   1.266  0.00  0.00    +0.010 C 
ATOM     23  C   LIG    1       -0.817   3.110   1.224  0.00  0.00    -0.020 C 
ATOM     24  C   LIG    1       -1.528   3.540  -0.061  0.00  0.00    +0.210 C 
ATOM     25  O   LIG    1       -0.824   3.021  -1.191  0.00  0.00    -0.370 OA
ENDBRANCH  19  20
BRANCH  19  26
ATOM     26  C   LIG    1       -0.751   1.662  -3.728  0.00  0.00    -0.040 C 
ATOM     27  C   LIG    1       -1.431   0.622  -4.620  0.00  0.00    +0.000 C 
ATOM     28  C   LIG    1       -0.157   1.323  -5.097  0.00  0.00    +0.020 C 
ENDBRANCH  19  26
ENDBRANCH   4  19
TORSDOF 5
