REMARK  Name = ZINCrH000004rOJc.0
REMARK                            x       y       z     vdW  Elec       q    Type
REMARK                         _______ _______ _______ _____ _____    ______ ____
ROOT
ATOM      1  C   LIG    1        0.819   3.223  -1.019  0.00  0.00    -0.020 C 
ATOM      2  C   LIG    1        1.900   2.675  -1.953  0.00  0.00    +0.050 C 
ATOM      3  C   LIG    1        3.161   3.533  -1.835  0.00  0.00    +0.010 C 
ATOM      4  C   LIG    1        3.686   3.467  -0.398  0.00  0.00    +0.260 C 
ATOM      5  N   LIG    1        2.605   3.855   0.519  0.00  0.00    -0.610 N 
ATOM      6  C   LIG    1        2.791   4.834   1.425  0.00  0.00    +0.560 C 
ATOM      7  O   LIG    1        1.864   5.206   2.118  0.00  0.00    -0.530 OA
ATOM      8  C   LIG    1        1.316   3.155   0.428  0.00  0.00    +0.300 C 
ENDROOT
BRANCH   6   9
ATOM      9  C   LIG    1        4.123   5.457   1.577  0.00  0.00    -0.120 A 
ATOM     10  C   LIG    1        5.277   4.676   1.491  0.00  0.00    +0.030 A 
ATOM     11  C   LIG    1        6.517   5.264   1.629  0.00  0.00    -0.090 A 
ATOM     12  C   LIG    1        6.619   6.624   1.862  0.00  0.00    +0.030 A 
ATOM     13  C   LIG    1        5.479   7.404   1.954  0.00  0.00    -0.090 A 
ATOM     14  C   LIG    1        5.600   8.884   2.209  0.00  0.00    +0.090 C 
ATOM     15  C   LIG    1        7.763   4.423   1.530  0.00  0.00    +0.090 C 
ATOM     16  C   LIG    1        4.233   6.829   1.813  0.00  0.00    +0.060 A 
ENDBRANCH   6   9
BRANCH   1  19
ATOM     17  N   LIG    1       -1.527   2.701  -0.432  0.00  0.00    -0.730 N 
ATOM     18  H   LIG    1       -1.506   3.449   0.186  0.00  0.00    +0.400 HD
ATOM     19  C   LIG    1       -0.434   2.398  -1.160  0.00  0.00    +0.520 C 
ATOM     20  O   LIG    1       -0.461   1.463  -1.933  0.00  0.00    -0.530 OA
BRANCH  17  21
ATOM     21  C   LIG    1       -2.747   1.902  -0.573  0.00  0.00    +0.320 C 
BRANCH  21  27
ATOM     22  C   LIG    1       -5.022   1.936   3.884  0.00  0.00    +0.090 C 
ATOM     23  C   LIG    1       -4.901   2.461   2.477  0.00  0.00    -0.090 A 
ATOM     24  C   LIG    1       -5.766   3.441   2.027  0.00  0.00    +0.010 A 
ATOM     25  C   LIG    1       -5.655   3.922   0.736  0.00  0.00    +0.010 A 
ATOM     26  C   LIG    1       -4.678   3.424  -0.105  0.00  0.00    +0.010 A 
ATOM     27  C   LIG    1       -3.812   2.445   0.344  0.00  0.00    -0.110 A 
ATOM     28  C   LIG    1       -3.926   1.960   1.633  0.00  0.00    +0.020 A 
ENDBRANCH  21  27
ENDBRANCH  17  21
ENDBRANCH   1  19
TORSDOF 4
