REMARK  Name = ZINCrg000000ofKS.0
REMARK                            x       y       z     vdW  Elec       q    Type
REMARK                         _______ _______ _______ _____ _____    ______ ____
ROOT
ATOM      1  C   LIG    1        0.517   4.300  -4.248  0.00  0.00    +0.320 C 
ENDROOT
BRANCH   1   8
ATOM      2  C   LIG    1       -2.087   0.923  -0.856  0.00  0.00    +0.150 C 
ATOM      3  C   LIG    1       -0.762   1.594  -1.235  0.00  0.00    +0.250 C 
ATOM      4  N   LIG    1       -0.926   3.051  -1.107  0.00  0.00    -0.630 N 
ATOM      5  C   LIG    1       -1.488   3.576   0.148  0.00  0.00    +0.280 C 
ATOM      6  C   LIG    1       -2.778   2.808   0.459  0.00  0.00    +0.220 C 
ATOM      7  C   LIG    1       -0.573   3.880  -2.110  0.00  0.00    +0.720 C 
ATOM      8  N   LIG    1        0.035   3.388  -3.207  0.00  0.00    -0.740 N 
ATOM      9  H   LIG    1        0.155   2.431  -3.308  0.00  0.00    +0.410 HD
ATOM     10  O   LIG    1       -0.804   5.070  -2.024  0.00  0.00    -0.580 OA
ATOM     11  O   LIG    1       -2.512   1.404   0.421  0.00  0.00    -0.360 OA
BRANCH   2  12
ATOM     12  C   LIG    1       -1.893  -0.593  -0.793  0.00  0.00    +0.200 C 
BRANCH  12  13
ATOM     13  O   LIG    1       -3.152  -1.226  -0.555  0.00  0.00    -0.380 OA
BRANCH  13  15
ATOM     14  C   LIG    1       -4.479  -3.218  -0.223  0.00  0.00    +0.040 C 
ATOM     15  C   LIG    1       -3.081  -2.651  -0.479  0.00  0.00    +0.160 C 
ENDBRANCH  13  15
ENDBRANCH  12  13
ENDBRANCH   2  12
ENDBRANCH   1   8
BRANCH   1  16
ATOM     16  C   LIG    1        1.154   3.504  -5.358  0.00  0.00    +0.510 C 
ATOM     17  N   LIG    1        1.671   4.137  -6.429  0.00  0.00    -0.710 N 
ATOM     18  H   LIG    1        1.633   5.105  -6.486  0.00  0.00    +0.410 HD
ATOM     19  O   LIG    1        1.201   2.295  -5.287  0.00  0.00    -0.530 OA
BRANCH  17  20
ATOM     20  C   LIG    1        2.290   3.363  -7.509  0.00  0.00    +0.290 C 
ATOM     21  C   LIG    1        3.305   4.240  -8.246  0.00  0.00    +0.010 C 
ATOM     22  C   LIG    1        3.718   3.517  -9.535  0.00  0.00    +0.260 C 
ATOM     23  O   LIG    1        2.573   3.418 -10.383  0.00  0.00    -0.310 OA
ATOM     24  C   LIG    1        1.419   2.950  -9.840  0.00  0.00    +0.140 A 
ATOM     25  C   LIG    1        0.414   2.510 -10.695  0.00  0.00    -0.020 A 
ATOM     26  C   LIG    1       -0.774   2.031 -10.181  0.00  0.00    +0.050 A 
ATOM     27  C   LIG    1       -0.968   1.988  -8.813  0.00  0.00    -0.040 A 
ATOM     28  C   LIG    1        0.029   2.423  -7.961  0.00  0.00    +0.060 A 
ATOM     29  C   LIG    1        1.224   2.902  -8.470  0.00  0.00    -0.180 A 
ENDBRANCH  17  20
ENDBRANCH   1  16
TORSDOF 6
