REMARK  Name = ZINCnE000001FO0D.0
REMARK                            x       y       z     vdW  Elec       q    Type
REMARK                         _______ _______ _______ _____ _____    ______ ____
ROOT
ATOM      1  N   LIG    1        3.692   1.863  -0.085  0.00  0.00    -0.490 N 
ATOM      2  C   LIG    1        4.521   0.796  -0.301  0.00  0.00    +0.220 A 
ATOM      3  C   LIG    1        3.801  -0.334  -0.387  0.00  0.00    -0.050 A 
ATOM      4  C   LIG    1        2.395   0.040  -0.211  0.00  0.00    -0.090 A 
ATOM      5  C   LIG    1        1.197  -0.676  -0.199  0.00  0.00    +0.070 A 
ATOM      6  C   LIG    1        0.003  -0.006  -0.003  0.00  0.00    +0.120 A 
ATOM      7  C   LIG    1       -0.004   1.375   0.181  0.00  0.00    +0.010 A 
ATOM      8  C   LIG    1        1.172   2.090   0.172  0.00  0.00    +0.010 A 
ATOM      9  C   LIG    1        2.383   1.434  -0.024  0.00  0.00    +0.080 A 
ENDROOT
BRANCH   6  10
ATOM     10  N   LIG    1       -1.203  -0.719   0.009  0.00  0.00    -0.680 N 
ATOM     11  H   LIG    1       -2.013  -0.308  -0.333  0.00  0.00    +0.410 HD
ATOM     12  C   LIG    1       -1.239  -1.975   0.496  0.00  0.00    +0.520 C 
ATOM     13  O   LIG    1       -0.251  -2.454   1.011  0.00  0.00    -0.520 OA
BRANCH  12  14
ATOM     14  C   LIG    1       -2.507  -2.784   0.401  0.00  0.00    -0.010 C 
ATOM     15  C   LIG    1       -3.650  -2.094   1.186  0.00  0.00    +0.010 C 
ATOM     16  C   LIG    1       -4.609  -3.270   1.497  0.00  0.00    +0.040 C 
ATOM     17  C   LIG    1       -3.669  -4.454   1.802  0.00  0.00    -0.100 C 
ATOM     18  C   LIG    1       -2.333  -4.145   1.106  0.00  0.00    +0.060 C 
BRANCH  17  19
ATOM     19  C   LIG    1       -4.254  -5.731   1.256  0.00  0.00    +0.500 C 
ATOM     20  O   LIG    1       -3.643  -6.780   1.373  0.00  0.00    -0.700 OA
ATOM     21  O   LIG    1       -5.337  -5.715   0.695  0.00  0.00    -0.700 OA
ENDBRANCH  17  19
ENDBRANCH  12  14
ENDBRANCH   6  10
BRANCH   1  22
ATOM     22  C   LIG    1        4.131   3.253   0.062  0.00  0.00    +0.280 C 
BRANCH  22  24
ATOM     23  C   LIG    1        4.750   5.035   1.700  0.00  0.00    +0.030 C 
ATOM     24  C   LIG    1        4.292   3.583   1.547  0.00  0.00    +0.000 C 
ENDBRANCH  22  24
ENDBRANCH   1  22
TORSDOF 5
