REMARK  Name = ZINCtV00000tRQFx.0
REMARK                            x       y       z     vdW  Elec       q    Type
REMARK                         _______ _______ _______ _____ _____    ______ ____
ROOT
ATOM      1  O   LIG    1        1.028   1.966   0.007  0.00  0.00    -0.550 OA
ATOM      2  C   LIG    1       -0.017   1.344   0.005  0.00  0.00    +0.720 C 
ATOM      3  N   LIG    1       -1.193   2.001   0.002  0.00  0.00    -0.620 N 
ATOM      4  C   LIG    1       -2.543   1.390  -0.006  0.00  0.00    +0.320 C 
ATOM      5  C   LIG    1       -3.568   2.550   0.123  0.00  0.00    +0.090 C 
ATOM      6  C   LIG    1       -2.714   3.654   0.764  0.00  0.00    -0.010 C 
ATOM      7  C   LIG    1       -3.165   5.075   0.471  0.00  0.00    +0.030 C 
ATOM      8  C   LIG    1       -2.120   6.022   1.083  0.00  0.00    +0.010 C 
ATOM      9  C   LIG    1       -0.728   5.760   0.516  0.00  0.00    +0.010 C 
ATOM     10  C   LIG    1       -0.321   4.287   0.688  0.00  0.00    +0.040 C 
ATOM     11  C   LIG    1       -1.376   3.443   0.010  0.00  0.00    +0.220 C 
ATOM     12  N   LIG    1        0.002  -0.004   0.002  0.00  0.00    -0.680 N 
ATOM     13  H   LIG    1       -0.827  -0.501   0.083  0.00  0.00    +0.410 HD
ENDROOT
BRANCH   4  14
ATOM     14  C   LIG    1       -2.765   0.650  -1.300  0.00  0.00    +0.260 A 
ATOM     15  N   LIG    1       -3.890   0.108  -1.665  0.00  0.00    -0.470 NA
ATOM     16  C   LIG    1       -3.742  -0.474  -2.883  0.00  0.00    +0.050 A 
ATOM     17  C   LIG    1       -4.605  -1.181  -3.724  0.00  0.00    +0.070 A 
ATOM     18  C   LIG    1       -4.149  -1.658  -4.921  0.00  0.00    +0.000 A 
ATOM     19  C   LIG    1       -2.835  -1.447  -5.313  0.00  0.00    +0.040 A 
ATOM     20  C   LIG    1       -1.966  -0.753  -4.499  0.00  0.00    +0.010 A 
ATOM     21  C   LIG    1       -2.410  -0.261  -3.279  0.00  0.00    +0.050 A 
ATOM     22  N   LIG    1       -1.820   0.457  -2.259  0.00  0.00    -0.590 N 
ATOM     23  H   LIG    1       -0.900   0.766  -2.231  0.00  0.00    +0.420 HD
ENDBRANCH   4  14
BRANCH  12  24
ATOM     24  C   LIG    1        1.218  -0.687  -0.119  0.00  0.00    +0.190 A 
ATOM     25  C   LIG    1        2.302  -0.074  -0.732  0.00  0.00    +0.050 A 
ATOM     26  C   LIG    1        3.502  -0.751  -0.850  0.00  0.00    -0.010 A 
ATOM     27  C   LIG    1        3.623  -2.038  -0.358  0.00  0.00    +0.030 A 
ATOM     28  C   LIG    1        2.544  -2.652   0.254  0.00  0.00    +0.080 A 
ATOM     29 CL   LIG    1        4.858   0.015  -1.616  0.00  0.00    -0.050 Cl
ATOM     30  C   LIG    1        1.344  -1.978   0.379  0.00  0.00    -0.070 A 
ATOM     31 CL   LIG    1       -0.006  -2.747   1.153  0.00  0.00    -0.050 Cl
ENDBRANCH  12  24
TORSDOF 2
