REMARK  Name = ZINCrH000004phH5.0
REMARK                            x       y       z     vdW  Elec       q    Type
REMARK                         _______ _______ _______ _____ _____    ______ ____
ROOT
ATOM      1  C   LIG    1        4.486   5.676   1.093  0.00  0.00    -0.030 A 
ATOM      2  C   LIG    1        5.318   5.439   2.171  0.00  0.00    -0.010 A 
ATOM      3  C   LIG    1        6.617   5.913   2.159  0.00  0.00    +0.120 A 
ATOM      4  C   LIG    1        7.080   6.633   1.073  0.00  0.00    -0.680 A 
ATOM      5  C   LIG    1        6.246   6.874  -0.003  0.00  0.00    +0.120 A 
ATOM      6  C   LIG    1        4.949   6.396   0.007  0.00  0.00    -0.010 A 
ENDROOT
BRANCH   4   7
ATOM      7  S   LIG    1        8.733   7.242   1.060  0.00  0.00    +2.690 S 
ATOM      8  O   LIG    1        9.085   7.421  -0.305  0.00  0.00    -0.950 OA
ATOM      9  O   LIG    1        9.472   6.418   1.952  0.00  0.00    -0.950 OA
BRANCH   7  10
ATOM     10  N   LIG    1        8.704   8.754   1.737  0.00  0.00    -1.000 NA
ATOM     11  C   LIG    1        8.501   9.944   0.901  0.00  0.00    +0.290 C 
ATOM     12  C   LIG    1        7.327  10.751   1.476  0.00  0.00    +0.010 C 
ATOM     13  C   LIG    1        7.600  11.058   2.950  0.00  0.00    +0.020 C 
ATOM     14  C   LIG    1        7.714   9.748   3.733  0.00  0.00    +0.010 C 
ATOM     15  C   LIG    1        8.886   8.930   3.184  0.00  0.00    +0.290 C 
ENDBRANCH   7  10
ENDBRANCH   4   7
BRANCH   1  16
ATOM     16  C   LIG    1        3.072   5.154   1.103  0.00  0.00    +0.110 C 
BRANCH  16  17
ATOM     17  C   LIG    1        3.041   3.755   0.486  0.00  0.00    +0.060 C 
BRANCH  17  20
ATOM     18  N   LIG    1        1.356   2.010  -0.000  0.00  0.00    -0.730 N 
ATOM     19  H   LIG    1        2.071   1.465  -0.365  0.00  0.00    +0.400 HD
ATOM     20  C   LIG    1        1.627   3.233   0.497  0.00  0.00    +0.520 C 
ATOM     21  O   LIG    1        0.733   3.914   0.953  0.00  0.00    -0.530 OA
BRANCH  18  23
ATOM     22  C   LIG    1       -0.758   2.010  -1.229  0.00  0.00    +0.040 C 
ATOM     23  C   LIG    1       -0.018   1.503   0.010  0.00  0.00    +0.330 C 
BRANCH  23  24
ATOM     24  C   LIG    1        0.002  -0.004   0.002  0.00  0.00    -0.200 A 
ATOM     25  C   LIG    1       -0.816  -0.788   0.706  0.00  0.00    +0.020 A 
ATOM     26  C   LIG    1       -0.610  -2.147   0.538  0.00  0.00    +0.010 A 
ATOM     27  C   LIG    1        0.375  -2.466  -0.303  0.00  0.00    -0.030 A 
ATOM     28  S   LIG    1        1.103  -0.998  -0.944  0.00  0.00    +0.100 S 
ENDBRANCH  23  24
ENDBRANCH  18  23
ENDBRANCH  17  20
ENDBRANCH  16  17
ENDBRANCH   1  16
TORSDOF 7
