REMARK  Name = ZINCqH0000033prj.0
REMARK                            x       y       z     vdW  Elec       q    Type
REMARK                         _______ _______ _______ _____ _____    ______ ____
ROOT
ATOM      1  N   LIG    1       -0.018   1.383  -0.134  0.00  0.00    -0.360 N 
ATOM      2  N   LIG    1        0.004   0.012   0.158  0.00  0.00    -0.260 NA
ATOM      3  C   LIG    1        1.252  -0.366   0.228  0.00  0.00    +0.350 A 
ATOM      4  N   LIG    1        2.056   0.732  -0.014  0.00  0.00    -0.460 N 
ATOM      5  C   LIG    1        1.261   1.798  -0.234  0.00  0.00    +0.470 A 
ATOM      6  S   LIG    1        1.782   3.391  -0.580  0.00  0.00    -0.560 S 
ENDROOT
BRANCH   3   7
ATOM      7  C   LIG    1        1.723  -1.732   0.516  0.00  0.00    -0.170 A 
ATOM      8  C   LIG    1        0.928  -2.798   0.751  0.00  0.00    +0.100 A 
ATOM      9  C   LIG    1        1.601  -3.975   0.996  0.00  0.00    +0.010 A 
ATOM     10  C   LIG    1        2.934  -3.883   0.964  0.00  0.00    -0.010 A 
ATOM     11  S   LIG    1        3.408  -2.228   0.600  0.00  0.00    +0.160 S 
ENDBRANCH   3   7
BRANCH   4  12
ATOM     12  C   LIG    1        3.521   0.736  -0.028  0.00  0.00    +0.170 C 
ATOM     13  C   LIG    1        4.224   2.092   0.060  0.00  0.00    +0.100 C 
ATOM     14  C   LIG    1        4.214   1.318  -1.261  0.00  0.00    +0.060 C 
ENDBRANCH   4  12
BRANCH   1  15
ATOM     15  C   LIG    1       -1.213   2.212  -0.306  0.00  0.00    +0.530 C 
BRANCH  15  19
ATOM     16  C   LIG    1       -3.946   2.892   2.911  0.00  0.00    +0.030 C 
ATOM     17  C   LIG    1       -3.089   4.050   2.392  0.00  0.00    +0.060 C 
ATOM     18  C   LIG    1       -2.601   3.723   0.979  0.00  0.00    +0.200 C 
ATOM     19  N   LIG    1       -1.814   2.483   1.006  0.00  0.00    -0.550 NA
ATOM     20  C   LIG    1       -2.629   1.348   1.457  0.00  0.00    +0.190 C 
ATOM     21  C   LIG    1       -3.118   1.604   2.884  0.00  0.00    +0.060 C 
BRANCH  16  22
ATOM     22  C   LIG    1       -4.380   3.182   4.325  0.00  0.00    +0.470 C 
ATOM     23  O   LIG    1       -4.041   4.209   4.863  0.00  0.00    -0.500 OA
BRANCH  22  24
ATOM     24  O   LIG    1       -5.145   2.299   4.986  0.00  0.00    -0.360 OA
BRANCH  24  26
ATOM     25  C   LIG    1       -6.388   1.525   6.932  0.00  0.00    +0.070 C 
ATOM     26  C   LIG    1       -5.526   2.644   6.345  0.00  0.00    +0.200 C 
ENDBRANCH  24  26
ENDBRANCH  22  24
ENDBRANCH  16  22
ENDBRANCH  15  19
ENDBRANCH   1  15
TORSDOF 7
