REMARK  Name = ZINCvU0000000E97.0
REMARK                            x       y       z     vdW  Elec       q    Type
REMARK                         _______ _______ _______ _____ _____    ______ ____
ROOT
ATOM      1  O   LIG    1        2.499  -0.139  -0.021  0.00  0.00    -0.490 OA
ATOM      2  C   LIG    1        2.478   1.076  -0.015  0.00  0.00    +0.520 C 
ENDROOT
BRANCH   2   3
ATOM      3  C   LIG    1        1.186   1.792   0.000  0.00  0.00    -0.120 A 
ATOM      4  C   LIG    1       -0.013   1.076   0.008  0.00  0.00    +0.190 A 
ATOM      5  C   LIG    1       -1.216   1.751   0.017  0.00  0.00    -0.190 A 
ATOM      6  C   LIG    1       -1.236   3.134   0.030  0.00  0.00    +0.180 A 
ATOM      7  C   LIG    1       -0.052   3.850   0.022  0.00  0.00    -0.200 A 
ATOM      8  C   LIG    1        1.158   3.188   0.008  0.00  0.00    +0.190 A 
BRANCH   7   9
ATOM      9  C   LIG    1       -0.084   5.357   0.030  0.00  0.00    +0.510 C 
ATOM     10  F   LIG    1       -0.743   5.803   1.181  0.00  0.00    -0.170 F 
ATOM     11  F   LIG    1       -0.764   5.815  -1.103  0.00  0.00    -0.170 F 
ATOM     12  F   LIG    1        1.224   5.851   0.020  0.00  0.00    -0.170 F 
ENDBRANCH   7   9
BRANCH   5  13
ATOM     13  C   LIG    1       -2.510   0.980   0.019  0.00  0.00    +0.520 C 
ATOM     14  F   LIG    1       -3.254   1.314  -1.118  0.00  0.00    -0.170 F 
ATOM     15  F   LIG    1       -3.243   1.302   1.167  0.00  0.00    -0.170 F 
ATOM     16  F   LIG    1       -2.236  -0.392   0.011  0.00  0.00    -0.170 F 
ENDBRANCH   5  13
ENDBRANCH   2   3
BRANCH   2  17
ATOM     17  O   LIG    1        3.633   1.770  -0.022  0.00  0.00    -0.320 OA
BRANCH  17  18
ATOM     18  C   LIG    1        4.864   1.000  -0.037  0.00  0.00    +0.250 C 
BRANCH  18  19
ATOM     19  C   LIG    1        5.936   1.781  -0.754  0.00  0.00    -0.120 A 
ATOM     20  C   LIG    1        6.038   3.147  -0.564  0.00  0.00    +0.090 A 
ATOM     21  C   LIG    1        7.024   3.863  -1.217  0.00  0.00    -0.010 A 
ATOM     22  C   LIG    1        7.902   3.214  -2.068  0.00  0.00    +0.120 A 
ATOM     23  C   LIG    1        7.794   1.847  -2.261  0.00  0.00    -0.010 A 
ATOM     24  F   LIG    1        8.863   3.914  -2.711  0.00  0.00    -0.130 F 
ATOM     25  C   LIG    1        6.811   1.132  -1.604  0.00  0.00    +0.070 A 
ENDBRANCH  18  19
BRANCH  18  26
ATOM     26  C   LIG    1        5.303   0.728   1.379  0.00  0.00    +0.510 C 
ATOM     27  N   LIG    1        6.429   0.024   1.611  0.00  0.00    -0.690 N 
ATOM     28  H   LIG    1        6.957  -0.306   0.868  0.00  0.00    +0.400 HD
ATOM     29  O   LIG    1        4.643   1.141   2.308  0.00  0.00    -0.510 OA
BRANCH  27  30
ATOM     30  C   LIG    1        6.856  -0.241   2.987  0.00  0.00    +0.220 C 
ATOM     31  C   LIG    1        8.340  -0.064   3.313  0.00  0.00    +0.020 C 
ATOM     32  C   LIG    1        7.737  -1.468   3.230  0.00  0.00    +0.020 C 
ENDBRANCH  27  30
ENDBRANCH  18  26
ENDBRANCH  17  18
ENDBRANCH   2  17
TORSDOF 8
