REMARK  Name = ZINC5a0000002kes.0
REMARK                            x       y       z     vdW  Elec       q    Type
REMARK                         _______ _______ _______ _____ _____    ______ ____
ROOT
ATOM      1  C   LIG    1       -2.222   1.580   1.112  0.00  0.00    +0.140 C 
ATOM      2  C   LIG    1       -0.699   1.479   1.216  0.00  0.00    -0.060 C 
ATOM      3  C   LIG    1        0.021   2.518   2.077  0.00  0.00    +0.100 C 
ATOM      4  C   LIG    1       -0.109   1.075   2.569  0.00  0.00    +0.100 C 
ENDROOT
BRANCH   2   5
ATOM      5  N   LIG    1       -0.012   1.005   0.008  0.00  0.00    -0.600 N 
ATOM      6  H   LIG    1       -0.500   1.339  -0.810  0.00  0.00    +0.440 HD
ATOM      7  H   LIG    1        0.935   1.354   0.000  0.00  0.00    +0.430 HD
ATOM      8  H   LIG    1        0.002  -0.004   0.002  0.00  0.00    +0.440 HD
ENDBRANCH   2   5
TORSDOF 1
