REMARK  Name = ZINCpe00000MJKxD.0
REMARK                            x       y       z     vdW  Elec       q    Type
REMARK                         _______ _______ _______ _____ _____    ______ ____
ROOT
ATOM      1  O   LIG    1        0.692   2.361   4.649  0.00  0.00    -0.520 OA
ATOM      2  C   LIG    1       -0.035   3.330   4.551  0.00  0.00    +0.580 C 
ATOM      3  N   LIG    1       -0.811   3.484   3.460  0.00  0.00    -0.580 N 
ATOM      4  C   LIG    1       -1.698   4.648   3.331  0.00  0.00    +0.280 C 
ATOM      5  C   LIG    1       -1.408   5.342   1.996  0.00  0.00    +0.030 C 
ATOM      6  C   LIG    1       -1.534   4.326   0.859  0.00  0.00    +0.050 C 
ATOM      7  C   LIG    1       -0.507   3.209   1.055  0.00  0.00    +0.110 C 
ATOM      8  C   LIG    1       -0.786   2.490   2.378  0.00  0.00    +0.260 C 
ENDROOT
BRANCH   2   9
ATOM      9  C   LIG    1       -0.066   4.344   5.632  0.00  0.00    +0.060 A 
ATOM     10  N   LIG    1       -1.117   5.136   5.757  0.00  0.00    -0.390 NA
ATOM     11  C   LIG    1       -1.144   6.048   6.730  0.00  0.00    +0.070 A 
ATOM     12  C   LIG    1       -2.248   6.906   6.890  0.00  0.00    +0.060 A 
ATOM     13  C   LIG    1       -2.248   7.826   7.892  0.00  0.00    +0.040 A 
ATOM     14  C   LIG    1       -1.168   7.934   8.766  0.00  0.00    +0.050 A 
ATOM     15  C   LIG    1       -0.082   7.122   8.644  0.00  0.00    +0.060 A 
ATOM     16  C   LIG    1       -0.044   6.159   7.622  0.00  0.00    +0.100 A 
ATOM     17  N   LIG    1        1.011   5.348   7.479  0.00  0.00    -0.420 NA
ATOM     18  C   LIG    1        1.019   4.452   6.519  0.00  0.00    +0.320 A 
ENDBRANCH   2   9
BRANCH   7  19
ATOM     19  O   LIG    1        0.807   3.769   1.084  0.00  0.00    -0.540 OA
ATOM     20  H   LIG    1        1.510   3.117   1.206  0.00  0.00    +0.390 HD
ENDBRANCH   7  19
BRANCH   7  21
ATOM     21  C   LIG    1       -0.611   2.211  -0.101  0.00  0.00    +0.330 C 
BRANCH  21  22
ATOM     22  N   LIG    1        0.287   1.081   0.148  0.00  0.00    -0.300 N 
ATOM     23  C   LIG    1       -0.068  -0.224   0.172  0.00  0.00    +0.140 A 
ATOM     24  C   LIG    1        1.065  -0.919   0.428  0.00  0.00    +0.140 A 
ATOM     25  N   LIG    1        2.045  -0.017   0.546  0.00  0.00    -0.260 NA
ATOM     26  N   LIG    1        1.552   1.159   0.375  0.00  0.00    -0.090 NA
ENDBRANCH  21  22
ENDBRANCH   7  21
TORSDOF 4
