REMARK  Name = ZINCrH000004jZwP.0
REMARK                            x       y       z     vdW  Elec       q    Type
REMARK                         _______ _______ _______ _____ _____    ______ ____
ROOT
ATOM      1  C   LIG    1       -2.647  -3.578  -1.785  0.00  0.00    -0.770 A 
ATOM      2  C   LIG    1       -3.735  -3.662  -2.639  0.00  0.00    +0.460 A 
ATOM      3  N   LIG    1       -4.723  -4.502  -2.413  0.00  0.00    -0.480 NA
ATOM      4  C   LIG    1       -4.726  -5.305  -1.359  0.00  0.00    +0.340 A 
ATOM      5  O   LIG    1       -5.597  -6.233  -0.913  0.00  0.00    -0.070 OA
ATOM      6  N   LIG    1       -5.107  -6.810   0.281  0.00  0.00    -0.260 NA
ATOM      7  C   LIG    1       -3.959  -6.269   0.590  0.00  0.00    +0.200 A 
ATOM      8  C   LIG    1       -3.656  -5.273  -0.450  0.00  0.00    -0.260 A 
ATOM      9  C   LIG    1       -2.594  -4.396  -0.671  0.00  0.00    +0.280 A 
ENDROOT
BRANCH   7  10
ATOM     10  C   LIG    1       -3.119  -6.597   1.767  0.00  0.00    -0.050 A 
ATOM     11  C   LIG    1       -1.729  -6.572   1.663  0.00  0.00    +0.040 A 
ATOM     12  C   LIG    1       -0.952  -6.874   2.763  0.00  0.00    +0.020 A 
ATOM     13  C   LIG    1       -1.550  -7.210   3.965  0.00  0.00    +0.040 A 
ATOM     14  C   LIG    1       -2.929  -7.241   4.072  0.00  0.00    +0.010 A 
ATOM     15  C   LIG    1       -3.716  -6.936   2.980  0.00  0.00    +0.050 A 
ENDBRANCH   7  10
BRANCH   1  16
ATOM     16  S   LIG    1       -1.341  -2.443  -2.118  0.00  0.00    +2.700 S 
ATOM     17  O   LIG    1       -0.191  -2.948  -1.453  0.00  0.00    -0.940 OA
ATOM     18  O   LIG    1       -1.380  -2.184  -3.515  0.00  0.00    -0.940 OA
BRANCH  16  20
ATOM     19  C   LIG    1       -2.500   0.000  -2.082  0.00  0.00    +0.310 C 
ATOM     20  N   LIG    1       -1.726  -1.018  -1.367  0.00  0.00    -0.990 NA
BRANCH  20  21
ATOM     21  C   LIG    1       -1.293  -0.775   0.011  0.00  0.00    +0.340 C 
BRANCH  21  22
ATOM     22  C   LIG    1        0.002  -0.004   0.002  0.00  0.00    -0.120 A 
ATOM     23  C   LIG    1       -0.017   1.378   0.010  0.00  0.00    +0.020 A 
ATOM     24  C   LIG    1        1.171   2.086   0.002  0.00  0.00    -0.010 A 
ATOM     25  C   LIG    1        2.377   1.411  -0.015  0.00  0.00    +0.010 A 
ATOM     26  C   LIG    1        2.396   0.029  -0.022  0.00  0.00    +0.000 A 
ATOM     27  C   LIG    1        1.208  -0.679  -0.013  0.00  0.00    +0.040 A 
ENDBRANCH  21  22
ENDBRANCH  20  21
ENDBRANCH  16  20
ENDBRANCH   1  16
TORSDOF 5
