REMARK  Name = ZINCpk000000o5QR.0
REMARK                            x       y       z     vdW  Elec       q    Type
REMARK                         _______ _______ _______ _____ _____    ______ ____
ROOT
ATOM      1  C   LIG    1       -6.233   5.207   4.689  0.00  0.00    +0.030 C 
ATOM      2  C   LIG    1       -6.175   5.148   3.162  0.00  0.00    -0.020 C 
ATOM      3  C   LIG    1       -4.764   5.509   2.691  0.00  0.00    +0.030 C 
ATOM      4  C   LIG    1       -4.710   5.462   1.162  0.00  0.00    +0.060 C 
ATOM      5  C   LIG    1       -5.081   4.063   0.681  0.00  0.00    +0.130 C 
ATOM      6  N   LIG    1       -5.005   3.986  -0.784  0.00  0.00    -0.720 N 
ATOM      7  H   LIG    1       -5.525   4.501  -1.421  0.00  0.00    +0.440 HD
ATOM      8  C   LIG    1       -4.070   3.060  -1.068  0.00  0.00    +0.710 C 
ATOM      9  N   LIG    1       -3.529   2.525   0.034  0.00  0.00    -0.570 N 
ATOM     10  O   LIG    1       -3.752   2.744  -2.198  0.00  0.00    -0.540 OA
ATOM     11  C   LIG    1       -6.476   3.679   1.163  0.00  0.00    +0.050 C 
ATOM     12  C   LIG    1       -4.066   3.049   1.155  0.00  0.00    +0.540 C 
ATOM     13  O   LIG    1       -3.790   2.768   2.301  0.00  0.00    -0.450 OA
ATOM     14  C   LIG    1       -6.523   3.734   2.692  0.00  0.00    +0.030 C 
ENDROOT
BRANCH   9  15
ATOM     15  C   LIG    1       -2.488   1.494   0.023  0.00  0.00    +0.370 C 
BRANCH  15  16
ATOM     16  C   LIG    1       -1.131   2.150   0.019  0.00  0.00    +0.520 C 
ATOM     17  N   LIG    1       -0.017   1.393   0.010  0.00  0.00    -0.540 N 
ATOM     18  C   LIG    1        1.353   1.914  -0.001  0.00  0.00    +0.290 C 
ATOM     19  C   LIG    1        2.258   0.670  -0.016  0.00  0.00    +0.110 C 
ATOM     20  C   LIG    1        1.300  -0.496  -0.013  0.00  0.00    -0.090 A 
ATOM     21  C   LIG    1        1.504  -1.863  -0.022  0.00  0.00    +0.020 A 
ATOM     22  C   LIG    1        0.406  -2.706  -0.016  0.00  0.00    +0.250 A 
ATOM     23  N   LIG    1       -0.817  -2.215  -0.002  0.00  0.00    -0.450 NA
ATOM     24  C   LIG    1       -1.050  -0.919   0.007  0.00  0.00    +0.230 A 
ATOM     25  C   LIG    1        0.002  -0.004   0.002  0.00  0.00    +0.090 A 
ATOM     26  O   LIG    1       -1.043   3.360   0.025  0.00  0.00    -0.500 OA
ENDBRANCH  15  16
ENDBRANCH   9  15
TORSDOF 2
