REMARK  Name = ZINCvU0000000H2f.0
REMARK                            x       y       z     vdW  Elec       q    Type
REMARK                         _______ _______ _______ _____ _____    ______ ____
ROOT
ATOM      1  C   LIG    1       -1.120   1.457   0.595  0.00  0.00    +0.560 C 
ATOM      2  N   LIG    1       -0.011   0.966   0.007  0.00  0.00    -0.670 N 
ATOM      3  H   LIG    1       -0.034   0.097  -0.423  0.00  0.00    +0.410 HD
ATOM      4  O   LIG    1       -1.115   2.580   1.060  0.00  0.00    -0.510 OA
ENDROOT
BRANCH   1  11
ATOM      5  C   LIG    1       -6.063  -1.864   3.666  0.00  0.00    +0.090 C 
ATOM      6  C   LIG    1       -6.836  -1.308   2.468  0.00  0.00    +0.060 C 
ATOM      7  S   LIG    1       -6.085  -1.911   0.927  0.00  0.00    -0.070 S 
ATOM      8  C   LIG    1       -4.626  -0.923   0.825  0.00  0.00    -0.110 A 
ATOM      9  C   LIG    1       -3.484  -1.429   0.218  0.00  0.00    +0.090 A 
ATOM     10  C   LIG    1       -2.345  -0.658   0.136  0.00  0.00    +0.050 A 
ATOM     11  C   LIG    1       -2.339   0.631   0.675  0.00  0.00    -0.100 A 
ATOM     12  C   LIG    1       -3.488   1.141   1.285  0.00  0.00    +0.080 A 
ATOM     13  C   LIG    1       -4.636   0.369   1.362  0.00  0.00    +0.150 A 
ATOM     14  N   LIG    1       -5.774   0.897   1.967  0.00  0.00    -0.650 N 
ATOM     15  H   LIG    1       -5.839   1.863   2.017  0.00  0.00    +0.420 HD
ATOM     16  C   LIG    1       -6.779   0.195   2.484  0.00  0.00    +0.530 C 
ATOM     17  O   LIG    1       -7.699   0.798   2.994  0.00  0.00    -0.510 OA
ENDBRANCH   1  11
BRANCH   2  18
ATOM     18  C   LIG    1        1.172   1.712   0.012  0.00  0.00    +0.150 A 
ATOM     19  C   LIG    1        1.122   3.096  -0.089  0.00  0.00    +0.020 A 
ATOM     20  C   LIG    1        2.291   3.831  -0.078  0.00  0.00    +0.050 A 
ATOM     21  C   LIG    1        3.512   3.188   0.022  0.00  0.00    -0.100 A 
ATOM     22  C   LIG    1        3.565   1.810   0.117  0.00  0.00    +0.040 A 
ATOM     23  C   LIG    1        2.399   1.070   0.113  0.00  0.00    -0.010 A 
BRANCH  21  24
ATOM     24  C   LIG    1        4.786   3.993   0.027  0.00  0.00    +0.200 C 
BRANCH  24  25
ATOM     25  C   LIG    1        5.277   4.165  -1.388  0.00  0.00    +0.100 A 
ATOM     26  N   LIG    1        4.945   5.136  -2.151  0.00  0.00    -0.460 NA
ATOM     27  C   LIG    1        5.464   5.165  -3.394  0.00  0.00    +0.080 A 
ATOM     28  C   LIG    1        5.275   6.106  -4.426  0.00  0.00    +0.080 A 
ATOM     29  C   LIG    1        5.897   5.946  -5.627  0.00  0.00    +0.030 A 
ATOM     30  C   LIG    1        6.726   4.858  -5.858  0.00  0.00    +0.040 A 
ATOM     31  C   LIG    1        6.930   3.923  -4.867  0.00  0.00    +0.060 A 
ATOM     32  C   LIG    1        6.302   4.071  -3.632  0.00  0.00    -0.180 A 
ATOM     33  S   LIG    1        6.339   3.085  -2.174  0.00  0.00    +0.100 S 
ENDBRANCH  24  25
ENDBRANCH  21  24
ENDBRANCH   2  18
TORSDOF 4
