REMARK  Name = ZINCpk000005ZC30.0
REMARK                            x       y       z     vdW  Elec       q    Type
REMARK                         _______ _______ _______ _____ _____    ______ ____
ROOT
ATOM      1  O   LIG    1        1.311   7.649  -2.212  0.00  0.00    -0.480 OA
ATOM      2  C   LIG    1        0.823   7.039  -1.284  0.00  0.00    +0.520 C 
ATOM      3  C   LIG    1        0.655   5.543  -1.369  0.00  0.00    +0.100 C 
ATOM      4  C   LIG    1        0.860   4.934   0.020  0.00  0.00    +0.340 C 
ATOM      5  N   LIG    1        0.099   5.702   1.007  0.00  0.00    -0.710 N 
ATOM      6  H   LIG    1       -0.317   5.243   1.753  0.00  0.00    +0.430 HD
ATOM      7  C   LIG    1       -0.030   7.034   0.895  0.00  0.00    +0.720 C 
ATOM      8  O   LIG    1       -0.578   7.654   1.785  0.00  0.00    -0.550 OA
ATOM      9  N   LIG    1        0.431   7.698  -0.178  0.00  0.00    -0.570 N 
ENDROOT
BRANCH   4  10
ATOM     10  C   LIG    1        0.380   3.506   0.017  0.00  0.00    +0.010 A 
ATOM     11  N   LIG    1       -0.858   3.142   0.027  0.00  0.00    -0.450 NA
ATOM     12  C   LIG    1       -1.104   1.847   0.017  0.00  0.00    +0.220 A 
ATOM     13  C   LIG    1       -0.013   1.076   0.008  0.00  0.00    -0.060 A 
ATOM     14  S   LIG    1        1.398   2.132   0.000  0.00  0.00    +0.170 S 
ENDBRANCH   4  10
BRANCH   9  15
ATOM     15  C   LIG    1        0.508   9.160  -0.144  0.00  0.00    +0.290 C 
BRANCH  15  16
ATOM     16  C   LIG    1        1.876   9.586   0.393  0.00  0.00    +0.310 C 
BRANCH  16  17
ATOM     17  N   LIG    1        1.954  11.049   0.427  0.00  0.00    -0.630 N 
ATOM     18  C   LIG    1        1.562  11.897   1.565  0.00  0.00    +0.260 C 
ATOM     19  C   LIG    1        1.901  13.320   1.095  0.00  0.00    +0.220 C 
ATOM     20  C   LIG    1        0.654  14.209   1.127  0.00  0.00    +0.020 C 
ATOM     21  C   LIG    1        0.939  15.486   0.330  0.00  0.00    +0.020 C 
ATOM     22  C   LIG    1        1.204  15.150  -1.137  0.00  0.00    +0.010 C 
ATOM     23  C   LIG    1        2.453  14.264  -1.249  0.00  0.00    +0.310 C 
ATOM     24  N   LIG    1        2.298  13.133  -0.316  0.00  0.00    -0.630 N 
ATOM     25  C   LIG    1        2.399  11.827  -0.571  0.00  0.00    +0.700 C 
ATOM     26  O   LIG    1        2.849  11.385  -1.610  0.00  0.00    -0.580 OA
ENDBRANCH  16  17
ENDBRANCH  15  16
ENDBRANCH   9  15
TORSDOF 4
