REMARK  Name = ZINCrg00000SjSy7.0
REMARK                            x       y       z     vdW  Elec       q    Type
REMARK                         _______ _______ _______ _____ _____    ______ ____
ROOT
ATOM      1  N   LIG    1        0.946   1.873  -0.620  0.00  0.00    -0.560 N 
ATOM      2  C   LIG    1        0.845   2.991   0.108  0.00  0.00    +0.720 C 
ATOM      3  N   LIG    1       -0.411   3.214   0.535  0.00  0.00    -0.720 N 
ATOM      4  H   LIG    1       -0.716   3.960   1.075  0.00  0.00    +0.440 HD
ATOM      5  C   LIG    1       -1.235   2.107   0.018  0.00  0.00    +0.220 C 
ATOM      6  O   LIG    1        1.782   3.724   0.355  0.00  0.00    -0.520 OA
ATOM      7  C   LIG    1       -0.243   1.250  -0.742  0.00  0.00    +0.550 C 
ATOM      8  O   LIG    1       -0.472   0.220  -1.339  0.00  0.00    -0.450 OA
ENDROOT
BRANCH   5   9
ATOM      9  C   LIG    1       -1.846   1.329   1.155  0.00  0.00    -0.100 A 
ATOM     10  C   LIG    1       -2.401   0.085   0.921  0.00  0.00    +0.030 A 
ATOM     11  C   LIG    1       -2.957  -0.631   1.965  0.00  0.00    +0.010 A 
ATOM     12  C   LIG    1       -2.968  -0.098   3.240  0.00  0.00    +0.020 A 
ATOM     13  C   LIG    1       -2.418   1.149   3.473  0.00  0.00    +0.010 A 
ATOM     14  C   LIG    1       -1.858   1.863   2.430  0.00  0.00    +0.030 A 
ENDBRANCH   5   9
BRANCH   5  15
ATOM     15  C   LIG    1       -2.305   2.626  -0.907  0.00  0.00    -0.100 A 
ATOM     16  C   LIG    1       -2.961   1.759  -1.760  0.00  0.00    +0.030 A 
ATOM     17  C   LIG    1       -3.946   2.235  -2.606  0.00  0.00    +0.020 A 
ATOM     18  C   LIG    1       -4.269   3.579  -2.604  0.00  0.00    +0.020 A 
ATOM     19  C   LIG    1       -3.609   4.447  -1.754  0.00  0.00    +0.010 A 
ATOM     20  C   LIG    1       -2.627   3.971  -0.905  0.00  0.00    +0.020 A 
ENDBRANCH   5  15
BRANCH   1  22
ATOM     21  C   LIG    1        2.743   2.439  -2.180  0.00  0.00    +0.080 C 
ATOM     22  C   LIG    1        2.195   1.387  -1.213  0.00  0.00    +0.270 C 
BRANCH  22  23
ATOM     23  C   LIG    1        3.203   1.133  -0.122  0.00  0.00    +0.510 C 
ATOM     24  N   LIG    1        4.433   0.678  -0.434  0.00  0.00    -0.690 N 
ATOM     25  H   LIG    1        4.669   0.515  -1.360  0.00  0.00    +0.410 HD
ATOM     26  C   LIG    1        5.334   0.451   0.542  0.00  0.00    +0.700 C 
ATOM     27  O   LIG    1        5.038   0.656   1.703  0.00  0.00    -0.530 OA
ATOM     28  N   LIG    1        6.564  -0.004   0.230  0.00  0.00    -0.860 N 
ATOM     29  H   LIG    1        7.213  -0.167   0.932  0.00  0.00    +0.420 HD
ATOM     30  H   LIG    1        6.800  -0.167  -0.696  0.00  0.00    +0.400 HD
ATOM     31  O   LIG    1        2.908   1.338   1.036  0.00  0.00    -0.440 OA
ENDBRANCH  22  23
ENDBRANCH   1  22
TORSDOF 4
