REMARK  Name = ZINCtV000002OjzL.0
REMARK                            x       y       z     vdW  Elec       q    Type
REMARK                         _______ _______ _______ _____ _____    ______ ____
ROOT
ATOM      1  O   LIG    1       -3.648   2.090   0.474  0.00  0.00    -0.490 OA
ATOM      2  C   LIG    1       -3.600   3.281   0.224  0.00  0.00    +0.590 C 
ATOM      3  N   LIG    1       -2.409   3.883   0.036  0.00  0.00    -0.680 N 
ATOM      4  H   LIG    1       -2.365   4.845  -0.078  0.00  0.00    +0.410 HD
ENDROOT
BRANCH   2   5
ATOM      5  C   LIG    1       -4.836   4.058   0.127  0.00  0.00    -0.040 A 
ATOM      6  C   LIG    1       -6.130   3.573   0.291  0.00  0.00    -0.030 A 
ATOM      7  C   LIG    1       -6.999   4.668   0.113  0.00  0.00    -0.030 A 
ATOM      8  C   LIG    1       -6.244   5.756  -0.153  0.00  0.00    +0.220 A 
ATOM      9  N   LIG    1       -4.934   5.404  -0.148  0.00  0.00    -0.540 N 
ATOM     10  H   LIG    1       -4.189   6.002  -0.312  0.00  0.00    +0.420 HD
BRANCH   6  11
ATOM     11  C   LIG    1       -6.518   2.176   0.596  0.00  0.00    +0.010 A 
ATOM     12  C   LIG    1       -6.638   1.755   1.921  0.00  0.00    -0.000 A 
ATOM     13  C   LIG    1       -7.005   0.453   2.198  0.00  0.00    +0.030 A 
ATOM     14  C   LIG    1       -7.244  -0.436   1.166  0.00  0.00    +0.050 A 
ATOM     15  C   LIG    1       -7.122  -0.027  -0.150  0.00  0.00    +0.030 A 
ATOM     16 CL   LIG    1       -6.332   2.868   3.218  0.00  0.00    -0.050 Cl
ATOM     17  C   LIG    1       -6.761   1.274  -0.441  0.00  0.00    -0.010 A 
ATOM     18 CL   LIG    1       -6.608   1.785  -2.093  0.00  0.00    -0.050 Cl
ENDBRANCH   6  11
ENDBRANCH   2   5
BRANCH   3  19
ATOM     19  C   LIG    1       -1.236   3.119   0.004  0.00  0.00    +0.150 A 
ATOM     20  C   LIG    1       -0.055   3.639   0.518  0.00  0.00    +0.010 A 
ATOM     21  C   LIG    1        1.103   2.888   0.481  0.00  0.00    +0.020 A 
ATOM     22  C   LIG    1        1.084   1.609  -0.059  0.00  0.00    +0.060 A 
ATOM     23  C   LIG    1       -0.097   1.088  -0.568  0.00  0.00    +0.050 A 
ATOM     24  C   LIG    1       -1.254   1.840  -0.537  0.00  0.00    +0.040 A 
BRANCH  22  25
ATOM     25  O   LIG    1        2.223   0.868  -0.090  0.00  0.00    -0.250 OA
BRANCH  25  26
ATOM     26  C   LIG    1        2.742   0.447   1.091  0.00  0.00    +0.160 A 
ATOM     27  C   LIG    1        2.176   0.842   2.301  0.00  0.00    -0.110 A 
ATOM     28  C   LIG    1        2.730   0.388   3.480  0.00  0.00    +0.300 A 
ATOM     29  N   LIG    1        3.788  -0.401   3.471  0.00  0.00    -0.510 NA
ATOM     30  C   LIG    1        4.355  -0.792   2.346  0.00  0.00    +0.300 A 
ATOM     31  C   LIG    1        3.858  -0.386   1.125  0.00  0.00    -0.060 A 
ENDBRANCH  25  26
ENDBRANCH  22  25
ENDBRANCH   3  19
TORSDOF 5
