REMARK  Name = ZINCrH000004v8FP.0
REMARK                            x       y       z     vdW  Elec       q    Type
REMARK                         _______ _______ _______ _____ _____    ______ ____
ROOT
ATOM      1  O   LIG    1       -1.813  -2.832   1.122  0.00  0.00    -0.490 OA
ATOM      2  C   LIG    1       -0.922  -2.204   0.583  0.00  0.00    +0.550 C 
ATOM      3  N   LIG    1        0.095  -2.856  -0.015  0.00  0.00    -0.670 N 
ATOM      4  H   LIG    1        0.770  -2.358  -0.502  0.00  0.00    +0.410 HD
ENDROOT
BRANCH   2   5
ATOM      5  C   LIG    1       -0.953  -0.726   0.585  0.00  0.00    -0.090 A 
ATOM      6  C   LIG    1        0.068  -0.003  -0.032  0.00  0.00    +0.050 A 
ATOM      7  C   LIG    1        0.033   1.377  -0.027  0.00  0.00    +0.050 A 
ATOM      8  C   LIG    1       -1.012   2.042   0.589  0.00  0.00    +0.060 A 
ATOM      9  C   LIG    1       -2.028   1.331   1.203  0.00  0.00    +0.070 A 
ATOM     10  C   LIG    1       -2.005  -0.048   1.204  0.00  0.00    -0.130 A 
BRANCH  10  11
ATOM     11  C   LIG    1       -3.112  -0.821   1.874  0.00  0.00    +0.510 C 
ATOM     12  F   LIG    1       -2.575  -1.615   2.893  0.00  0.00    -0.160 F 
ATOM     13  F   LIG    1       -3.746  -1.638   0.932  0.00  0.00    -0.160 F 
ATOM     14  F   LIG    1       -4.041   0.072   2.418  0.00  0.00    -0.180 F 
ENDBRANCH  10  11
ENDBRANCH   2   5
BRANCH   3  15
ATOM     15  C   LIG    1        0.177  -4.249   0.066  0.00  0.00    +0.200 A 
ATOM     16  C   LIG    1        1.417  -4.871   0.141  0.00  0.00    -0.020 A 
ATOM     17  C   LIG    1        1.494  -6.247   0.228  0.00  0.00    +0.150 A 
ATOM     18  C   LIG    1        0.338  -7.007   0.228  0.00  0.00    -0.690 A 
ATOM     19  C   LIG    1       -0.897  -6.392   0.148  0.00  0.00    +0.140 A 
ATOM     20  C   LIG    1       -0.982  -5.016   0.067  0.00  0.00    +0.010 A 
BRANCH  18  21
ATOM     21  S   LIG    1        0.441  -8.763   0.330  0.00  0.00    +2.710 S 
ATOM     22  O   LIG    1       -0.802  -9.208   0.855  0.00  0.00    -0.950 OA
ATOM     23  O   LIG    1        1.692  -9.057   0.938  0.00  0.00    -0.950 OA
BRANCH  21  24
ATOM     24  N   LIG    1        0.528  -9.340  -1.220  0.00  0.00    -1.010 NA
ATOM     25  C   LIG    1       -0.618  -9.717  -2.059  0.00  0.00    +0.270 C 
ATOM     26  C   LIG    1       -0.055 -10.218  -3.406  0.00  0.00    +0.030 C 
ATOM     27  C   LIG    1        1.394 -10.636  -3.040  0.00  0.00    +0.030 C 
ATOM     28  C   LIG    1        1.769  -9.567  -1.984  0.00  0.00    +0.270 C 
ENDBRANCH  21  24
ENDBRANCH  18  21
ENDBRANCH   3  15
TORSDOF 5
