REMARK  Name = ZINCrg00000KP26M.1
REMARK                            x       y       z     vdW  Elec       q    Type
REMARK                         _______ _______ _______ _____ _____    ______ ____
ROOT
ATOM      1  C   LIG    1       -4.036   4.886  -0.387  0.00  0.00    +0.250 C 
ATOM      2  C   LIG    1       -5.254   4.856   0.559  0.00  0.00    +0.030 C 
ATOM      3  C   LIG    1       -6.447   5.253  -0.345  0.00  0.00    +0.020 C 
ATOM      4  C   LIG    1       -6.112   4.548  -1.683  0.00  0.00    +0.240 C 
ATOM      5  C   LIG    1       -4.581   4.691  -1.812  0.00  0.00    +0.020 C 
ENDROOT
BRANCH   1   7
ATOM      6  C   LIG    1       -3.579   2.413  -0.053  0.00  0.00    +0.290 C 
ATOM      7  N   LIG    1       -3.111   3.801  -0.050  0.00  0.00    -0.600 N 
ATOM      8  C   LIG    1       -1.830   4.080   0.263  0.00  0.00    +0.610 C 
ATOM      9  O   LIG    1       -1.455   5.235   0.316  0.00  0.00    -0.530 OA
BRANCH   8  10
ATOM     10  C   LIG    1       -0.884   2.984   0.541  0.00  0.00    +0.000 A 
ATOM     11  N   LIG    1       -1.163   1.700   0.608  0.00  0.00    -0.200 NA
ATOM     12  N   LIG    1       -0.122   0.996   0.871  0.00  0.00    -0.420 N 
ATOM     13  H   LIG    1       -0.123   0.030   0.963  0.00  0.00    +0.450 HD
ATOM     14  C   LIG    1        0.992   1.784   0.998  0.00  0.00    +0.070 A 
ATOM     15  C   LIG    1        2.336   1.543   1.265  0.00  0.00    +0.010 A 
ATOM     16  C   LIG    1        3.219   2.598   1.324  0.00  0.00    +0.050 A 
ATOM     17  C   LIG    1        2.783   3.901   1.120  0.00  0.00    -0.010 A 
ATOM     18  C   LIG    1        1.467   4.160   0.856  0.00  0.00    +0.100 A 
ATOM     19  C   LIG    1        0.558   3.108   0.791  0.00  0.00    -0.110 A 
ENDBRANCH   8  10
ENDBRANCH   1   7
BRANCH   4  20
ATOM     20  N   LIG    1       -6.785   5.217  -2.799  0.00  0.00    -0.720 N 
ATOM     21  H   LIG    1       -6.345   5.945  -3.265  0.00  0.00    +0.400 HD
ATOM     22  C   LIG    1       -8.017   4.822  -3.177  0.00  0.00    +0.520 C 
ATOM     23  O   LIG    1       -8.567   3.912  -2.594  0.00  0.00    -0.510 OA
BRANCH  22  24
ATOM     24  C   LIG    1       -8.710   5.511  -4.325  0.00  0.00    +0.190 C 
BRANCH  24  25
ATOM     25  C   LIG    1      -10.062   4.884  -4.543  0.00  0.00    +0.180 A 
ATOM     26  N   LIG    1      -10.304   3.619  -4.755  0.00  0.00    -0.260 NA
ATOM     27  N   LIG    1      -11.570   3.438  -4.895  0.00  0.00    -0.290 NA
ATOM     28  C   LIG    1      -12.192   4.580  -4.789  0.00  0.00    +0.380 A 
ATOM     29  N   LIG    1      -11.253   5.531  -4.563  0.00  0.00    -0.580 N 
ATOM     30  H   LIG    1      -11.403   6.481  -4.440  0.00  0.00    +0.430 HD
ENDBRANCH  24  25
ENDBRANCH  22  24
ENDBRANCH   4  20
TORSDOF 5
