REMARK  Name = ZINCrH000004nvJR.0
REMARK                            x       y       z     vdW  Elec       q    Type
REMARK                         _______ _______ _______ _____ _____    ______ ____
ROOT
ATOM      1  N   LIG    1       -4.753   0.997   0.232  0.00  0.00    -0.730 N 
ATOM      2  H   LIG    1       -4.737   0.028   0.226  0.00  0.00    +0.400 HD
ATOM      3  C   LIG    1       -3.602   1.691   0.130  0.00  0.00    +0.700 C 
ATOM      4  N   LIG    1       -2.429   1.037   0.019  0.00  0.00    -0.680 N 
ATOM      5  H   LIG    1       -2.418   0.071  -0.065  0.00  0.00    +0.410 HD
ATOM      6  O   LIG    1       -3.622   2.907   0.137  0.00  0.00    -0.560 OA
ENDROOT
BRANCH   1  13
ATOM      7  C   LIG    1       -9.837   2.893   1.568  0.00  0.00    +0.110 A 
ATOM      8  C   LIG    1      -10.972   2.465   0.902  0.00  0.00    -0.040 A 
ATOM      9  C   LIG    1      -10.869   1.516  -0.098  0.00  0.00    +0.020 A 
ATOM     10  C   LIG    1       -9.634   0.995  -0.431  0.00  0.00    +0.010 A 
ATOM     11  C   LIG    1       -8.492   1.417   0.233  0.00  0.00    -0.120 A 
ATOM     12  C   LIG    1       -7.165   0.819  -0.158  0.00  0.00    +0.100 C 
ATOM     13  C   LIG    1       -6.028   1.708   0.353  0.00  0.00    +0.240 C 
ATOM     14  C   LIG    1       -6.299   2.037   1.826  0.00  0.00    +0.230 C 
ATOM     15  O   LIG    1       -7.494   2.817   1.900  0.00  0.00    -0.290 OA
ATOM     16  C   LIG    1       -8.588   2.367   1.231  0.00  0.00    +0.100 A 
BRANCH   7  18
ATOM     17  C   LIG    1      -11.246   4.321   2.845  0.00  0.00    +0.250 C 
ATOM     18  O   LIG    1       -9.938   3.826   2.552  0.00  0.00    -0.310 OA
ENDBRANCH   7  18
ENDBRANCH   1  13
BRANCH   4  19
ATOM     19  C   LIG    1       -1.224   1.753   0.024  0.00  0.00    +0.150 A 
ATOM     20  C   LIG    1       -1.108   2.911   0.781  0.00  0.00    +0.070 A 
ATOM     21  C   LIG    1        0.082   3.613   0.791  0.00  0.00    +0.040 A 
ATOM     22  C   LIG    1        1.158   3.164   0.040  0.00  0.00    +0.090 A 
ATOM     23  C   LIG    1        1.041   2.010  -0.721  0.00  0.00    -0.030 A 
ATOM     24  C   LIG    1       -0.148   1.308  -0.732  0.00  0.00    +0.030 A 
BRANCH  22  25
ATOM     25  O   LIG    1        2.329   3.855   0.051  0.00  0.00    -0.310 OA
BRANCH  25  26
ATOM     26  C   LIG    1        3.397   3.336  -0.745  0.00  0.00    +0.600 C 
ATOM     27  F   LIG    1        3.718   2.046  -0.310  0.00  0.00    -0.170 F 
ATOM     28  F   LIG    1        4.518   4.163  -0.619  0.00  0.00    -0.130 F 
ATOM     29  F   LIG    1        2.999   3.290  -2.086  0.00  0.00    -0.160 F 
ENDBRANCH  25  26
ENDBRANCH  22  25
ENDBRANCH   4  19
TORSDOF 5
