REMARK  Name = ZINCrH00000tj14M.0
REMARK                            x       y       z     vdW  Elec       q    Type
REMARK                         _______ _______ _______ _____ _____    ______ ____
ROOT
ATOM      1  C   LIG    1       -1.242   2.238   0.020  0.00  0.00    +0.210 C 
ATOM      2  C   LIG    1       -0.016   1.361   0.009  0.00  0.00    +0.220 A 
ATOM      3  N   LIG    1        1.224   1.767  -0.000  0.00  0.00    -0.280 NA
ATOM      4  N   LIG    1        2.021   0.755  -0.018  0.00  0.00    -0.240 NA
ATOM      5  C   LIG    1        1.324  -0.347  -0.023  0.00  0.00    +0.110 A 
ATOM      6  S   LIG    1        1.914  -2.011  -0.064  0.00  0.00    +0.090 S 
ATOM      7  C   LIG    1        0.349  -2.841   0.347  0.00  0.00    -0.050 C 
ATOM      8  C   LIG    1       -0.762  -2.187  -0.484  0.00  0.00    +0.270 C 
ATOM      9  N   LIG    1       -1.062  -0.848   0.026  0.00  0.00    -0.430 N 
ATOM     10  H   LIG    1       -1.466  -0.894   0.949  0.00  0.00    +0.360 HD
ATOM     11  N   LIG    1        0.002  -0.004   0.002  0.00  0.00    -0.320 N 
ENDROOT
BRANCH   8  12
ATOM     12  C   LIG    1       -2.006  -3.034  -0.407  0.00  0.00    -0.090 A 
ATOM     13  C   LIG    1       -2.827  -2.957   0.703  0.00  0.00    +0.020 A 
ATOM     14  C   LIG    1       -3.970  -3.731   0.772  0.00  0.00    +0.030 A 
ATOM     15  C   LIG    1       -4.288  -4.590  -0.265  0.00  0.00    -0.020 A 
ATOM     16  C   LIG    1       -3.463  -4.670  -1.373  0.00  0.00    +0.030 A 
ATOM     17 CL   LIG    1       -5.720  -5.566  -0.176  0.00  0.00    -0.060 Cl
ATOM     18  C   LIG    1       -2.323  -3.893  -1.443  0.00  0.00    +0.090 A 
ENDBRANCH   8  12
BRANCH   7  19
ATOM     19  C   LIG    1        0.445  -4.306   0.007  0.00  0.00    +0.550 C 
ATOM     20  N   LIG    1        0.791  -5.197   0.958  0.00  0.00    -0.600 N 
ATOM     21  C   LIG    1        1.074  -4.741   2.321  0.00  0.00    +0.280 C 
ATOM     22  O   LIG    1        0.211  -4.684  -1.121  0.00  0.00    -0.510 OA
BRANCH  20  23
ATOM     23  C   LIG    1        0.884  -6.621   0.628  0.00  0.00    +0.250 C 
ATOM     24  C   LIG    1       -0.100  -7.411   1.493  0.00  0.00    +0.010 C 
ATOM     25  C   LIG    1       -0.003  -8.898   1.149  0.00  0.00    +0.020 C 
ATOM     26  C   LIG    1        1.421  -9.392   1.415  0.00  0.00    +0.010 C 
ATOM     27  C   LIG    1        2.405  -8.602   0.550  0.00  0.00    +0.020 C 
ATOM     28  C   LIG    1        2.308  -7.115   0.894  0.00  0.00    +0.010 C 
ENDBRANCH  20  23
ENDBRANCH   7  19
TORSDOF 3
