REMARK  Name = ZINCrH00000tj1mG.0
REMARK                            x       y       z     vdW  Elec       q    Type
REMARK                         _______ _______ _______ _____ _____    ______ ____
ROOT
ATOM      1  C   LIG    1       -4.509   8.685   0.151  0.00  0.00    -0.060 A 
ATOM      2  C   LIG    1       -3.167   8.316   0.186  0.00  0.00    +0.120 A 
ATOM      3  C   LIG    1       -2.821   6.984   0.220  0.00  0.00    +0.110 A 
ATOM      4  C   LIG    1       -3.821   6.006   0.220  0.00  0.00    -0.100 A 
ATOM      5  C   LIG    1       -5.167   6.386   0.179  0.00  0.00    +0.180 A 
ATOM      6  C   LIG    1       -5.503   7.709   0.151  0.00  0.00    +0.010 A 
ENDROOT
BRANCH   4   7
ATOM      7  C   LIG    1       -3.458   4.577   0.256  0.00  0.00    +0.560 C 
ATOM      8  N   LIG    1       -2.161   4.213   0.290  0.00  0.00    -0.620 N 
ATOM      9  H   LIG    1       -1.467   4.890   0.290  0.00  0.00    +0.420 HD
ATOM     10  O   LIG    1       -4.329   3.728   0.256  0.00  0.00    -0.480 OA
BRANCH   8  11
ATOM     11  C   LIG    1       -1.819   2.869   0.324  0.00  0.00    +0.060 A 
ATOM     12  C   LIG    1       -0.534   2.393   0.360  0.00  0.00    -0.100 A 
ATOM     13  C   LIG    1       -0.472   0.948   0.391  0.00  0.00    +0.000 A 
ATOM     14  C   LIG    1       -1.669   0.375   0.379  0.00  0.00    -0.080 A 
ATOM     15 CL   LIG    1        1.016   0.056   0.440  0.00  0.00    -0.030 Cl
ATOM     16  S   LIG    1       -2.939   1.584   0.321  0.00  0.00    +0.380 S 
BRANCH  12  17
ATOM     17  C   LIG    1        0.623   3.236   0.366  0.00  0.00    +0.270 C 
ATOM     18  N   LIG    1        1.541   3.905   0.371  0.00  0.00    -0.400 NA
ENDBRANCH  12  17
ENDBRANCH   8  11
ENDBRANCH   4   7
BRANCH   6  19
ATOM     19  N   LIG    1       -6.928   8.107   0.114  0.00  0.00    +0.020 N 
ATOM     20  O   LIG    1       -7.231   9.287   0.084  0.00  0.00    -0.130 OA
ATOM     21  O   LIG    1       -7.799   7.256   0.114  0.00  0.00    -0.150 OA
ENDBRANCH   6  19
BRANCH   1  22
ATOM     22  S   LIG    1       -4.951  10.390   0.107  0.00  0.00    +0.170 S 
BRANCH  22  28
ATOM     23  C   LIG    1       -6.206  12.946  -1.574  0.00  0.00    +0.360 C 
ATOM     24  N   LIG    1       -5.886  11.662  -2.203  0.00  0.00    -0.460 N 
ATOM     25  C   LIG    1       -6.044  11.326  -3.518  0.00  0.00    +0.400 A 
ATOM     26  N   LIG    1       -5.639  10.095  -3.655  0.00  0.00    -0.290 NA
ATOM     27  N   LIG    1       -5.234   9.635  -2.525  0.00  0.00    -0.290 NA
ATOM     28  C   LIG    1       -5.368  10.554  -1.597  0.00  0.00    +0.140 A 
ENDBRANCH  22  28
ENDBRANCH   1  22
TORSDOF 6
