REMARK  Name = ZINCpe000000Y8Z3.0
REMARK                            x       y       z     vdW  Elec       q    Type
REMARK                         _______ _______ _______ _____ _____    ______ ____
ROOT
ATOM      1  N   LIG    1        1.054   3.021   2.059  0.00  0.00    -0.630 N 
ATOM      2  H   LIG    1        1.636   2.260   1.907  0.00  0.00    +0.420 HD
ATOM      3  C   LIG    1       -0.265   2.924   1.800  0.00  0.00    +0.520 C 
ATOM      4  O   LIG    1       -0.993   3.875   1.989  0.00  0.00    -0.450 OA
ENDROOT
BRANCH   3   5
ATOM      5  C   LIG    1       -0.836   1.631   1.275  0.00  0.00    +0.030 C 
ATOM      6  C   LIG    1       -0.213   1.266  -0.092  0.00  0.00    +0.080 C 
ATOM      7  C   LIG    1       -1.168   1.853  -1.107  0.00  0.00    +0.520 C 
ATOM      8  N   LIG    1       -2.342   2.145  -0.523  0.00  0.00    -0.620 N 
ATOM      9  C   LIG    1       -3.488   2.737  -1.218  0.00  0.00    +0.330 C 
ATOM     10  O   LIG    1       -0.911   2.034  -2.279  0.00  0.00    -0.510 OA
ATOM     11  C   LIG    1       -2.330   1.795   0.902  0.00  0.00    +0.360 C 
BRANCH  11  12
ATOM     12  C   LIG    1       -3.071   0.503   1.128  0.00  0.00    +0.060 A 
ATOM     13  C   LIG    1       -3.644   0.103   2.288  0.00  0.00    -0.100 A 
ATOM     14  C   LIG    1       -4.225  -1.150   2.071  0.00  0.00    +0.240 A 
ATOM     15  N   LIG    1       -4.009  -1.491   0.826  0.00  0.00    -0.290 NA
ATOM     16  N   LIG    1       -3.287  -0.462   0.209  0.00  0.00    -0.360 N 
ATOM     17  C   LIG    1       -2.841  -0.438  -1.186  0.00  0.00    +0.330 C 
ENDBRANCH  11  12
ENDBRANCH   3   5
BRANCH   1  22
ATOM     18  C   LIG    1        4.158   6.498   3.739  0.00  0.00    +0.200 C 
ATOM     19  C   LIG    1        2.932   5.751   3.282  0.00  0.00    +0.190 A 
ATOM     20  N   LIG    1        1.717   6.220   3.228  0.00  0.00    -0.280 NA
ATOM     21  N   LIG    1        0.916   5.317   2.787  0.00  0.00    -0.270 NA
ATOM     22  C   LIG    1        1.581   4.213   2.543  0.00  0.00    +0.400 A 
ATOM     23  N   LIG    1        2.888   4.457   2.848  0.00  0.00    -0.470 N 
BRANCH  23  24
ATOM     24  C   LIG    1        4.011   3.524   2.733  0.00  0.00    +0.180 C 
ATOM     25  C   LIG    1        5.284   4.031   2.051  0.00  0.00    +0.070 C 
ATOM     26  C   LIG    1        4.378   3.027   1.333  0.00  0.00    +0.050 C 
ENDBRANCH  23  24
ENDBRANCH   1  22
TORSDOF 4
