REMARK  Name = ZINCrg000000oHqy.0
REMARK                            x       y       z     vdW  Elec       q    Type
REMARK                         _______ _______ _______ _____ _____    ______ ____
ROOT
ATOM      1  C   LIG    1       -2.493   1.005   0.019  0.00  0.00    +0.570 C 
ATOM      2  N   LIG    1       -3.668   1.664   0.028  0.00  0.00    -0.520 N 
ATOM      3  H   LIG    1       -3.679   2.634   0.034  0.00  0.00    +0.430 HD
ATOM      4  O   LIG    1       -2.478  -0.211   0.012  0.00  0.00    -0.530 OA
ENDROOT
BRANCH   1  10
ATOM      5  N   LIG    1        2.453   3.620  -0.002  0.00  0.00    -0.390 N 
ATOM      6  N   LIG    1        3.245   2.463  -0.016  0.00  0.00    +0.000 NA
ATOM      7  N   LIG    1        2.487   1.423  -0.014  0.00  0.00    -0.200 NA
ATOM      8  C   LIG    1        1.185   1.796   0.000  0.00  0.00    -0.030 A 
ATOM      9  C   LIG    1       -0.013   1.076   0.008  0.00  0.00    +0.210 A 
ATOM     10  C   LIG    1       -1.222   1.759   0.017  0.00  0.00    -0.150 A 
ATOM     11  C   LIG    1       -1.242   3.161   0.030  0.00  0.00    +0.100 A 
ATOM     12  C   LIG    1       -0.078   3.868   0.023  0.00  0.00    +0.020 A 
ATOM     13  C   LIG    1        1.145   3.202   0.008  0.00  0.00    +0.110 A 
BRANCH   5  15
ATOM     14  C   LIG    1        3.108   5.480   1.444  0.00  0.00    +0.050 C 
ATOM     15  C   LIG    1        2.929   5.006   0.001  0.00  0.00    +0.330 C 
ENDBRANCH   5  15
ENDBRANCH   1  10
BRANCH   2  16
ATOM     16  N   LIG    1       -4.872   0.949   0.029  0.00  0.00    -0.510 N 
ATOM     17  H   LIG    1       -4.861  -0.021   0.024  0.00  0.00    +0.440 HD
ATOM     18  C   LIG    1       -6.048   1.609   0.038  0.00  0.00    +0.530 C 
ATOM     19  O   LIG    1       -6.062   2.822   0.045  0.00  0.00    -0.500 OA
BRANCH  18  20
ATOM     20  C   LIG    1       -7.344   0.840   0.040  0.00  0.00    +0.170 C 
ATOM     21  C   LIG    1       -7.483   0.058  -1.274  0.00  0.00    +0.250 C 
ATOM     22  O   LIG    1       -8.728  -0.649  -1.245  0.00  0.00    -0.300 OA
ATOM     23  C   LIG    1       -9.820   0.053  -0.837  0.00  0.00    +0.040 A 
ATOM     24  C   LIG    1      -11.087  -0.435  -1.119  0.00  0.00    +0.030 A 
ATOM     25  C   LIG    1      -12.206   0.265  -0.710  0.00  0.00    +0.030 A 
ATOM     26  C   LIG    1      -12.066   1.453  -0.016  0.00  0.00    +0.030 A 
ATOM     27  C   LIG    1      -10.806   1.945   0.268  0.00  0.00    +0.030 A 
ATOM     28  C   LIG    1       -9.679   1.249  -0.142  0.00  0.00    +0.050 A 
ATOM     29  O   LIG    1       -8.445   1.749   0.139  0.00  0.00    -0.280 OA
ENDBRANCH  18  20
ENDBRANCH   2  16
TORSDOF 4
