REMARK  Name = ZINCvU0000000Im5.0
REMARK                            x       y       z     vdW  Elec       q    Type
REMARK                         _______ _______ _______ _____ _____    ______ ____
ROOT
ATOM      1  S   LIG    1        3.703   5.232  -0.700  0.00  0.00    +0.060 S 
ENDROOT
BRANCH   1   2
ATOM      2  C   LIG    1        2.898   3.687  -0.965  0.00  0.00    +0.260 A 
ATOM      3  N   LIG    1        1.600   3.509  -0.996  0.00  0.00    -0.490 NA
ATOM      4  C   LIG    1        1.324   2.198  -1.221  0.00  0.00    +0.060 A 
ATOM      5  C   LIG    1        0.134   1.476  -1.344  0.00  0.00    +0.060 A 
ATOM      6  C   LIG    1        0.178   0.119  -1.576  0.00  0.00    +0.010 A 
ATOM      7  C   LIG    1        1.394  -0.537  -1.688  0.00  0.00    +0.030 A 
ATOM      8  C   LIG    1        2.579   0.162  -1.569  0.00  0.00    +0.010 A 
ATOM      9  C   LIG    1        2.554   1.528  -1.336  0.00  0.00    +0.060 A 
ATOM     10  N   LIG    1        3.536   2.493  -1.170  0.00  0.00    -0.430 N 
BRANCH  10  11
ATOM     11  C   LIG    1        4.921   2.285  -1.206  0.00  0.00    +0.110 A 
ATOM     12  C   LIG    1        5.533   1.508  -0.232  0.00  0.00    +0.030 A 
ATOM     13  C   LIG    1        6.898   1.300  -0.273  0.00  0.00    +0.020 A 
ATOM     14  C   LIG    1        7.656   1.875  -1.277  0.00  0.00    +0.030 A 
ATOM     15  C   LIG    1        7.050   2.654  -2.245  0.00  0.00    +0.040 A 
ATOM     16  C   LIG    1        5.685   2.861  -2.212  0.00  0.00    +0.030 A 
ENDBRANCH  10  11
ENDBRANCH   1   2
BRANCH   1  17
ATOM     17  C   LIG    1        2.260   6.310  -0.515  0.00  0.00    +0.100 C 
BRANCH  17  18
ATOM     18  C   LIG    1        2.718   7.725  -0.272  0.00  0.00    +0.450 C 
ATOM     19  O   LIG    1        3.904   7.980  -0.229  0.00  0.00    -0.450 OA
BRANCH  18  23
ATOM     20  C   LIG    1       -1.692  10.240   0.160  0.00  0.00    +0.150 C 
ATOM     21  C   LIG    1       -0.228   9.888   0.100  0.00  0.00    +0.040 A 
ATOM     22  C   LIG    1        0.269   8.659  -0.111  0.00  0.00    +0.020 A 
ATOM     23  C   LIG    1        1.732   8.792  -0.089  0.00  0.00    -0.240 A 
ATOM     24  C   LIG    1        1.988  10.130   0.146  0.00  0.00    +0.120 A 
ATOM     25  C   LIG    1        3.351  10.763   0.263  0.00  0.00    +0.160 C 
ATOM     26  N   LIG    1        0.806  10.771   0.250  0.00  0.00    -0.360 N 
BRANCH  26  27
ATOM     27  C   LIG    1        0.660  12.136   0.485  0.00  0.00    +0.220 A 
ATOM     28  N   LIG    1       -0.134  12.657   1.366  0.00  0.00    -0.460 NA
ATOM     29  C   LIG    1       -0.145  13.973   1.459  0.00  0.00    +0.240 A 
ATOM     30  C   LIG    1        0.673  14.595   0.606  0.00  0.00    -0.060 A 
ATOM     31  S   LIG    1        1.496  13.369  -0.354  0.00  0.00    +0.190 S 
ENDBRANCH  26  27
ENDBRANCH  18  23
ENDBRANCH  17  18
ENDBRANCH   1  17
TORSDOF 6
