REMARK  Name = ZINCvU0000000GtX.0
REMARK                            x       y       z     vdW  Elec       q    Type
REMARK                         _______ _______ _______ _____ _____    ______ ____
ROOT
ATOM      1  C   LIG    1        0.731   8.511   0.249  0.00  0.00    +0.150 A 
ATOM      2  C   LIG    1       -0.533   8.911   0.495  0.00  0.00    -0.080 A 
ATOM      3  S   LIG    1       -1.601   7.527   0.273  0.00  0.00    +0.120 S 
ATOM      4  C   LIG    1       -0.213   6.521  -0.130  0.00  0.00    +0.120 A 
ATOM      5  N   LIG    1        0.870   7.240  -0.080  0.00  0.00    -0.450 NA
ENDROOT
BRANCH   1  12
ATOM      6  C   LIG    1        1.851  10.868   0.689  0.00  0.00    -0.190 A 
ATOM      7  C   LIG    1        3.148  11.300   0.650  0.00  0.00    +0.090 A 
ATOM      8  N   LIG    1        3.937  10.265   0.303  0.00  0.00    -0.410 N 
ATOM      9  C   LIG    1        3.191   9.139   0.114  0.00  0.00    +0.080 A 
ATOM     10  C   LIG    1        3.728   7.787  -0.281  0.00  0.00    +0.150 C 
ATOM     11  C   LIG    1        3.617  12.703   0.939  0.00  0.00    +0.150 C 
ATOM     12  C   LIG    1        1.887   9.437   0.340  0.00  0.00    -0.070 A 
BRANCH   8  13
ATOM     13  C   LIG    1        5.392  10.339   0.150  0.00  0.00    +0.180 C 
ATOM     14  C   LIG    1        5.957  11.495  -0.677  0.00  0.00    +0.050 C 
ATOM     15  C   LIG    1        5.970  10.072  -1.240  0.00  0.00    +0.060 C 
ENDBRANCH   8  13
BRANCH   6  16
ATOM     16  C   LIG    1        0.663  11.669   1.017  0.00  0.00    +0.550 C 
ATOM     17  O   LIG    1        0.288  11.755   2.170  0.00  0.00    -0.500 OA
BRANCH  16  19
ATOM     18  C   LIG    1       -1.174  13.079   0.436  0.00  0.00    +0.260 C 
ATOM     19  O   LIG    1       -0.010  12.307   0.039  0.00  0.00    -0.350 OA
ENDBRANCH  16  19
ENDBRANCH   6  16
ENDBRANCH   1  12
BRANCH   4  20
ATOM     20  C   LIG    1       -0.270   5.085  -0.476  0.00  0.00    -0.010 A 
ATOM     21  C   LIG    1        0.902   4.392  -0.784  0.00  0.00    +0.050 A 
ATOM     22  C   LIG    1        0.847   3.051  -1.106  0.00  0.00    +0.040 A 
ATOM     23  C   LIG    1       -0.367   2.390  -1.125  0.00  0.00    +0.000 A 
ATOM     24  C   LIG    1       -1.540   3.072  -0.826  0.00  0.00    +0.150 A 
ATOM     25  C   LIG    1       -1.494   4.418  -0.496  0.00  0.00    +0.040 A 
BRANCH  24  26
ATOM     26  N   LIG    1       -2.767   2.400  -0.853  0.00  0.00    -0.670 N 
ATOM     27  H   LIG    1       -2.813   1.464  -0.601  0.00  0.00    +0.410 HD
ATOM     28  C   LIG    1       -3.885   3.052  -1.228  0.00  0.00    +0.540 C 
ATOM     29  O   LIG    1       -3.815   4.194  -1.631  0.00  0.00    -0.510 OA
BRANCH  28  30
ATOM     30  C   LIG    1       -5.223   2.363  -1.148  0.00  0.00    -0.070 C 
ATOM     31  C   LIG    1       -5.922   2.021  -2.466  0.00  0.00    +0.060 C 
ATOM     32  C   LIG    1       -6.454   3.156  -1.589  0.00  0.00    +0.080 C 
ENDBRANCH  28  30
ENDBRANCH  24  26
ENDBRANCH   4  20
TORSDOF 7
