REMARK  Name = ZINCvU000000099u.0
REMARK                            x       y       z     vdW  Elec       q    Type
REMARK                         _______ _______ _______ _____ _____    ______ ____
ROOT
ATOM      1  C   LIG    1        5.168  -2.799   0.832  0.00  0.00    -0.270 A 
ATOM      2  C   LIG    1        5.929  -3.663   1.520  0.00  0.00    +0.190 A 
ATOM      3  C   LIG    1        6.746  -4.493   0.742  0.00  0.00    -0.220 A 
ATOM      4  C   LIG    1        6.621  -4.257  -0.617  0.00  0.00    +0.010 A 
ATOM      5  N   LIG    1        7.466  -5.120  -1.263  0.00  0.00    -0.300 N 
ATOM      6  N   LIG    1        8.117  -5.893  -0.297  0.00  0.00    -0.260 NA
ATOM      7  C   LIG    1        7.709  -5.541   0.885  0.00  0.00    +0.150 A 
ATOM      8  C   LIG    1        8.172  -6.138   2.189  0.00  0.00    +0.180 C 
ATOM      9  S   LIG    1        5.449  -2.974  -0.893  0.00  0.00    +0.220 S 
ENDROOT
BRANCH   1  14
ATOM     10  C   LIG    1        2.490   1.046  -0.017  0.00  0.00    +0.050 C 
ATOM     11  C   LIG    1        2.609   0.150  -1.277  0.00  0.00    +0.050 C 
ATOM     12  C   LIG    1        3.575  -0.963  -0.820  0.00  0.00    +0.240 C 
ATOM     13  N   LIG    1        3.521  -1.012   0.649  0.00  0.00    -0.620 N 
ATOM     14  C   LIG    1        4.237  -1.841   1.434  0.00  0.00    +0.610 C 
ATOM     15  O   LIG    1        4.110  -1.794   2.644  0.00  0.00    -0.520 OA
ATOM     16  C   LIG    1        2.553  -0.005   1.119  0.00  0.00    +0.290 C 
BRANCH  10  22
ATOM     17  C   LIG    1        1.155   3.169   0.008  0.00  0.00    +0.140 A 
ATOM     18  C   LIG    1       -0.057   3.844   0.023  0.00  0.00    -0.080 A 
ATOM     19  C   LIG    1       -1.242   3.132   0.031  0.00  0.00    +0.050 A 
ATOM     20  C   LIG    1       -1.220   1.750   0.017  0.00  0.00    -0.020 A 
ATOM     21  C   LIG    1       -0.013   1.076   0.008  0.00  0.00    +0.050 A 
ATOM     22  C   LIG    1        1.174   1.782   0.000  0.00  0.00    -0.110 A 
BRANCH  17  24
ATOM     23  C   LIG    1        2.225   5.292   0.009  0.00  0.00    +0.250 C 
ATOM     24  O   LIG    1        2.321   3.867   0.000  0.00  0.00    -0.320 OA
ENDBRANCH  17  24
ENDBRANCH  10  22
ENDBRANCH   1  14
BRANCH   5  25
ATOM     25  C   LIG    1        7.647  -5.212  -2.649  0.00  0.00    +0.170 A 
ATOM     26  C   LIG    1        6.573  -5.012  -3.506  0.00  0.00    +0.000 A 
ATOM     27  C   LIG    1        6.755  -5.098  -4.872  0.00  0.00    +0.070 A 
ATOM     28  C   LIG    1        8.003  -5.394  -5.388  0.00  0.00    +0.030 A 
ATOM     29  C   LIG    1        9.075  -5.600  -4.537  0.00  0.00    -0.010 A 
ATOM     30 CL   LIG    1       10.641  -5.971  -5.188  0.00  0.00    -0.050 Cl
ATOM     31  C   LIG    1        8.900  -5.509  -3.169  0.00  0.00    +0.050 A 
ENDBRANCH   5  25
TORSDOF 4
