REMARK  Name = ZINCpe000000Um8W.0
REMARK                            x       y       z     vdW  Elec       q    Type
REMARK                         _______ _______ _______ _____ _____    ______ ____
ROOT
ATOM      1  C   LIG    1        4.370   5.579  -0.010  0.00  0.00    +0.070 C 
ENDROOT
BRANCH   1   2
ATOM      2  C   LIG    1        5.649   6.418  -0.018  0.00  0.00    +0.060 C 
BRANCH   2   5
ATOM      3  C   LIG    1        7.670   8.405  -0.027  0.00  0.00    +0.290 C 
ATOM      4  N   LIG    1        6.263   8.814  -0.012  0.00  0.00    -0.610 N 
ATOM      5  C   LIG    1        5.290   7.881  -0.008  0.00  0.00    +0.520 C 
ATOM      6  O   LIG    1        4.125   8.220   0.005  0.00  0.00    -0.520 OA
BRANCH   4   7
ATOM      7  C   LIG    1        5.913  10.237  -0.002  0.00  0.00    +0.270 C 
ATOM      8  C   LIG    1        6.516  10.918   1.239  0.00  0.00    +0.060 C 
ATOM      9  C   LIG    1        6.430  12.447   1.054  0.00  0.00    -0.310 C 
ATOM     10  S   LIG    1        6.474  12.710  -0.756  0.00  0.00    +2.390 S 
ATOM     11  O   LIG    1        7.699  13.336  -1.111  0.00  0.00    -0.930 OA
ATOM     12  O   LIG    1        5.241  13.276  -1.179  0.00  0.00    -0.930 OA
ATOM     13  C   LIG    1        6.527  10.943  -1.239  0.00  0.00    -0.330 C 
ENDBRANCH   4   7
ENDBRANCH   2   5
ENDBRANCH   1   2
BRANCH   1  14
ATOM     14  C   LIG    1        4.735   4.093  -0.020  0.00  0.00    +0.120 C 
BRANCH  14  15
ATOM     15  C   LIG    1        3.475   3.266  -0.013  0.00  0.00    +0.390 A 
ATOM     16  N   LIG    1        2.333   3.884   0.001  0.00  0.00    -0.510 NA
ATOM     17  C   LIG    1        1.158   3.206   0.008  0.00  0.00    +0.150 A 
ATOM     18  C   LIG    1       -0.070   3.870   0.022  0.00  0.00    +0.030 A 
ATOM     19  C   LIG    1       -1.239   3.142   0.030  0.00  0.00    +0.070 A 
ATOM     20  C   LIG    1       -1.212   1.754   0.017  0.00  0.00    -0.010 A 
ATOM     21  C   LIG    1       -0.013   1.076   0.008  0.00  0.00    +0.100 A 
ATOM     22  C   LIG    1        1.181   1.794   0.000  0.00  0.00    -0.200 A 
ATOM     23  C   LIG    1        2.491   1.125  -0.015  0.00  0.00    +0.550 A 
ATOM     24  O   LIG    1        2.581  -0.088  -0.021  0.00  0.00    -0.510 OA
ATOM     25  N   LIG    1        3.592   1.913  -0.021  0.00  0.00    -0.650 N 
ATOM     26  H   LIG    1        4.473   1.506  -0.031  0.00  0.00    +0.420 HD
ENDBRANCH  14  15
ENDBRANCH   1  14
TORSDOF 5
