REMARK  Name = ZINCrD0000075Ay8.0
REMARK                            x       y       z     vdW  Elec       q    Type
REMARK                         _______ _______ _______ _____ _____    ______ ____
ROOT
ATOM      1  O   LIG    1        1.605  -4.239   3.617  0.00  0.00    -0.530 OA
ATOM      2  C   LIG    1        1.513  -4.843   2.566  0.00  0.00    +0.560 C 
ATOM      3  N   LIG    1        1.392  -4.165   1.407  0.00  0.00    -0.730 N 
ATOM      4  H   LIG    1        1.318  -4.647   0.569  0.00  0.00    +0.400 HD
ENDROOT
BRANCH   2   5
ATOM      5  C   LIG    1        1.532  -6.319   2.558  0.00  0.00    -0.130 A 
ATOM      6  C   LIG    1        1.420  -7.014   1.350  0.00  0.00    +0.050 A 
ATOM      7  C   LIG    1        1.444  -8.379   1.343  0.00  0.00    +0.040 A 
ATOM      8  C   LIG    1        1.569  -9.082   2.545  0.00  0.00    +0.010 A 
ATOM      9  C   LIG    1        1.676  -8.388   3.753  0.00  0.00    +0.030 A 
ATOM     10  C   LIG    1        1.658  -7.022   3.760  0.00  0.00    +0.090 A 
BRANCH   8  11
ATOM     11  C   LIG    1        1.588 -10.558   2.538  0.00  0.00    -0.010 A 
ATOM     12  C   LIG    1        1.489 -11.365   1.448  0.00  0.00    +0.180 A 
ATOM     13  N   LIG    1        1.553 -12.633   1.878  0.00  0.00    -0.490 NA
ATOM     14  C   LIG    1        1.677 -12.633   3.176  0.00  0.00    +0.430 A 
ATOM     15  O   LIG    1        1.702 -11.368   3.614  0.00  0.00    -0.200 OA
ENDBRANCH   8  11
ENDBRANCH   2   5
BRANCH   3  16
ATOM     16  C   LIG    1        1.372  -2.700   1.414  0.00  0.00    +0.280 C 
BRANCH  16  17
ATOM     17  C   LIG    1        1.227  -2.185  -0.019  0.00  0.00    +0.090 C 
BRANCH  17  18
ATOM     18  C   LIG    1        1.207  -0.678  -0.012  0.00  0.00    -0.080 A 
ATOM     19  C   LIG    1        0.002  -0.004   0.002  0.00  0.00    +0.040 A 
ATOM     20  C   LIG    1       -0.017   1.381   0.010  0.00  0.00    +0.080 A 
ATOM     21  C   LIG    1        1.172   2.090   0.002  0.00  0.00    +0.030 A 
ATOM     22  C   LIG    1        2.380   1.417  -0.014  0.00  0.00    -0.170 A 
ATOM     23  C   LIG    1        3.669   2.200  -0.026  0.00  0.00    +0.300 C 
ATOM     24  O   LIG    1        4.751   1.335   0.331  0.00  0.00    -0.380 OA
ATOM     25  C   LIG    1        4.747   0.102  -0.398  0.00  0.00    +0.440 C 
ATOM     26  O   LIG    1        3.582  -0.642  -0.029  0.00  0.00    -0.320 OA
ATOM     27  F   LIG    1       -1.196   2.040   0.019  0.00  0.00    -0.140 F 
ATOM     28  C   LIG    1        2.400   0.032  -0.019  0.00  0.00    +0.130 A 
ENDBRANCH  17  18
ENDBRANCH  16  17
ENDBRANCH   3  16
TORSDOF 5
