REMARK  Name = ZINCvU00000005Gi.0
REMARK                            x       y       z     vdW  Elec       q    Type
REMARK                         _______ _______ _______ _____ _____    ______ ____
ROOT
ATOM      1  C   LIG    1        2.059   5.643  -2.597  0.00  0.00    -0.040 A 
ATOM      2  C   LIG    1        2.512   5.104  -3.787  0.00  0.00    +0.010 A 
ATOM      3  C   LIG    1        2.890   6.207  -4.575  0.00  0.00    +0.070 A 
ATOM      4  N   LIG    1        2.663   7.296  -3.870  0.00  0.00    -0.250 NA
ATOM      5  N   LIG    1        2.174   7.002  -2.720  0.00  0.00    -0.200 N 
ENDROOT
BRANCH   3   6
ATOM      6  C   LIG    1        3.445   6.152  -5.950  0.00  0.00    -0.010 A 
ATOM      7  C   LIG    1        3.640   4.923  -6.577  0.00  0.00    +0.030 A 
ATOM      8  C   LIG    1        4.151   4.879  -7.859  0.00  0.00    +0.010 A 
ATOM      9  C   LIG    1        4.479   6.051  -8.516  0.00  0.00    +0.010 A 
ATOM     10  C   LIG    1        4.293   7.273  -7.896  0.00  0.00    +0.010 A 
ATOM     11  C   LIG    1        3.777   7.330  -6.617  0.00  0.00    +0.040 A 
ENDBRANCH   3   6
BRANCH   5  12
ATOM     12  C   LIG    1        1.817   7.931  -1.736  0.00  0.00    +0.110 A 
ATOM     13  C   LIG    1        0.595   7.821  -1.085  0.00  0.00    +0.070 A 
ATOM     14  C   LIG    1        0.249   8.736  -0.111  0.00  0.00    +0.020 A 
ATOM     15  C   LIG    1        1.112   9.769   0.209  0.00  0.00    +0.030 A 
ATOM     16  C   LIG    1        2.327   9.884  -0.441  0.00  0.00    +0.020 A 
ATOM     17  C   LIG    1        2.682   8.969  -1.412  0.00  0.00    +0.040 A 
ENDBRANCH   5  12
BRANCH   1  20
ATOM     18  N   LIG    1        1.390   3.567  -1.500  0.00  0.00    -0.650 N 
ATOM     19  H   LIG    1        1.637   3.089  -2.308  0.00  0.00    +0.410 HD
ATOM     20  C   LIG    1        1.548   4.904  -1.433  0.00  0.00    +0.590 C 
ATOM     21  O   LIG    1        1.268   5.499  -0.410  0.00  0.00    -0.510 OA
BRANCH  18  25
ATOM     22  C   LIG    1       -0.157   1.475   1.761  0.00  0.00    +0.090 A 
ATOM     23  C   LIG    1       -0.342   0.992   0.476  0.00  0.00    -0.010 A 
ATOM     24  C   LIG    1        0.173   1.684  -0.604  0.00  0.00    -0.110 A 
ATOM     25  C   LIG    1        0.870   2.868  -0.405  0.00  0.00    +0.150 A 
ATOM     26  C   LIG    1        1.051   3.358   0.882  0.00  0.00    -0.020 A 
ATOM     27  C   LIG    1       -0.024   1.152  -2.001  0.00  0.00    +0.100 C 
ATOM     28  C   LIG    1        0.536   2.665   1.964  0.00  0.00    +0.110 A 
BRANCH  22  30
ATOM     29  C   LIG    1       -1.359  -0.423   2.542  0.00  0.00    +0.240 C 
ATOM     30  O   LIG    1       -0.658   0.790   2.825  0.00  0.00    -0.310 OA
ENDBRANCH  22  30
BRANCH  28  31
ATOM     31  O   LIG    1        0.713   3.143   3.225  0.00  0.00    -0.300 OA
ATOM     32  C   LIG    1        1.439   4.367   3.359  0.00  0.00    +0.240 C 
ENDBRANCH  28  31
ENDBRANCH  18  25
ENDBRANCH   1  20
TORSDOF 6
