REMARK  Name = ZINCpe000000WHqN.0
REMARK                            x       y       z     vdW  Elec       q    Type
REMARK                         _______ _______ _______ _____ _____    ______ ____
ROOT
ATOM      1  C   LIG    1        1.781  -2.928   4.467  0.00  0.00    +0.560 C 
ATOM      2  N   LIG    1        2.961  -2.630   5.045  0.00  0.00    -0.610 N 
ATOM      3  C   LIG    1        3.754  -1.478   4.592  0.00  0.00    +0.300 C 
ATOM      4  C   LIG    1        4.115  -0.628   5.820  0.00  0.00    +0.210 C 
ATOM      5  N   LIG    1        4.772  -1.478   6.822  0.00  0.00    -0.460 N 
ATOM      6  C   LIG    1        3.866  -2.528   7.306  0.00  0.00    +0.220 C 
ATOM      7  C   LIG    1        3.492  -3.452   6.143  0.00  0.00    +0.300 C 
ATOM      8  O   LIG    1        1.095  -3.829   4.912  0.00  0.00    -0.530 OA
ENDROOT
BRANCH   1  12
ATOM      9  C   LIG    1        0.455  -0.723   1.089  0.00  0.00    +0.140 A 
ATOM     10  C   LIG    1       -0.469  -1.194   2.017  0.00  0.00    +0.020 A 
ATOM     11  C   LIG    1       -0.043  -1.914   3.110  0.00  0.00    +0.080 A 
ATOM     12  C   LIG    1        1.320  -2.162   3.293  0.00  0.00    -0.130 A 
ATOM     13  C   LIG    1        2.246  -1.683   2.362  0.00  0.00    +0.050 A 
ATOM     14  C   LIG    1        1.813  -0.969   1.269  0.00  0.00    +0.040 A 
BRANCH   9  15
ATOM     15  N   LIG    1        0.021  -0.001  -0.018  0.00  0.00    -1.070 N 
ATOM     16  H   LIG    1       -0.277   0.916   0.088  0.00  0.00    +0.430 HD
BRANCH  15  18
ATOM     17  C   LIG    1       -1.194  -2.054  -1.374  0.00  0.00    -0.280 C 
ATOM     18  S   LIG    1        0.012  -0.707  -1.515  0.00  0.00    +2.610 S 
ATOM     19  O   LIG    1        1.325  -1.228  -1.665  0.00  0.00    -0.950 OA
ATOM     20  O   LIG    1       -0.476   0.310  -2.379  0.00  0.00    -0.950 OA
ENDBRANCH  15  18
ENDBRANCH   9  15
ENDBRANCH   1  12
BRANCH   5  21
ATOM     21  C   LIG    1        5.261  -0.721   7.872  0.00  0.00    +0.490 A 
ATOM     22  N   LIG    1        4.878  -1.006   9.108  0.00  0.00    -0.550 NA
ATOM     23  C   LIG    1        5.330  -0.305  10.135  0.00  0.00    +0.340 A 
ATOM     24  C   LIG    1        6.205   0.745   9.904  0.00  0.00    -0.110 A 
ATOM     25  C   LIG    1        6.581   1.019   8.598  0.00  0.00    +0.350 A 
ATOM     26  N   LIG    1        6.096   0.276   7.617  0.00  0.00    -0.530 NA
ENDBRANCH   5  21
TORSDOF 4
