REMARK  Name = ZINC550000002pfn.0
REMARK                            x       y       z     vdW  Elec       q    Type
REMARK                         _______ _______ _______ _____ _____    ______ ____
ROOT
ATOM      1  N   LIG    1       -1.437   3.583   2.484  0.00  0.00    -0.510 NA
ATOM      2  H   LIG    1       -1.006   3.209   3.316  0.00  0.00    +0.310 HD
ENDROOT
BRANCH   1   3
ATOM      3  N   LIG    1       -1.476   5.036   2.526  0.00  0.00    -0.670 NA
ATOM      4  H   LIG    1       -0.547   5.424   2.462  0.00  0.00    +0.310 HD
ATOM      5  H   LIG    1       -1.948   5.361   3.356  0.00  0.00    +0.360 HD
ENDBRANCH   1   3
BRANCH   1   6
ATOM      6  C   LIG    1       -0.750   3.109   1.275  0.00  0.00    +0.170 C 
BRANCH   6   8
ATOM      7  C   LIG    1       -0.013   1.086   0.008  0.00  0.00    +0.020 C 
ATOM      8  C   LIG    1       -0.729   1.579   1.267  0.00  0.00    +0.010 C 
ENDBRANCH   6   8
ENDBRANCH   1   6
TORSDOF 3
