REMARK  Name = ZINCpk00000e9lRW.0
REMARK                            x       y       z     vdW  Elec       q    Type
REMARK                         _______ _______ _______ _____ _____    ______ ____
ROOT
ATOM      1  C   LIG    1        5.468   1.812   0.969  0.00  0.00    -0.090 C 
ATOM      2  C   LIG    1        4.730   0.921  -0.041  0.00  0.00    +0.310 C 
ATOM      3  N   LIG    1        3.631   1.905  -0.024  0.00  0.00    -0.410 N 
ATOM      4  C   LIG    1        4.050   2.266   1.343  0.00  0.00    +0.270 C 
ENDROOT
BRANCH   3   5
ATOM      5  C   LIG    1        2.401   1.274  -0.015  0.00  0.00    +0.370 A 
ATOM      6  C   LIG    1        1.211   2.017   0.001  0.00  0.00    -0.190 A 
ATOM      7  C   LIG    1        0.879   3.441   0.012  0.00  0.00    -0.130 A 
ATOM      8  C   LIG    1       -0.461   3.527   0.025  0.00  0.00    +0.230 A 
ATOM      9  N   LIG    1       -1.008   2.269   0.018  0.00  0.00    -0.570 N 
ATOM     10  H   LIG    1       -1.958   2.076   0.021  0.00  0.00    +0.430 HD
ATOM     11  C   LIG    1       -0.016   1.328   0.009  0.00  0.00    +0.330 A 
ATOM     12  N   LIG    1        0.002  -0.004   0.002  0.00  0.00    -0.540 NA
ATOM     13  C   LIG    1        1.142  -0.660  -0.012  0.00  0.00    +0.540 A 
ATOM     14  N   LIG    1        2.315  -0.053  -0.021  0.00  0.00    -0.560 NA
BRANCH   7  15
ATOM     15  C   LIG    1        1.853   4.590   0.010  0.00  0.00    +0.090 C 
ATOM     16  C   LIG    1        2.265   4.906  -1.430  0.00  0.00    +0.030 C 
ENDBRANCH   7  15
ENDBRANCH   3   5
BRANCH   1  17
ATOM     17  C   LIG    1        6.179   1.051   2.058  0.00  0.00    +0.480 C 
ATOM     18  O   LIG    1        6.135  -0.157   2.080  0.00  0.00    -0.480 OA
BRANCH  17  19
ATOM     19  O   LIG    1        6.862   1.714   3.004  0.00  0.00    -0.340 OA
BRANCH  19  21
ATOM     20  C   LIG    1        8.244   1.840   5.005  0.00  0.00    +0.070 C 
ATOM     21  C   LIG    1        7.523   0.916   4.022  0.00  0.00    +0.200 C 
ENDBRANCH  19  21
ENDBRANCH  17  19
ENDBRANCH   1  17
BRANCH   1  22
ATOM     22  C   LIG    1        6.319   2.884   0.340  0.00  0.00    +0.500 C 
ATOM     23  O   LIG    1        6.373   2.984  -0.863  0.00  0.00    -0.470 OA
BRANCH  22  24
ATOM     24  O   LIG    1        7.016   3.729   1.115  0.00  0.00    -0.340 OA
BRANCH  24  25
ATOM     25  C   LIG    1        7.813   4.738   0.441  0.00  0.00    +0.200 C 
ATOM     26  C   LIG    1        8.530   5.601   1.481  0.00  0.00    +0.070 C 
ENDBRANCH  24  25
ENDBRANCH  22  24
ENDBRANCH   1  22
TORSDOF 8
