REMARK  Name = ZINCrD0000072bGe.0
REMARK                            x       y       z     vdW  Elec       q    Type
REMARK                         _______ _______ _______ _____ _____    ______ ____
ROOT
ATOM      1  N   LIG    1       -0.791   1.630   1.260  0.00  0.00    -1.100 NA
ATOM      2  H   LIG    1       -0.927   2.582   1.386  0.00  0.00    +0.420 HD
ENDROOT
BRANCH   1   3
ATOM      3  S   LIG    1       -1.267   0.563   2.434  0.00  0.00    +2.690 S 
ATOM      4  O   LIG    1       -1.995  -0.463   1.773  0.00  0.00    -0.940 OA
ATOM      5  O   LIG    1       -1.808   1.343   3.490  0.00  0.00    -0.950 OA
BRANCH   3   6
ATOM      6  C   LIG    1        0.191  -0.195   3.071  0.00  0.00    -0.630 A 
ATOM      7  C   LIG    1        0.694  -1.336   2.475  0.00  0.00    +0.110 A 
ATOM      8  C   LIG    1        1.840  -1.928   2.972  0.00  0.00    +0.110 A 
ATOM      9  C   LIG    1        2.478  -1.384   4.072  0.00  0.00    -0.610 A 
ATOM     10  C   LIG    1        1.972  -0.246   4.671  0.00  0.00    +0.110 A 
ATOM     11  C   LIG    1        0.828   0.349   4.171  0.00  0.00    +0.110 A 
BRANCH   9  12
ATOM     12  S   LIG    1        3.935  -2.141   4.709  0.00  0.00    +2.500 S 
ATOM     13  O   LIG    1        4.631  -1.080   5.348  0.00  0.00    -0.930 OA
ATOM     14  O   LIG    1        4.496  -2.817   3.592  0.00  0.00    -0.930 OA
ATOM     15  C   LIG    1        3.328  -3.332   5.935  0.00  0.00    -0.250 C 
ENDBRANCH   9  12
ENDBRANCH   3   6
ENDBRANCH   1   3
BRANCH   1  16
ATOM     16  C   LIG    1       -0.165   1.136   0.031  0.00  0.00    +0.250 C 
BRANCH  16  17
ATOM     17  C   LIG    1       -1.075   1.437  -1.161  0.00  0.00    -0.060 C 
ATOM     18  C   LIG    1       -1.290   2.947  -1.270  0.00  0.00    +0.030 C 
ATOM     19  C   LIG    1       -2.200   3.248  -2.463  0.00  0.00    -0.020 C 
ATOM     20  C   LIG    1       -1.546   2.732  -3.746  0.00  0.00    +0.010 C 
ATOM     21  C   LIG    1       -1.331   1.222  -3.638  0.00  0.00    -0.010 C 
ATOM     22  C   LIG    1       -2.680   0.527  -3.438  0.00  0.00    +0.010 C 
ATOM     23  C   LIG    1       -3.334   1.043  -2.154  0.00  0.00    -0.020 C 
ATOM     24  C   LIG    1       -3.549   2.554  -2.263  0.00  0.00    +0.010 C 
ATOM     25  C   LIG    1       -0.421   0.921  -2.445  0.00  0.00    +0.030 C 
ATOM     26  C   LIG    1       -2.424   0.742  -0.962  0.00  0.00    +0.030 C 
ENDBRANCH  16  17
BRANCH  16  28
ATOM     27  C   LIG    1        2.135   1.431   0.961  0.00  0.00    +0.000 C 
ATOM     28  C   LIG    1        1.184   1.830  -0.169  0.00  0.00    +0.020 C 
ENDBRANCH  16  28
ENDBRANCH   1  16
TORSDOF 6
