REMARK  Name = ZINCvU00000004a7.0
REMARK                            x       y       z     vdW  Elec       q    Type
REMARK                         _______ _______ _______ _____ _____    ______ ____
ROOT
ATOM      1  C   LIG    1        0.000  -0.037  -0.017  0.00  0.00    +0.170 A 
ATOM      2  N   LIG    1        0.008   1.266  -0.013  0.00  0.00    -0.270 NA
ATOM      3  N   LIG    1        1.216   1.702  -0.027  0.00  0.00    -0.290 NA
ATOM      4  C   LIG    1        2.056   0.692  -0.041  0.00  0.00    +0.140 A 
ATOM      5  N   LIG    1        1.306  -0.452  -0.035  0.00  0.00    -0.410 N 
ENDROOT
BRANCH   5   6
ATOM      6  C   LIG    1        1.775  -1.773  -0.045  0.00  0.00    +0.100 A 
ATOM      7  C   LIG    1        1.548  -2.601   1.046  0.00  0.00    +0.030 A 
ATOM      8  C   LIG    1        2.007  -3.904   1.030  0.00  0.00    +0.040 A 
ATOM      9  C   LIG    1        2.702  -4.380  -0.067  0.00  0.00    +0.040 A 
ATOM     10  C   LIG    1        2.934  -3.556  -1.153  0.00  0.00    +0.040 A 
ATOM     11  C   LIG    1        2.472  -2.255  -1.145  0.00  0.00    +0.030 A 
ENDBRANCH   5   6
BRANCH   1  12
ATOM     12  C   LIG    1       -1.219  -0.924  -0.003  0.00  0.00    +0.270 C 
BRANCH  12  13
ATOM     13  N   LIG    1       -2.117  -0.505   1.081  0.00  0.00    -0.510 NA
ATOM     14  C   LIG    1       -2.647   0.843   0.836  0.00  0.00    +0.210 C 
ATOM     15  C   LIG    1       -1.438  -0.575   2.383  0.00  0.00    +0.200 C 
ENDBRANCH  12  13
BRANCH  12  17
ATOM     16  C   LIG    1       -3.113  -1.799  -1.376  0.00  0.00    +0.040 C 
ATOM     17  C   LIG    1       -1.948  -0.808  -1.343  0.00  0.00    +0.030 C 
ENDBRANCH  12  17
ENDBRANCH   1  12
BRANCH   4  18
ATOM     18  S   LIG    1        3.815   0.792  -0.063  0.00  0.00    +0.100 S 
BRANCH  18  19
ATOM     19  C   LIG    1        4.028   2.589  -0.060  0.00  0.00    +0.110 C 
BRANCH  19  20
ATOM     20  C   LIG    1        5.498   2.921  -0.077  0.00  0.00    +0.530 C 
ATOM     21  N   LIG    1        5.898   4.207  -0.078  0.00  0.00    -0.650 N 
ATOM     22  H   LIG    1        5.240   4.920  -0.068  0.00  0.00    +0.420 HD
ATOM     23  O   LIG    1        6.320   2.030  -0.091  0.00  0.00    -0.450 OA
BRANCH  21  24
ATOM     24  C   LIG    1        7.259   4.514  -0.095  0.00  0.00    +0.390 A 
ATOM     25  N   LIG    1        8.151   3.538  -0.109  0.00  0.00    -0.450 NA
ATOM     26  C   LIG    1        9.447   3.783  -0.125  0.00  0.00    +0.340 A 
ATOM     27  C   LIG    1        9.923   5.081  -0.127  0.00  0.00    -0.120 A 
ATOM     28  C   LIG    1        9.019   6.136  -0.113  0.00  0.00    +0.010 A 
ATOM     29  C   LIG    1        9.501   7.564  -0.115  0.00  0.00    +0.130 C 
ATOM     30 CL   LIG    1       11.631   5.389  -0.149  0.00  0.00    -0.040 Cl
ATOM     31  C   LIG    1        7.665   5.845  -0.101  0.00  0.00    -0.120 A 
ATOM     32 CL   LIG    1        6.491   7.124  -0.090  0.00  0.00    -0.040 Cl
ENDBRANCH  21  24
ENDBRANCH  19  20
ENDBRANCH  18  19
ENDBRANCH   4  18
TORSDOF 8
