REMARK  Name = ZINCvU0000000Anb.0
REMARK                            x       y       z     vdW  Elec       q    Type
REMARK                         _______ _______ _______ _____ _____    ______ ____
ROOT
ATOM      1  C   LIG    1       -3.841   2.791   0.358  0.00  0.00    +0.110 A 
ATOM      2  C   LIG    1       -3.746   1.403   0.361  0.00  0.00    +0.010 A 
ATOM      3  C   LIG    1       -2.521   0.797   0.259  0.00  0.00    +0.090 A 
ATOM      4  C   LIG    1       -1.362   1.578   0.150  0.00  0.00    -0.110 A 
ATOM      5  C   LIG    1       -1.464   2.977   0.152  0.00  0.00    +0.070 A 
ATOM      6  C   LIG    1       -2.695   3.572   0.250  0.00  0.00    +0.020 A 
ENDROOT
BRANCH   4   7
ATOM      7  C   LIG    1       -0.050   0.937   0.041  0.00  0.00    +0.250 C 
ATOM      8  C   LIG    1        0.971   1.567  -0.635  0.00  0.00    -0.130 C 
BRANCH   8   9
ATOM      9  C   LIG    1        2.327   0.997  -0.619  0.00  0.00    +0.580 C 
ATOM     10  N   LIG    1        3.326   1.614  -1.280  0.00  0.00    -0.670 N 
ATOM     11  H   LIG    1        3.169   2.472  -1.705  0.00  0.00    +0.410 HD
ATOM     12  O   LIG    1        2.547  -0.032  -0.007  0.00  0.00    -0.510 OA
BRANCH  10  13
ATOM     13  C   LIG    1        4.589   1.018  -1.354  0.00  0.00    +0.140 A 
ATOM     14  C   LIG    1        5.079   0.290  -0.278  0.00  0.00    +0.020 A 
ATOM     15  C   LIG    1        6.325  -0.301  -0.356  0.00  0.00    +0.030 A 
ATOM     16  C   LIG    1        7.088  -0.161  -1.500  0.00  0.00    -0.100 A 
ATOM     17  C   LIG    1        6.605   0.567  -2.572  0.00  0.00    -0.070 A 
ATOM     18  C   LIG    1        7.440   0.718  -3.817  0.00  0.00    +0.090 C 
ATOM     19  C   LIG    1        8.448  -0.804  -1.580  0.00  0.00    +0.090 C 
ATOM     20  C   LIG    1        5.358   1.157  -2.502  0.00  0.00    -0.020 A 
ENDBRANCH  10  13
ENDBRANCH   8   9
BRANCH   8  21
ATOM     21  C   LIG    1        0.713   2.778  -1.355  0.00  0.00    +0.240 C 
ATOM     22  N   LIG    1        0.507   3.739  -1.925  0.00  0.00    -0.400 NA
ENDBRANCH   8  21
ENDBRANCH   4   7
BRANCH   1  23
ATOM     23  O   LIG    1       -5.057   3.385   0.460  0.00  0.00    -0.290 OA
BRANCH  23  24
ATOM     24  C   LIG    1       -5.633   3.396   1.679  0.00  0.00    +0.510 C 
ATOM     25  O   LIG    1       -5.024   2.974   2.642  0.00  0.00    -0.480 OA
BRANCH  24  30
ATOM     26  C   LIG    1      -10.974   5.436   2.320  0.00  0.00    +0.100 C 
ATOM     27  C   LIG    1       -9.575   4.902   2.152  0.00  0.00    -0.040 A 
ATOM     28  C   LIG    1       -8.884   4.422   3.251  0.00  0.00    +0.010 A 
ATOM     29  C   LIG    1       -7.603   3.931   3.104  0.00  0.00    +0.090 A 
ATOM     30  C   LIG    1       -7.004   3.919   1.843  0.00  0.00    -0.140 A 
ATOM     31  C   LIG    1       -7.704   4.410   0.740  0.00  0.00    +0.080 A 
ATOM     32  C   LIG    1       -8.986   4.893   0.900  0.00  0.00    +0.000 A 
ENDBRANCH  24  30
ENDBRANCH  23  24
ENDBRANCH   1  23
TORSDOF 7
