REMARK  Name = ZINCvU0000000H9x.0
REMARK                            x       y       z     vdW  Elec       q    Type
REMARK                         _______ _______ _______ _____ _____    ______ ____
ROOT
ATOM      1  C   LIG    1       -2.494   0.630  -0.536  0.00  0.00    -0.160 A 
ATOM      2  C   LIG    1       -2.464  -0.762  -0.459  0.00  0.00    +0.120 A 
ATOM      3  C   LIG    1       -3.593  -1.468  -0.087  0.00  0.00    +0.000 A 
ATOM      4  C   LIG    1       -4.769  -0.806   0.205  0.00  0.00    +0.150 A 
ATOM      5  C   LIG    1       -4.820   0.585   0.130  0.00  0.00    -0.230 A 
ATOM      6  C   LIG    1       -6.062   1.324   0.434  0.00  0.00    +0.430 A 
ATOM      7  O   LIG    1       -7.082   0.742   0.763  0.00  0.00    -0.460 OA
ATOM      8  C   LIG    1       -6.020   2.734   0.330  0.00  0.00    -0.280 A 
ATOM      9  C   LIG    1       -7.250   3.554   0.625  0.00  0.00    +0.130 C 
ATOM     10  C   LIG    1       -4.862   3.344  -0.040  0.00  0.00    +0.200 A 
ATOM     11  O   LIG    1       -3.741   2.659  -0.314  0.00  0.00    -0.190 OA
ATOM     12  C   LIG    1       -3.682   1.316  -0.242  0.00  0.00    +0.200 A 
ENDROOT
BRANCH  10  13
ATOM     13  C   LIG    1       -4.838   4.817  -0.144  0.00  0.00    -0.070 A 
ATOM     14  C   LIG    1       -5.826   5.486  -0.870  0.00  0.00    +0.050 A 
ATOM     15  C   LIG    1       -5.801   6.862  -0.958  0.00  0.00    +0.010 A 
ATOM     16  C   LIG    1       -4.792   7.579  -0.340  0.00  0.00    +0.040 A 
ATOM     17  C   LIG    1       -3.806   6.923   0.376  0.00  0.00    +0.010 A 
ATOM     18  C   LIG    1       -3.822   5.548   0.477  0.00  0.00    +0.060 A 
ENDBRANCH  10  13
BRANCH   1  21
ATOM     19  N   LIG    1       -0.144   0.715  -1.210  0.00  0.00    -0.660 N 
ATOM     20  H   LIG    1       -0.137  -0.255  -1.220  0.00  0.00    +0.410 HD
ATOM     21  C   LIG    1       -1.284   1.378  -0.929  0.00  0.00    +0.560 C 
ATOM     22  O   LIG    1       -1.315   2.591  -0.999  0.00  0.00    -0.500 OA
BRANCH  19  26
ATOM     23  C   LIG    1        3.349   2.839  -2.055  0.00  0.00    +0.160 A 
ATOM     24  C   LIG    1        2.116   3.350  -2.431  0.00  0.00    -0.100 A 
ATOM     25  C   LIG    1        0.960   2.645  -2.156  0.00  0.00    +0.110 A 
ATOM     26  C   LIG    1        1.030   1.429  -1.494  0.00  0.00    +0.080 A 
ATOM     27  C   LIG    1        2.268   0.913  -1.115  0.00  0.00    +0.150 A 
ATOM     28  C   LIG    1        3.425   1.620  -1.397  0.00  0.00    -0.090 A 
BRANCH  23  30
ATOM     29  C   LIG    1        4.334   4.780  -3.011  0.00  0.00    +0.250 C 
ATOM     30  O   LIG    1        4.485   3.532  -2.332  0.00  0.00    -0.320 OA
ENDBRANCH  23  30
BRANCH  27  31
ATOM     31  O   LIG    1        2.339  -0.282  -0.471  0.00  0.00    -0.310 OA
ATOM     32  C   LIG    1        3.642  -0.749  -0.113  0.00  0.00    +0.250 C 
ENDBRANCH  27  31
ENDBRANCH  19  26
ENDBRANCH   1  21
TORSDOF 5
