REMARK  Name = ZINCrD000000CA0d.0
REMARK                            x       y       z     vdW  Elec       q    Type
REMARK                         _______ _______ _______ _____ _____    ______ ____
ROOT
ATOM      1  O   LIG    1       -2.643   5.342   0.161  0.00  0.00    -0.510 OA
ATOM      2  C   LIG    1       -1.447   5.132   0.092  0.00  0.00    +0.600 C 
ATOM      3  N   LIG    1       -0.577   6.159   0.167  0.00  0.00    -0.610 N 
ATOM      4  C   LIG    1        0.861   5.949  -0.064  0.00  0.00    +0.310 C 
ATOM      5  C   LIG    1        1.337   6.975  -1.104  0.00  0.00    +0.210 C 
ATOM      6  N   LIG    1        0.971   8.325  -0.655  0.00  0.00    -0.480 N 
ATOM      7  C   LIG    1       -0.487   8.481  -0.568  0.00  0.00    +0.210 C 
ATOM      8  C   LIG    1       -1.039   7.518   0.488  0.00  0.00    +0.310 C 
ENDROOT
BRANCH   6   9
ATOM      9  C   LIG    1        1.523   9.285  -1.476  0.00  0.00    +0.390 A 
ATOM     10  N   LIG    1        0.896   9.684  -2.574  0.00  0.00    -0.560 NA
ATOM     11  C   LIG    1        1.413  10.609  -3.368  0.00  0.00    +0.520 A 
ATOM     12  N   LIG    1        2.569  11.183  -3.137  0.00  0.00    -0.510 NA
ATOM     13  C   LIG    1        3.290  10.850  -2.056  0.00  0.00    +0.160 A 
ATOM     14  C   LIG    1        4.529  11.442  -1.778  0.00  0.00    +0.030 A 
ATOM     15  C   LIG    1        5.221  11.066  -0.665  0.00  0.00    +0.070 A 
ATOM     16  C   LIG    1        4.716  10.101   0.201  0.00  0.00    +0.000 A 
ATOM     17  C   LIG    1        3.513   9.505  -0.039  0.00  0.00    +0.080 A 
ATOM     18  C   LIG    1        2.778   9.868  -1.172  0.00  0.00    -0.150 A 
ENDBRANCH   6   9
BRANCH   2  19
ATOM     19  C   LIG    1       -0.950   3.759  -0.073  0.00  0.00    -0.030 A 
ATOM     20  C   LIG    1       -1.728   2.669  -0.304  0.00  0.00    +0.070 A 
ATOM     21  C   LIG    1       -0.813   1.531  -0.395  0.00  0.00    -0.150 A 
ATOM     22  C   LIG    1       -0.982   0.162  -0.613  0.00  0.00    +0.070 A 
ATOM     23  C   LIG    1        0.111  -0.658  -0.648  0.00  0.00    -0.010 A 
ATOM     24  C   LIG    1        1.385  -0.139  -0.468  0.00  0.00    +0.060 A 
ATOM     25  C   LIG    1        1.573   1.210  -0.251  0.00  0.00    +0.030 A 
ATOM     26  C   LIG    1        0.477   2.063  -0.212  0.00  0.00    +0.060 A 
ATOM     27  O   LIG    1        0.347   3.391  -0.024  0.00  0.00    -0.180 OA
ENDBRANCH   2  19
TORSDOF 2
