REMARK  Name = ZINCvU0000000Hkf.0
REMARK                            x       y       z     vdW  Elec       q    Type
REMARK                         _______ _______ _______ _____ _____    ______ ____
ROOT
ATOM      1  C   LIG    1       -5.327   8.206  -2.401  0.00  0.00    +0.340 C 
ENDROOT
BRANCH   1   2
ATOM      2  C   LIG    1       -6.244   7.077  -2.007  0.00  0.00    -0.060 A 
ATOM      3  C   LIG    1       -6.790   7.041  -0.738  0.00  0.00    +0.010 A 
ATOM      4  C   LIG    1       -7.636   6.008  -0.377  0.00  0.00    +0.040 A 
ATOM      5  C   LIG    1       -7.926   5.005  -1.281  0.00  0.00    -0.010 A 
ATOM      6  C   LIG    1       -7.374   5.036  -2.551  0.00  0.00    +0.100 A 
ATOM      7  F   LIG    1       -7.658   4.056  -3.436  0.00  0.00    -0.140 F 
ATOM      8  C   LIG    1       -6.532   6.074  -2.913  0.00  0.00    -0.010 A 
ENDBRANCH   1   2
BRANCH   1  12
ATOM      9  C   LIG    1       -7.655  11.633  -3.441  0.00  0.00    -0.080 A 
ATOM     10  C   LIG    1       -7.138  10.822  -4.434  0.00  0.00    +0.010 A 
ATOM     11  C   LIG    1       -6.384   9.713  -4.097  0.00  0.00    +0.020 A 
ATOM     12  C   LIG    1       -6.148   9.415  -2.768  0.00  0.00    -0.100 A 
ATOM     13  C   LIG    1       -6.670  10.224  -1.775  0.00  0.00    +0.010 A 
ATOM     14  C   LIG    1       -7.420  11.335  -2.112  0.00  0.00    +0.010 A 
BRANCH   9  16
ATOM     15  C   LIG    1       -9.951  12.449  -3.901  0.00  0.00    +0.030 C 
ATOM     16  C   LIG    1       -8.476  12.843  -3.809  0.00  0.00    +0.050 C 
ENDBRANCH   9  16
ENDBRANCH   1  12
BRANCH   1  17
ATOM     17  N   LIG    1       -4.448   8.536  -1.276  0.00  0.00    -0.730 N 
ATOM     18  H   LIG    1       -4.688   9.252  -0.666  0.00  0.00    +0.400 HD
ATOM     19  C   LIG    1       -3.305   7.846  -1.089  0.00  0.00    +0.520 C 
ATOM     20  O   LIG    1       -3.005   6.952  -1.851  0.00  0.00    -0.510 OA
BRANCH  19  21
ATOM     21  C   LIG    1       -2.401   8.186   0.068  0.00  0.00    +0.150 C 
BRANCH  21  22
ATOM     22  C   LIG    1       -1.201   7.274   0.052  0.00  0.00    +0.080 A 
ATOM     23  C   LIG    1        0.051   7.747   0.043  0.00  0.00    -0.060 A 
ATOM     24  S   LIG    1        1.157   6.375   0.025  0.00  0.00    +0.110 S 
ATOM     25  C   LIG    1       -0.217   5.273   0.033  0.00  0.00    +0.110 A 
ATOM     26  N   LIG    1       -1.319   5.968   0.042  0.00  0.00    -0.400 NA
BRANCH  25  27
ATOM     27  C   LIG    1       -0.134   3.797   0.024  0.00  0.00    +0.190 A 
ATOM     28  C   LIG    1        1.114   3.175   0.009  0.00  0.00    -0.010 A 
ATOM     29  C   LIG    1        1.176   1.792   0.001  0.00  0.00    +0.070 A 
ATOM     30  C   LIG    1       -0.013   1.076   0.008  0.00  0.00    -0.020 A 
ATOM     31  C   LIG    1       -1.216   1.758   0.017  0.00  0.00    +0.270 A 
ATOM     32  N   LIG    1       -1.248   3.074   0.031  0.00  0.00    -0.440 NA
ENDBRANCH  25  27
ENDBRANCH  21  22
ENDBRANCH  19  21
ENDBRANCH   1  17
TORSDOF 7
