REMARK  Name = ZINCpk00001AZiKR.0
REMARK                            x       y       z     vdW  Elec       q    Type
REMARK                         _______ _______ _______ _____ _____    ______ ____
ROOT
ATOM      1  C   LIG    1       -3.163   3.655   2.903  0.00  0.00    +0.610 C 
ATOM      2  N   LIG    1       -3.469   3.753   4.212  0.00  0.00    -0.720 N 
ATOM      3  H   LIG    1       -3.003   3.203   4.861  0.00  0.00    +0.410 HD
ATOM      4  O   LIG    1       -3.747   4.345   2.089  0.00  0.00    -0.540 OA
ENDROOT
BRANCH   1  10
ATOM      5  C   LIG    1       -0.949   0.858  -2.264  0.00  0.00    +0.130 C 
ATOM      6  C   LIG    1       -0.774   1.602  -1.201  0.00  0.00    -0.220 C 
ATOM      7  C   LIG    1       -1.322   3.013  -1.126  0.00  0.00    +0.310 C 
ATOM      8  O   LIG    1       -2.162   3.110   0.034  0.00  0.00    -0.260 OA
ATOM      9  C   LIG    1       -1.702   2.508   1.156  0.00  0.00    +0.350 A 
ATOM     10  C   LIG    1       -2.123   2.717   2.460  0.00  0.00    -0.310 A 
ATOM     11  C   LIG    1       -1.360   1.854   3.283  0.00  0.00    +0.310 A 
ATOM     12  N   LIG    1       -0.541   1.182   2.521  0.00  0.00    -0.280 NA
ATOM     13  N   LIG    1       -0.727   1.573   1.198  0.00  0.00    -0.390 N 
ATOM     14  C   LIG    1       -0.013   1.086   0.008  0.00  0.00    +0.380 C 
ENDBRANCH   1  10
BRANCH   2  15
ATOM     15  C   LIG    1       -4.505   4.689   4.654  0.00  0.00    +0.340 C 
ATOM     16  C   LIG    1       -5.878   4.024   4.533  0.00  0.00    +0.060 C 
BRANCH  15  17
ATOM     17  C   LIG    1       -4.258   5.071   6.091  0.00  0.00    +0.170 A 
ATOM     18  N   LIG    1       -3.948   4.259   7.069  0.00  0.00    -0.280 NA
ATOM     19  N   LIG    1       -3.809   4.928   8.162  0.00  0.00    -0.290 NA
ATOM     20  C   LIG    1       -4.023   6.187   7.930  0.00  0.00    +0.180 A 
ATOM     21  C   LIG    1       -3.977   7.342   8.898  0.00  0.00    +0.170 C 
ATOM     22  C   LIG    1       -4.667   8.544   8.243  0.00  0.00    -0.020 C 
ATOM     23  C   LIG    1       -4.126   8.732   6.823  0.00  0.00    +0.050 C 
ATOM     24  C   LIG    1       -4.603   7.577   5.934  0.00  0.00    +0.290 C 
ATOM     25  C   LIG    1       -4.392   9.805   9.065  0.00  0.00    +0.030 C 
ATOM     26  N   LIG    1       -4.307   6.313   6.609  0.00  0.00    -0.460 N 
ENDBRANCH  15  17
ENDBRANCH   2  15
TORSDOF 3
