REMARK  Name = ZINCkj00000y7wAP.0
REMARK                            x       y       z     vdW  Elec       q    Type
REMARK                         _______ _______ _______ _____ _____    ______ ____
ROOT
ATOM      1  C   LIG    1       -6.348   1.119   1.214  0.00  0.00    +0.170 C 
ATOM      2  C   LIG    1       -6.535  -0.399   0.981  0.00  0.00    +0.100 C 
ATOM      3  C   LIG    1       -7.798  -0.494   0.154  0.00  0.00    +0.520 C 
ATOM      4  N   LIG    1       -8.097   0.705  -0.374  0.00  0.00    -0.610 N 
ATOM      5  C   LIG    1       -9.262   0.968  -1.222  0.00  0.00    +0.330 C 
ATOM      6  O   LIG    1       -8.447  -1.506  -0.009  0.00  0.00    -0.480 OA
ATOM      7  C   LIG    1       -7.106   1.718   0.008  0.00  0.00    +0.290 C 
ENDROOT
BRANCH   7   8
ATOM      8  C   LIG    1       -7.795   2.997   0.408  0.00  0.00    -0.190 A 
ATOM      9  C   LIG    1       -7.228   4.225   0.102  0.00  0.00    +0.080 A 
ATOM     10  C   LIG    1       -7.898   5.375   0.489  0.00  0.00    -0.010 A 
ATOM     11  C   LIG    1       -9.099   5.261   1.163  0.00  0.00    +0.290 A 
ATOM     12  N   LIG    1       -9.608   4.076   1.438  0.00  0.00    -0.470 NA
ATOM     13  C   LIG    1       -9.002   2.961   1.080  0.00  0.00    +0.290 A 
ENDBRANCH   7   8
BRANCH   1  14
ATOM     14  N   LIG    1       -4.926   1.485   1.176  0.00  0.00    -0.500 N 
ATOM     15  H   LIG    1       -4.494   1.071   0.364  0.00  0.00    +0.430 HD
ATOM     16  H   LIG    1       -4.839   2.489   1.129  0.00  0.00    +0.440 HD
BRANCH  14  17
ATOM     17  C   LIG    1       -4.261   0.992   2.390  0.00  0.00    +0.180 C 
ATOM     18  C   LIG    1       -2.755   1.236   2.281  0.00  0.00    +0.100 C 
BRANCH  17  19
ATOM     19  C   LIG    1       -4.811   1.733   3.610  0.00  0.00    +0.200 C 
BRANCH  19  20
ATOM     20  O   LIG    1       -4.463   3.116   3.524  0.00  0.00    -0.400 OA
BRANCH  20  22
ATOM     21  C   LIG    1       -4.504   5.359   4.424  0.00  0.00    +0.050 C 
ATOM     22  C   LIG    1       -4.932   3.903   4.621  0.00  0.00    +0.180 C 
ENDBRANCH  20  22
ENDBRANCH  19  20
ENDBRANCH  17  19
ENDBRANCH  14  17
ENDBRANCH   1  14
TORSDOF 6
