REMARK  Name = ZINCrg00000bIuWB.0
REMARK                            x       y       z     vdW  Elec       q    Type
REMARK                         _______ _______ _______ _____ _____    ______ ____
ROOT
ATOM      1  C   LIG    1        4.085   0.834  -1.456  0.00  0.00    +0.530 C 
ATOM      2  N   LIG    1        5.406   0.903  -1.715  0.00  0.00    -0.620 N 
ATOM      3  C   LIG    1        6.478   0.950  -0.704  0.00  0.00    +0.260 C 
ATOM      4  C   LIG    1        7.671   1.627  -1.423  0.00  0.00    +0.030 C 
ATOM      5  C   LIG    1        7.543   1.045  -2.856  0.00  0.00    +0.250 C 
ATOM      6  C   LIG    1        6.016   0.937  -3.052  0.00  0.00    +0.210 C 
ATOM      7  C   LIG    1        5.676  -0.346  -3.812  0.00  0.00    +0.040 C 
ATOM      8  O   LIG    1        3.289   0.800  -2.370  0.00  0.00    -0.520 OA
ENDROOT
BRANCH   5   9
ATOM      9  N   LIG    1        8.136   1.955  -3.839  0.00  0.00    -0.720 N 
ATOM     10  H   LIG    1        7.580   2.607  -4.293  0.00  0.00    +0.400 HD
ATOM     11  C   LIG    1        9.454   1.885  -4.114  0.00  0.00    +0.520 C 
ATOM     12  O   LIG    1       10.149   1.069  -3.546  0.00  0.00    -0.530 OA
BRANCH  11  13
ATOM     13  C   LIG    1       10.063   2.820  -5.126  0.00  0.00    -0.010 C 
ATOM     14  C   LIG    1        9.391   2.610  -6.484  0.00  0.00    +0.030 C 
ATOM     15  C   LIG    1        9.989   3.587  -7.502  0.00  0.00    +0.270 C 
ATOM     16  N   LIG    1       11.448   3.417  -7.519  0.00  0.00    -0.630 N 
ATOM     17  C   LIG    1       12.184   3.509  -6.251  0.00  0.00    +0.300 C 
ATOM     18  C   LIG    1       12.098   3.182  -8.676  0.00  0.00    +0.710 C 
ATOM     19  O   LIG    1       13.313   3.135  -8.691  0.00  0.00    -0.590 OA
ATOM     20  N   LIG    1       11.402   2.999  -9.815  0.00  0.00    -0.870 N 
ATOM     21  H   LIG    1       11.865   2.757 -10.633  0.00  0.00    +0.420 HD
ATOM     22  H   LIG    1       10.438   3.109  -9.818  0.00  0.00    +0.400 HD
ATOM     23  C   LIG    1       11.562   2.533  -5.247  0.00  0.00    +0.050 C 
ENDBRANCH  11  13
ENDBRANCH   5   9
BRANCH   1  24
ATOM     24  C   LIG    1        3.597   0.799  -0.030  0.00  0.00    +0.180 C 
BRANCH  24  29
ATOM     25  C   LIG    1       -1.250   2.193   0.020  0.00  0.00    +0.180 C 
ATOM     26  C   LIG    1       -0.015   1.329   0.008  0.00  0.00    -0.010 A 
ATOM     27  C   LIG    1        0.003  -0.016  -0.001  0.00  0.00    -0.060 A 
ATOM     28  C   LIG    1        1.362  -0.407  -0.016  0.00  0.00    -0.040 A 
ATOM     29  C   LIG    1        2.092   0.723  -0.016  0.00  0.00    -0.010 A 
ATOM     30  O   LIG    1        1.253   1.771  -0.001  0.00  0.00    -0.170 OA
ENDBRANCH  24  29
ENDBRANCH   1  24
TORSDOF 4
