REMARK  Name = ZINCtV00001bB3Ij.0
REMARK                            x       y       z     vdW  Elec       q    Type
REMARK                         _______ _______ _______ _____ _____    ______ ____
ROOT
ATOM      1  P   LIG    1        2.364   5.271  -0.078  0.00  0.00    +2.700 P 
ATOM      2  O   LIG    1        1.230   6.212   0.065  0.00  0.00    -1.040 OA
ENDROOT
BRANCH   1  15
ATOM      3  C   LIG    1        2.040   7.377  -1.884  0.00  0.00    +0.310 C 
ATOM      4  N   LIG    1        3.464   7.677  -1.715  0.00  0.00    -0.550 N 
ATOM      5  C   LIG    1        4.169   8.598  -2.489  0.00  0.00    +0.160 A 
ATOM      6  C   LIG    1        3.743   9.409  -3.540  0.00  0.00    -0.020 A 
ATOM      7  C   LIG    1        4.634  10.256  -4.167  0.00  0.00    +0.050 A 
ATOM      8  C   LIG    1        5.954  10.307  -3.757  0.00  0.00    -0.020 A 
ATOM      9  C   LIG    1        6.384   9.506  -2.714  0.00  0.00    +0.060 A 
ATOM     10  C   LIG    1        5.497   8.659  -2.086  0.00  0.00    -0.140 A 
ATOM     11  C   LIG    1        5.657   7.686  -0.940  0.00  0.00    -0.010 C 
ATOM     12  C   LIG    1        6.675   6.603  -1.301  0.00  0.00    +0.070 C 
ATOM     13  C   LIG    1        6.085   8.421   0.332  0.00  0.00    +0.060 C 
ATOM     14  C   LIG    1        4.281   7.082  -0.765  0.00  0.00    +0.280 C 
ATOM     15  C   LIG    1        3.926   6.171   0.122  0.00  0.00    -0.800 C 
ENDBRANCH   1  15
BRANCH   1  16
ATOM     16  C   LIG    1        2.243   3.981   1.191  0.00  0.00    -0.740 A 
ATOM     17  C   LIG    1        2.911   4.128   2.392  0.00  0.00    +0.070 A 
ATOM     18  C   LIG    1        2.816   3.146   3.361  0.00  0.00    +0.000 A 
ATOM     19  C   LIG    1        2.058   2.014   3.126  0.00  0.00    +0.050 A 
ATOM     20  C   LIG    1        1.394   1.865   1.923  0.00  0.00    +0.000 A 
ATOM     21  C   LIG    1        1.486   2.848   0.955  0.00  0.00    +0.080 A 
ENDBRANCH   1  16
BRANCH   1  22
ATOM     22  N   LIG    1        2.317   4.581  -1.565  0.00  0.00    -1.110 N 
ATOM     23  H   LIG    1        1.555   4.731  -2.146  0.00  0.00    +0.430 HD
BRANCH  22  24
ATOM     24  C   LIG    1        3.376   3.776  -1.996  0.00  0.00    +0.170 A 
ATOM     25  C   LIG    1        3.416   3.322  -3.308  0.00  0.00    +0.010 A 
ATOM     26  C   LIG    1        4.463   2.528  -3.732  0.00  0.00    +0.030 A 
ATOM     27  C   LIG    1        5.471   2.180  -2.848  0.00  0.00    +0.070 A 
ATOM     28  C   LIG    1        5.437   2.636  -1.541  0.00  0.00    +0.040 A 
ATOM     29  F   LIG    1        6.492   1.398  -3.263  0.00  0.00    -0.140 F 
ATOM     30  C   LIG    1        4.391   3.431  -1.113  0.00  0.00    -0.040 A 
ENDBRANCH  22  24
ENDBRANCH   1  22
TORSDOF 4
