REMARK  Name = ZINCpk00000ebD7E.0
REMARK                            x       y       z     vdW  Elec       q    Type
REMARK                         _______ _______ _______ _____ _____    ______ ____
ROOT
ATOM      1  O   LIG    1        6.133   1.059  -0.756  0.00  0.00    -0.580 OA
ATOM      2  C   LIG    1        5.335   1.008  -1.673  0.00  0.00    +0.710 C 
ATOM      3  N   LIG    1        5.771   1.047  -2.948  0.00  0.00    -0.740 N 
ATOM      4  H   LIG    1        5.135   1.006  -3.679  0.00  0.00    +0.400 HD
ATOM      5  N   LIG    1        4.016   0.911  -1.414  0.00  0.00    -0.740 N 
ATOM      6  H   LIG    1        3.380   0.870  -2.145  0.00  0.00    +0.400 HD
ENDROOT
BRANCH   3   7
ATOM      7  C   LIG    1        7.205   1.152  -3.229  0.00  0.00    +0.340 C 
BRANCH   7   8
ATOM      8  C   LIG    1        7.427   1.177  -4.743  0.00  0.00    +0.170 C 
ATOM      9  C   LIG    1        8.931   1.282  -5.040  0.00  0.00    +0.100 C 
ATOM     10  S   LIG    1        9.109   1.512  -6.836  0.00  0.00    -0.100 S 
ATOM     11  C   LIG    1        7.965   0.326  -7.472  0.00  0.00    -0.160 A 
ATOM     12  C   LIG    1        8.015   0.002  -8.822  0.00  0.00    +0.070 A 
ATOM     13  C   LIG    1        7.117  -0.903  -9.354  0.00  0.00    +0.000 A 
ATOM     14  C   LIG    1        6.167  -1.488  -8.538  0.00  0.00    +0.050 A 
ATOM     15  C   LIG    1        6.117  -1.175  -7.195  0.00  0.00    +0.000 A 
ATOM     16  C   LIG    1        7.020  -0.268  -6.644  0.00  0.00    +0.130 A 
ATOM     17  O   LIG    1        6.923  -0.019  -5.317  0.00  0.00    -0.310 OA
ENDBRANCH   7   8
ENDBRANCH   3   7
BRANCH   5  18
ATOM     18  C   LIG    1        3.543   0.869  -0.028  0.00  0.00    +0.450 C 
BRANCH  18  19
ATOM     19  C   LIG    1        2.040   0.760  -0.013  0.00  0.00    +0.180 A 
ATOM     20  N   LIG    1        1.194   1.760   0.000  0.00  0.00    -0.230 NA
ATOM     21  N   LIG    1       -0.016   1.319   0.009  0.00  0.00    -0.250 NA
ATOM     22  C   LIG    1        0.002  -0.004   0.002  0.00  0.00    +0.140 A 
ATOM     23  C   LIG    1       -0.997  -0.994   0.006  0.00  0.00    +0.170 A 
ATOM     24  C   LIG    1       -0.629  -2.305  -0.004  0.00  0.00    +0.010 A 
ATOM     25  C   LIG    1        0.728  -2.655  -0.019  0.00  0.00    +0.360 A 
ATOM     26  N   LIG    1        1.660  -1.739  -0.024  0.00  0.00    -0.250 NA
ATOM     27  N   LIG    1        1.323  -0.384  -0.013  0.00  0.00    -0.290 N 
ENDBRANCH  18  19
ENDBRANCH   5  18
TORSDOF 4
