REMARK  Name = ZINCtV000002wAmg.0
REMARK                            x       y       z     vdW  Elec       q    Type
REMARK                         _______ _______ _______ _____ _____    ______ ____
ROOT
ATOM      1  N   LIG    1        1.400  10.202  -0.047  0.00  0.00    -0.630 N 
ATOM      2  H   LIG    1        2.276   9.786  -0.073  0.00  0.00    +0.420 HD
ATOM      3  C   LIG    1        0.290   9.437  -0.041  0.00  0.00    +0.560 C 
ATOM      4  O   LIG    1       -0.807   9.959  -0.008  0.00  0.00    -0.490 OA
ENDROOT
BRANCH   3   5
ATOM      5  C   LIG    1        0.407   7.966  -0.075  0.00  0.00    -0.140 A 
ATOM      6  C   LIG    1       -0.743   7.172  -0.069  0.00  0.00    +0.100 A 
ATOM      7  C   LIG    1       -0.632   5.801  -0.100  0.00  0.00    +0.020 A 
ATOM      8  C   LIG    1        0.627   5.202  -0.137  0.00  0.00    -0.000 A 
ATOM      9  C   LIG    1        1.777   5.993  -0.137  0.00  0.00    +0.020 A 
ATOM     10  C   LIG    1        1.669   7.365  -0.112  0.00  0.00    +0.050 A 
BRANCH   8  11
ATOM     11  C   LIG    1        0.745   3.725  -0.170  0.00  0.00    -0.060 A 
ATOM     12  C   LIG    1        2.002   3.123  -0.207  0.00  0.00    +0.030 A 
ATOM     13  C   LIG    1        2.106   1.748  -0.239  0.00  0.00    +0.010 A 
ATOM     14  C   LIG    1        0.965   0.965  -0.233  0.00  0.00    +0.020 A 
ATOM     15  C   LIG    1       -0.286   1.556  -0.202  0.00  0.00    +0.010 A 
ATOM     16  C   LIG    1       -0.401   2.931  -0.165  0.00  0.00    +0.030 A 
ENDBRANCH   8  11
ENDBRANCH   3   5
BRANCH   1  18
ATOM     17  C   LIG    1        2.353  12.450  -0.012  0.00  0.00    -0.200 A 
ATOM     18  C   LIG    1        1.290  11.582  -0.015  0.00  0.00    +0.050 A 
ATOM     19  S   LIG    1       -0.184  12.436   0.033  0.00  0.00    +0.310 S 
ATOM     20  C   LIG    1        0.628  13.992   0.050  0.00  0.00    -0.110 A 
ATOM     21  C   LIG    1        1.944  13.837   0.021  0.00  0.00    -0.030 A 
BRANCH  17  22
ATOM     22  C   LIG    1        3.752  12.018  -0.043  0.00  0.00    +0.540 C 
ATOM     23  O   LIG    1        4.295  11.791  -1.107  0.00  0.00    -0.490 OA
BRANCH  22  24
ATOM     24  O   LIG    1        4.438  11.872   1.109  0.00  0.00    -0.350 OA
BRANCH  24  26
ATOM     25  C   LIG    1        6.430  11.332   2.402  0.00  0.00    +0.070 C 
ATOM     26  C   LIG    1        5.821  11.441   1.003  0.00  0.00    +0.200 C 
ENDBRANCH  24  26
ENDBRANCH  22  24
ENDBRANCH  17  22
BRANCH  21  27
ATOM     27  C   LIG    1        2.915  14.989   0.027  0.00  0.00    +0.090 C 
BRANCH  27  28
ATOM     28  C   LIG    1        3.389  15.248   1.458  0.00  0.00    -0.010 C 
ATOM     29  C   LIG    1        2.210  15.728   2.307  0.00  0.00    +0.010 C 
ATOM     30  C   LIG    1        4.480  16.322   1.448  0.00  0.00    +0.020 C 
ENDBRANCH  27  28
ENDBRANCH  21  27
ENDBRANCH   1  18
TORSDOF 8
