REMARK  Name = ZINCrH00000tj18w.0
REMARK                            x       y       z     vdW  Elec       q    Type
REMARK                         _______ _______ _______ _____ _____    ______ ____
ROOT
ATOM      1  C   LIG    1      -10.611  -1.122  -0.064  0.00  0.00    +0.030 C 
ATOM      2  C   LIG    1       -9.387  -0.238  -0.310  0.00  0.00    -0.010 C 
ATOM      3  C   LIG    1       -8.207  -0.755   0.520  0.00  0.00    +0.020 C 
ATOM      4  C   LIG    1       -6.932  -0.034   0.077  0.00  0.00    +0.110 C 
ATOM      5  C   LIG    1       -7.188   1.467   0.084  0.00  0.00    -0.050 A 
ATOM      6  C   LIG    1       -8.409   2.004   0.097  0.00  0.00    -0.180 A 
ATOM      7  S   LIG    1       -8.337   3.758   0.100  0.00  0.00    +0.180 S 
ATOM      8  C   LIG    1       -6.582   3.763   0.086  0.00  0.00    +0.110 A 
ATOM      9  N   LIG    1       -5.701   4.772   0.083  0.00  0.00    -0.510 NA
ATOM     10  C   LIG    1       -4.409   4.540   0.070  0.00  0.00    +0.560 A 
ATOM     11  N   LIG    1       -3.915   3.315   0.060  0.00  0.00    -0.580 NA
ATOM     12  C   LIG    1       -4.708   2.256   0.062  0.00  0.00    +0.420 A 
ATOM     13  C   LIG    1       -6.111   2.451   0.071  0.00  0.00    -0.180 A 
ATOM     14  C   LIG    1       -9.697   1.200   0.109  0.00  0.00    +0.130 C 
ENDROOT
BRANCH  12  15
ATOM     15  O   LIG    1       -4.187   1.005   0.050  0.00  0.00    -0.270 OA
BRANCH  15  16
ATOM     16  C   LIG    1       -2.762   0.896   0.035  0.00  0.00    +0.270 C 
BRANCH  16  17
ATOM     17  C   LIG    1       -2.369  -0.559   0.022  0.00  0.00    +0.530 C 
ATOM     18  N   LIG    1       -1.067  -0.905   0.007  0.00  0.00    -0.550 N 
ATOM     19  C   LIG    1       -0.564  -2.281  -0.005  0.00  0.00    +0.290 C 
ATOM     20  C   LIG    1        0.968  -2.151  -0.019  0.00  0.00    +0.110 C 
ATOM     21  C   LIG    1        1.223  -0.660  -0.013  0.00  0.00    -0.130 A 
ATOM     22  C   LIG    1        2.404   0.057  -0.021  0.00  0.00    +0.060 A 
ATOM     23  C   LIG    1        2.377   1.439  -0.014  0.00  0.00    -0.010 A 
ATOM     24  C   LIG    1        1.164   2.103   0.002  0.00  0.00    +0.050 A 
ATOM     25  C   LIG    1       -0.017   1.392   0.010  0.00  0.00    -0.020 A 
ATOM     26  C   LIG    1        0.002  -0.004   0.002  0.00  0.00    +0.130 A 
ATOM     27  O   LIG    1       -3.226  -1.418   0.026  0.00  0.00    -0.490 OA
ENDBRANCH  16  17
ENDBRANCH  15  16
ENDBRANCH  12  15
TORSDOF 3
