REMARK  Name = ZINCtV000002M5LX.0
REMARK                            x       y       z     vdW  Elec       q    Type
REMARK                         _______ _______ _______ _____ _____    ______ ____
ROOT
ATOM      1  O   LIG    1        1.130   2.868   0.007  0.00  0.00    -0.500 OA
ATOM      2  C   LIG    1        1.147   1.655   0.000  0.00  0.00    +0.520 C 
ATOM      3  N   LIG    1       -0.011   0.966   0.007  0.00  0.00    -0.620 N 
ATOM      4  H   LIG    1        0.002  -0.004   0.002  0.00  0.00    +0.430 HD
ENDROOT
BRANCH   3   5
ATOM      5  C   LIG    1       -1.224   1.644   0.017  0.00  0.00    +0.270 A 
ATOM      6  N   LIG    1       -2.394   1.087   0.019  0.00  0.00    -0.500 NA
ATOM      7  C   LIG    1       -3.446   1.894   0.029  0.00  0.00    +0.130 A 
ATOM      8  C   LIG    1       -3.163   3.209   0.035  0.00  0.00    -0.110 A 
ATOM      9  S   LIG    1       -1.410   3.395   0.035  0.00  0.00    +0.210 S 
BRANCH   7  10
ATOM     10  C   LIG    1       -4.838   1.383   0.034  0.00  0.00    -0.030 A 
ATOM     11  C   LIG    1       -5.911   2.267  -0.061  0.00  0.00    +0.020 A 
ATOM     12  C   LIG    1       -7.199   1.779  -0.053  0.00  0.00    +0.000 A 
ATOM     13  C   LIG    1       -7.440   0.413   0.045  0.00  0.00    -0.070 A 
ATOM     14  C   LIG    1       -8.876  -0.044   0.053  0.00  0.00    +0.080 C 
ATOM     15  C   LIG    1       -8.967  -1.534  -0.268  0.00  0.00    +0.020 C 
ATOM     16  C   LIG    1       -8.004  -2.288   0.657  0.00  0.00    +0.020 C 
ATOM     17  C   LIG    1       -6.574  -1.957   0.235  0.00  0.00    +0.070 C 
ATOM     18  C   LIG    1       -6.382  -0.466   0.135  0.00  0.00    -0.080 A 
ATOM     19  C   LIG    1       -5.082   0.016   0.126  0.00  0.00    +0.040 A 
ENDBRANCH   7  10
ENDBRANCH   3   5
BRANCH   2  20
ATOM     20  C   LIG    1        2.462   0.920  -0.017  0.00  0.00    +0.090 C 
BRANCH  20  21
ATOM     21  C   LIG    1        3.611   1.930  -0.022  0.00  0.00    +0.070 C 
BRANCH  21  22
ATOM     22  C   LIG    1        4.946   1.183  -0.039  0.00  0.00    +0.200 C 
BRANCH  22  23
ATOM     23  O   LIG    1        6.020   2.126  -0.044  0.00  0.00    -0.310 OA
BRANCH  23  24
ATOM     24  C   LIG    1        7.283   1.624  -0.059  0.00  0.00    +0.150 A 
ATOM     25  C   LIG    1        7.484   0.251  -0.062  0.00  0.00    -0.070 A 
ATOM     26  C   LIG    1        8.768  -0.257  -0.082  0.00  0.00    +0.090 A 
ATOM     27  C   LIG    1        9.853   0.601  -0.088  0.00  0.00    -0.130 A 
ATOM     28  C   LIG    1        9.655   1.970  -0.079  0.00  0.00    +0.090 A 
ATOM     29 BR   LIG    1       11.610  -0.098  -0.108  0.00  0.00    -0.050 Br
ATOM     30  C   LIG    1        8.372   2.483  -0.065  0.00  0.00    -0.010 A 
ENDBRANCH  23  24
ENDBRANCH  22  23
ENDBRANCH  21  22
ENDBRANCH  20  21
ENDBRANCH   2  20
TORSDOF 7
