REMARK  Name = ZINCrH000004rLd9.0
REMARK                            x       y       z     vdW  Elec       q    Type
REMARK                         _______ _______ _______ _____ _____    ______ ____
ROOT
ATOM      1  C   LIG    1       -0.019   1.536   0.011  0.00  0.00    +0.250 C 
ATOM      2  C   LIG    1        1.468   1.960  -0.001  0.00  0.00    +0.050 C 
ATOM      3  C   LIG    1        2.191   0.705   0.550  0.00  0.00    +0.210 C 
ATOM      4  N   LIG    1        1.421  -0.418  -0.044  0.00  0.00    -0.450 N 
ATOM      5  C   LIG    1        0.002  -0.004   0.002  0.00  0.00    +0.230 C 
ENDROOT
BRANCH   4   6
ATOM      6  C   LIG    1        1.621  -1.593   0.673  0.00  0.00    +0.350 A 
ATOM      7  N   LIG    1        0.598  -2.172   1.282  0.00  0.00    -0.500 NA
ATOM      8  C   LIG    1        0.743  -3.290   1.968  0.00  0.00    +0.370 A 
ATOM      9  C   LIG    1        1.979  -3.894   2.085  0.00  0.00    -0.260 A 
ATOM     10  C   LIG    1        3.080  -3.316   1.466  0.00  0.00    +0.170 A 
ATOM     11  C   LIG    1        2.896  -2.147   0.749  0.00  0.00    -0.110 A 
ATOM     12 CL   LIG    1        4.237  -1.381  -0.044  0.00  0.00    -0.020 Cl
BRANCH   9  13
ATOM     13  C   LIG    1        2.132  -5.167   2.877  0.00  0.00    +0.520 C 
ATOM     14  F   LIG    1        3.176  -5.928   2.340  0.00  0.00    -0.170 F 
ATOM     15  F   LIG    1        0.942  -5.900   2.816  0.00  0.00    -0.170 F 
ATOM     16  F   LIG    1        2.420  -4.855   4.210  0.00  0.00    -0.170 F 
ENDBRANCH   9  13
ENDBRANCH   4   6
BRANCH   1  18
ATOM     17  C   LIG    1       -1.278   3.260  -1.164  0.00  0.00    +0.560 C 
ATOM     18  N   LIG    1       -0.701   2.042  -1.183  0.00  0.00    -0.720 N 
ATOM     19  H   LIG    1       -0.739   1.500  -1.987  0.00  0.00    +0.400 HD
ATOM     20  O   LIG    1       -1.231   3.939  -0.157  0.00  0.00    -0.520 OA
BRANCH  17  26
ATOM     21  C   LIG    1       -3.858   6.864  -3.477  0.00  0.00    +0.110 C 
ATOM     22  C   LIG    1       -3.209   5.504  -3.487  0.00  0.00    -0.120 A 
ATOM     23  C   LIG    1       -3.257   4.726  -4.626  0.00  0.00    +0.050 A 
ATOM     24  C   LIG    1       -2.664   3.474  -4.645  0.00  0.00    +0.000 A 
ATOM     25  C   LIG    1       -2.016   2.994  -3.528  0.00  0.00    +0.050 A 
ATOM     26  C   LIG    1       -1.965   3.769  -2.366  0.00  0.00    -0.170 A 
ATOM     27  C   LIG    1       -2.566   5.035  -2.351  0.00  0.00    +0.170 A 
BRANCH  27  28
ATOM     28  O   LIG    1       -2.518   5.799  -1.231  0.00  0.00    -0.470 OA
ATOM     29  H   LIG    1       -1.748   6.382  -1.186  0.00  0.00    +0.400 HD
ENDBRANCH  27  28
ENDBRANCH  17  26
ENDBRANCH   1  18
TORSDOF 5
