REMARK  Name = ZINCtV00001bB3Ci.0
REMARK                            x       y       z     vdW  Elec       q    Type
REMARK                         _______ _______ _______ _____ _____    ______ ____
ROOT
ATOM      1  C   LIG    1       -2.430   5.681   3.266  0.00  0.00    -0.190 A 
ATOM      2  C   LIG    1       -3.658   5.199   2.798  0.00  0.00    +0.150 A 
ATOM      3  C   LIG    1       -4.271   4.144   3.438  0.00  0.00    -0.140 A 
ATOM      4  C   LIG    1       -3.678   3.557   4.545  0.00  0.00    +0.130 A 
ATOM      5  C   LIG    1       -2.466   4.022   5.019  0.00  0.00    -0.070 A 
ATOM      6 BR   LIG    1       -5.930   3.495   2.805  0.00  0.00    -0.040 Br
ATOM      7  C   LIG    1       -1.831   5.079   4.385  0.00  0.00    +0.210 A 
ENDROOT
BRANCH   1   9
ATOM      8  O   LIG    1       -0.706   7.218   2.999  0.00  0.00    -0.400 OA
ATOM      9  C   LIG    1       -1.770   6.804   2.589  0.00  0.00    +0.400 C 
BRANCH   9  10
ATOM     10  C   LIG    1       -2.415   7.442   1.386  0.00  0.00    +0.130 C 
ATOM     11  O   LIG    1       -1.565   7.841   0.308  0.00  0.00    -0.300 OA
ATOM     12  C   LIG    1       -2.360   6.680   0.060  0.00  0.00    +0.250 C 
BRANCH  12  13
ATOM     13  C   LIG    1       -1.666   5.343   0.047  0.00  0.00    +0.020 A 
ATOM     14  C   LIG    1       -2.288   4.156   0.046  0.00  0.00    -0.010 A 
ATOM     15  C   LIG    1       -1.229   3.139   0.031  0.00  0.00    -0.130 A 
ATOM     16  C   LIG    1       -1.216   1.745   0.017  0.00  0.00    +0.060 A 
ATOM     17  C   LIG    1       -0.013   1.076   0.008  0.00  0.00    -0.010 A 
ATOM     18  C   LIG    1        1.181   1.783   0.000  0.00  0.00    +0.050 A 
ATOM     19  C   LIG    1        1.182   3.161   0.008  0.00  0.00    +0.020 A 
ATOM     20  C   LIG    1       -0.020   3.856   0.023  0.00  0.00    +0.060 A 
ATOM     21  O   LIG    1       -0.333   5.168   0.033  0.00  0.00    -0.180 OA
ENDBRANCH  12  13
ENDBRANCH   9  10
ENDBRANCH   1   9
BRANCH   7  22
ATOM     22  O   LIG    1       -0.639   5.532   4.846  0.00  0.00    -0.270 OA
BRANCH  22  23
ATOM     23  C   LIG    1       -0.091   4.871   5.988  0.00  0.00    +0.250 C 
BRANCH  23  24
ATOM     24  C   LIG    1        1.226   5.507   6.353  0.00  0.00    -0.100 A 
ATOM     25  C   LIG    1        2.401   5.027   5.805  0.00  0.00    +0.030 A 
ATOM     26  C   LIG    1        3.608   5.613   6.136  0.00  0.00    +0.010 A 
ATOM     27  C   LIG    1        3.641   6.673   7.023  0.00  0.00    +0.020 A 
ATOM     28  C   LIG    1        2.467   7.150   7.575  0.00  0.00    +0.010 A 
ATOM     29  C   LIG    1        1.259   6.567   7.239  0.00  0.00    +0.030 A 
ENDBRANCH  23  24
ENDBRANCH  22  23
ENDBRANCH   7  22
TORSDOF 6
