REMARK  Name = ZINCpk00000e8W6N.0
REMARK                            x       y       z     vdW  Elec       q    Type
REMARK                         _______ _______ _______ _____ _____    ______ ____
ROOT
ATOM      1  C   LIG    1       -0.930  -1.922   1.920  0.00  0.00    +0.040 C 
ENDROOT
BRANCH   1   2
ATOM      2  C   LIG    1        0.432  -1.300   2.087  0.00  0.00    +0.520 C 
ATOM      3  N   LIG    1        0.862  -0.373   1.208  0.00  0.00    -0.610 N 
ATOM      4  C   LIG    1        0.020   0.048   0.077  0.00  0.00    +0.250 C 
ATOM      5  C   LIG    1       -0.048   1.579   0.066  0.00  0.00    +0.220 C 
ATOM      6  O   LIG    1        1.278   2.112   0.104  0.00  0.00    -0.360 OA
ATOM      7  C   LIG    1        2.010   1.771   1.282  0.00  0.00    +0.120 C 
ATOM      8  C   LIG    1        3.381   2.449   1.244  0.00  0.00    +0.250 C 
ATOM      9  O   LIG    1        4.156   1.940   0.156  0.00  0.00    -0.370 OA
ATOM     10  C   LIG    1        4.406   0.535   0.233  0.00  0.00    +0.210 C 
ATOM     11  C   LIG    1        3.075  -0.219   0.191  0.00  0.00    +0.000 C 
ATOM     12  C   LIG    1        2.189   0.250   1.349  0.00  0.00    +0.220 C 
ATOM     13  O   LIG    1        1.142  -1.633   3.012  0.00  0.00    -0.540 OA
ENDBRANCH   1   2
BRANCH   1  14
ATOM     14  C   LIG    1       -1.169  -2.934   3.042  0.00  0.00    +0.300 C 
BRANCH  14  17
ATOM     15  C   LIG    1       -1.465  -5.204   1.368  0.00  0.00    +0.090 C 
ATOM     16  C   LIG    1       -2.659  -4.587   2.049  0.00  0.00    +0.510 C 
ATOM     17  N   LIG    1       -2.494  -3.539   2.881  0.00  0.00    -0.610 N 
ATOM     18  O   LIG    1       -3.769  -5.034   1.849  0.00  0.00    -0.540 OA
BRANCH  17  19
ATOM     19  C   LIG    1       -3.639  -3.005   3.623  0.00  0.00    +0.330 C 
BRANCH  19  20
ATOM     20  C   LIG    1       -4.377  -2.014   2.761  0.00  0.00    -0.110 A 
ATOM     21  C   LIG    1       -4.032  -0.676   2.796  0.00  0.00    +0.010 A 
ATOM     22  C   LIG    1       -4.707   0.233   2.002  0.00  0.00    -0.010 A 
ATOM     23  C   LIG    1       -5.733  -0.195   1.181  0.00  0.00    +0.010 A 
ATOM     24  C   LIG    1       -6.082  -1.532   1.150  0.00  0.00    +0.000 A 
ATOM     25  C   LIG    1       -5.404  -2.442   1.940  0.00  0.00    +0.040 A 
ENDBRANCH  19  20
ENDBRANCH  17  19
ENDBRANCH  14  17
ENDBRANCH   1  14
TORSDOF 5
