REMARK  Name = ZINCpk00000ebhZ4.0
REMARK                            x       y       z     vdW  Elec       q    Type
REMARK                         _______ _______ _______ _____ _____    ______ ____
ROOT
ATOM      1  C   LIG    1       -0.870   2.360  -0.335  0.00  0.00    +0.610 C 
ATOM      2  N   LIG    1        0.144   1.524  -0.034  0.00  0.00    -0.600 N 
ATOM      3  C   LIG    1        1.540   1.924   0.221  0.00  0.00    +0.280 C 
ATOM      4  C   LIG    1        2.380   0.665  -0.108  0.00  0.00    +0.030 C 
ATOM      5  C   LIG    1        1.455  -0.469   0.408  0.00  0.00    +0.050 C 
ATOM      6  C   LIG    1        0.043   0.063   0.086  0.00  0.00    +0.230 C 
ATOM      7  O   LIG    1       -1.962   1.911  -0.623  0.00  0.00    -0.520 OA
ENDROOT
BRANCH   1  11
ATOM      8  C   LIG    1        2.149   5.968   0.403  0.00  0.00    +0.360 C 
ATOM      9  N   LIG    1        0.789   5.563   0.039  0.00  0.00    -0.370 N 
ATOM     10  N   LIG    1        0.520   4.313  -0.003  0.00  0.00    -0.190 NA
ATOM     11  C   LIG    1       -0.654   3.820  -0.313  0.00  0.00    +0.060 A 
ATOM     12  C   LIG    1       -1.754   4.740  -0.645  0.00  0.00    -0.040 A 
ATOM     13  C   LIG    1       -3.029   4.300  -0.979  0.00  0.00    +0.070 A 
ATOM     14  C   LIG    1       -4.010   5.225  -1.272  0.00  0.00    +0.050 A 
ATOM     15  C   LIG    1       -3.738   6.586  -1.232  0.00  0.00    +0.030 A 
ATOM     16  C   LIG    1       -2.481   7.044  -0.897  0.00  0.00    +0.090 A 
ATOM     17  C   LIG    1       -1.478   6.127  -0.598  0.00  0.00    -0.140 A 
ATOM     18  C   LIG    1       -0.113   6.528  -0.233  0.00  0.00    +0.510 A 
ATOM     19  O   LIG    1        0.197   7.704  -0.177  0.00  0.00    -0.500 OA
ENDBRANCH   1  11
BRANCH   6  20
ATOM     20  C   LIG    1       -0.920  -0.300   1.218  0.00  0.00    +0.320 C 
BRANCH  20  21
ATOM     21  N   LIG    1       -1.040  -1.758   1.309  0.00  0.00    -0.370 N 
ATOM     22  C   LIG    1       -0.807  -2.506   2.408  0.00  0.00    +0.220 A 
ATOM     23  C   LIG    1       -1.028  -3.800   2.079  0.00  0.00    -0.120 A 
ATOM     24  C   LIG    1       -1.409  -3.844   0.734  0.00  0.00    +0.220 A 
ATOM     25  N   LIG    1       -1.422  -2.619   0.273  0.00  0.00    -0.290 NA
ENDBRANCH  20  21
ENDBRANCH   6  20
TORSDOF 3
