REMARK  Name = ZINCpe000000YKfw.0
REMARK                            x       y       z     vdW  Elec       q    Type
REMARK                         _______ _______ _______ _____ _____    ______ ____
ROOT
ATOM      1  N   LIG    1        3.046   1.012   1.339  0.00  0.00    -0.730 N 
ATOM      2  H   LIG    1        2.565   1.427   2.072  0.00  0.00    +0.400 HD
ATOM      3  C   LIG    1        4.226   0.401   1.568  0.00  0.00    +0.560 C 
ATOM      4  O   LIG    1        4.828  -0.120   0.649  0.00  0.00    -0.510 OA
ENDROOT
BRANCH   3   5
ATOM      5  C   LIG    1        4.786   0.364   2.933  0.00  0.00    -0.140 A 
ATOM      6  C   LIG    1        4.098   0.968   3.989  0.00  0.00    +0.080 A 
ATOM      7  C   LIG    1        4.621   0.928   5.262  0.00  0.00    +0.010 A 
ATOM      8  C   LIG    1        5.838   0.297   5.496  0.00  0.00    +0.160 A 
ATOM      9  C   LIG    1        6.528  -0.300   4.447  0.00  0.00    +0.010 A 
ATOM     10  C   LIG    1        6.008  -0.268   3.172  0.00  0.00    +0.120 A 
BRANCH   8  11
ATOM     11  N   LIG    1        6.369   0.263   6.790  0.00  0.00    -0.440 N 
ATOM     12  C   LIG    1        7.539  -0.316   7.184  0.00  0.00    +0.390 A 
ATOM     13  N   LIG    1        7.656  -0.114   8.468  0.00  0.00    -0.290 NA
ATOM     14  N   LIG    1        6.639   0.540   8.903  0.00  0.00    -0.290 NA
ATOM     15  C   LIG    1        5.821   0.796   7.919  0.00  0.00    +0.380 A 
ENDBRANCH   8  11
ENDBRANCH   3   5
BRANCH   1  16
ATOM     16  C   LIG    1        2.490   1.047  -0.016  0.00  0.00    +0.340 C 
BRANCH  16  22
ATOM     17  C   LIG    1        1.156   3.166   0.008  0.00  0.00    -0.660 A 
ATOM     18  C   LIG    1       -0.050   3.840   0.023  0.00  0.00    +0.130 A 
ATOM     19  C   LIG    1       -1.238   3.133   0.029  0.00  0.00    +0.010 A 
ATOM     20  C   LIG    1       -1.219   1.751   0.017  0.00  0.00    +0.080 A 
ATOM     21  C   LIG    1       -0.013   1.076   0.008  0.00  0.00    +0.020 A 
ATOM     22  C   LIG    1        1.175   1.783   0.000  0.00  0.00    -0.010 A 
BRANCH  17  23
ATOM     23  S   LIG    1        2.670   4.067  -0.000  0.00  0.00    +2.700 S 
ATOM     24  O   LIG    1        2.318   5.443   0.045  0.00  0.00    -0.960 OA
ATOM     25  O   LIG    1        3.467   3.503  -1.032  0.00  0.00    -0.950 OA
BRANCH  23  26
ATOM     26  N   LIG    1        3.446   3.736   1.425  0.00  0.00    -1.250 NA
ATOM     27  H   LIG    1        4.306   4.141   1.614  0.00  0.00    +0.420 HD
ATOM     28  H   LIG    1        3.039   3.137   2.070  0.00  0.00    +0.410 HD
ENDBRANCH  23  26
ENDBRANCH  17  23
ENDBRANCH  16  22
ENDBRANCH   1  16
TORSDOF 6
