REMARK  Name = ZINCrH000004tLyG.0
REMARK                            x       y       z     vdW  Elec       q    Type
REMARK                         _______ _______ _______ _____ _____    ______ ____
ROOT
ATOM      1  O   LIG    1       -1.257   9.322  -2.264  0.00  0.00    -0.490 OA
ATOM      2  C   LIG    1       -0.850  10.074  -1.403  0.00  0.00    +0.520 C 
ATOM      3  N   LIG    1       -0.841  11.405  -1.620  0.00  0.00    -0.670 N 
ATOM      4  H   LIG    1       -0.579  12.010  -0.909  0.00  0.00    +0.420 HD
ENDROOT
BRANCH   3   5
ATOM      5  C   LIG    1       -1.211  11.913  -2.872  0.00  0.00    +0.170 A 
ATOM      6  C   LIG    1       -2.208  11.288  -3.608  0.00  0.00    +0.060 A 
ATOM      7  C   LIG    1       -2.574  11.789  -4.843  0.00  0.00    +0.090 A 
ATOM      8  C   LIG    1       -1.947  12.915  -5.351  0.00  0.00    +0.010 A 
ATOM      9  O   LIG    1       -2.120  13.596  -6.522  0.00  0.00    -0.280 OA
ATOM     10  C   LIG    1       -0.937  14.402  -6.676  0.00  0.00    +0.570 C 
ATOM     11  O   LIG    1       -0.491  14.618  -5.324  0.00  0.00    -0.290 OA
ATOM     12  F   LIG    1       -1.248  15.618  -7.294  0.00  0.00    -0.110 F 
ATOM     13  F   LIG    1        0.035  13.713  -7.410  0.00  0.00    -0.150 F 
ATOM     14  C   LIG    1       -0.945  13.544  -4.614  0.00  0.00    +0.050 A 
ATOM     15  C   LIG    1       -0.583  13.045  -3.375  0.00  0.00    +0.040 A 
ENDBRANCH   3   5
BRANCH   2  16
ATOM     16  C   LIG    1       -0.354   9.521  -0.092  0.00  0.00    +0.220 C 
BRANCH  16  17
ATOM     17  N   LIG    1       -0.467   8.056  -0.105  0.00  0.00    -0.520 NA
ATOM     18  C   LIG    1        0.440   7.468  -1.098  0.00  0.00    +0.230 C 
ATOM     19  C   LIG    1        0.409   5.969  -1.006  0.00  0.00    -0.030 C 
ATOM     20  C   LIG    1       -0.066   5.324   0.036  0.00  0.00    -0.080 C 
ATOM     21  C   LIG    1       -0.639   6.028   1.234  0.00  0.00    +0.090 C 
ATOM     22  C   LIG    1       -0.197   7.495   1.229  0.00  0.00    +0.170 C 
BRANCH  20  23
ATOM     23  C   LIG    1       -0.043   3.846   0.026  0.00  0.00    -0.050 A 
ATOM     24  C   LIG    1        1.175   3.165   0.020  0.00  0.00    +0.010 A 
ATOM     25  C   LIG    1        1.191   1.785   0.011  0.00  0.00    +0.000 A 
ATOM     26  C   LIG    1        0.002   1.077   0.010  0.00  0.00    +0.000 A 
ATOM     27  C   LIG    1       -1.208   1.747   0.011  0.00  0.00    +0.000 A 
ATOM     28  C   LIG    1       -1.238   3.126   0.025  0.00  0.00    +0.010 A 
ENDBRANCH  20  23
ENDBRANCH  16  17
ENDBRANCH   2  16
TORSDOF 4
