REMARK  Name = ZINCrH00000No50K.0
REMARK                            x       y       z     vdW  Elec       q    Type
REMARK                         _______ _______ _______ _____ _____    ______ ____
ROOT
ATOM      1  C   LIG    1       -2.414   0.776  -0.529  0.00  0.00    +0.270 C 
ATOM      2  C   LIG    1       -3.629   1.208   0.319  0.00  0.00    +0.090 C 
ATOM      3  C   LIG    1       -3.043   1.734   1.611  0.00  0.00    -0.090 A 
ATOM      4  C   LIG    1       -3.638   1.958   2.841  0.00  0.00    +0.010 A 
ATOM      5  C   LIG    1       -2.893   2.451   3.895  0.00  0.00    +0.020 A 
ATOM      6  C   LIG    1       -1.549   2.723   3.721  0.00  0.00    +0.000 A 
ATOM      7  C   LIG    1       -0.954   2.501   2.495  0.00  0.00    +0.040 A 
ATOM      8  C   LIG    1       -1.698   2.006   1.438  0.00  0.00    -0.110 A 
ATOM      9  C   LIG    1       -1.290   1.681   0.017  0.00  0.00    +0.290 C 
ENDROOT
BRANCH   9  10
ATOM     10  N   LIG    1       -0.011   0.966   0.007  0.00  0.00    -0.720 N 
ATOM     11  H   LIG    1        0.002  -0.004   0.002  0.00  0.00    +0.400 HD
ATOM     12  C   LIG    1        1.147   1.655   0.000  0.00  0.00    +0.520 C 
ATOM     13  O   LIG    1        1.130   2.868   0.007  0.00  0.00    -0.530 OA
BRANCH  12  14
ATOM     14  C   LIG    1        2.462   0.920  -0.017  0.00  0.00    +0.080 C 
BRANCH  14  15
ATOM     15  C   LIG    1        3.611   1.930  -0.022  0.00  0.00    -0.010 C 
ATOM     16  C   LIG    1        4.552   1.937   1.185  0.00  0.00    +0.010 C 
ATOM     17  C   LIG    1        5.033   1.381  -0.157  0.00  0.00    -0.130 C 
ATOM     18  C   LIG    1        6.041   2.218  -0.947  0.00  0.00    +0.060 C 
ATOM     19  C   LIG    1        5.197  -0.135  -0.276  0.00  0.00    +0.060 C 
ENDBRANCH  14  15
ENDBRANCH  12  14
ENDBRANCH   9  10
BRANCH   1  20
ATOM     20  N   LIG    1       -2.651   1.040  -1.951  0.00  0.00    -0.690 N 
ATOM     21  H   LIG    1       -2.423   1.904  -2.328  0.00  0.00    +0.420 HD
BRANCH  20  27
ATOM     22  C   LIG    1       -4.374  -3.413  -2.353  0.00  0.00    +0.140 C 
ATOM     23  C   LIG    1       -4.030  -2.079  -2.966  0.00  0.00    +0.220 A 
ATOM     24  C   LIG    1       -4.260  -1.845  -4.312  0.00  0.00    -0.150 A 
ATOM     25  C   LIG    1       -3.929  -0.605  -4.835  0.00  0.00    +0.220 A 
ATOM     26  N   LIG    1       -3.407   0.313  -4.039  0.00  0.00    -0.570 NA
ATOM     27  C   LIG    1       -3.199   0.057  -2.756  0.00  0.00    +0.570 A 
ATOM     28  C   LIG    1       -4.162  -0.306  -6.294  0.00  0.00    +0.140 C 
ATOM     29  N   LIG    1       -3.499  -1.120  -2.225  0.00  0.00    -0.570 NA
ENDBRANCH  20  27
ENDBRANCH   1  20
TORSDOF 5
