REMARK  Name = ZINCrD0000073Hzb.0
REMARK                            x       y       z     vdW  Elec       q    Type
REMARK                         _______ _______ _______ _____ _____    ______ ____
ROOT
ATOM      1  C   LIG    1        4.699   5.685  -0.014  0.00  0.00    +0.520 C 
ATOM      2  N   LIG    1        5.757   6.521  -0.019  0.00  0.00    -0.610 N 
ATOM      3  C   LIG    1        7.128   5.993  -0.029  0.00  0.00    +0.270 C 
ATOM      4  C   LIG    1        7.887   6.625  -1.205  0.00  0.00    +0.020 C 
ATOM      5  C   LIG    1        7.801   8.149  -1.100  0.00  0.00    +0.000 C 
ATOM      6  C   LIG    1        6.337   8.586  -1.181  0.00  0.00    +0.020 C 
ATOM      7  C   LIG    1        5.560   7.977  -0.010  0.00  0.00    +0.280 C 
ATOM      8  O   LIG    1        3.572   6.133  -0.001  0.00  0.00    -0.520 OA
ENDROOT
BRANCH   1   9
ATOM      9  C   LIG    1        4.917   4.194  -0.023  0.00  0.00    +0.250 C 
BRANCH   9  10
ATOM     10  O   LIG    1        3.633   3.517  -0.015  0.00  0.00    -0.330 OA
BRANCH  10  11
ATOM     11  C   LIG    1        3.651   2.170  -0.022  0.00  0.00    +0.510 C 
ATOM     12  O   LIG    1        4.712   1.577  -0.034  0.00  0.00    -0.490 OA
BRANCH  11  18
ATOM     13  C   LIG    1        2.400   0.013  -0.021  0.00  0.00    +0.190 A 
ATOM     14  C   LIG    1        1.202  -0.687  -0.013  0.00  0.00    -0.090 A 
ATOM     15  C   LIG    1        0.002  -0.004   0.002  0.00  0.00    +0.090 A 
ATOM     16  C   LIG    1       -0.017   1.381   0.010  0.00  0.00    -0.030 A 
ATOM     17  C   LIG    1        1.163   2.092   0.002  0.00  0.00    +0.130 A 
ATOM     18  C   LIG    1        2.385   1.415  -0.013  0.00  0.00    -0.170 A 
BRANCH  13  20
ATOM     19  C   LIG    1        3.516  -2.084  -0.043  0.00  0.00    +0.250 C 
ATOM     20  O   LIG    1        3.580  -0.656  -0.036  0.00  0.00    -0.290 OA
ENDBRANCH  13  20
ENDBRANCH  11  18
ENDBRANCH  10  11
ENDBRANCH   9  10
ENDBRANCH   1   9
BRANCH   5  21
ATOM     21  C   LIG    1        8.587   8.784  -2.249  0.00  0.00    +0.070 C 
BRANCH  21  22
ATOM     22  C   LIG    1       10.050   8.455  -2.100  0.00  0.00    -0.080 A 
ATOM     23  C   LIG    1       10.878   9.296  -1.382  0.00  0.00    +0.000 A 
ATOM     24  C   LIG    1       12.219   8.991  -1.241  0.00  0.00    +0.000 A 
ATOM     25  C   LIG    1       12.734   7.850  -1.827  0.00  0.00    +0.000 A 
ATOM     26  C   LIG    1       11.906   7.011  -2.549  0.00  0.00    +0.000 A 
ATOM     27  C   LIG    1       10.564   7.313  -2.686  0.00  0.00    +0.000 A 
ENDBRANCH  21  22
ENDBRANCH   5  21
TORSDOF 7
