REMARK  Name = ZINCkj000005kpKT.0
REMARK                            x       y       z     vdW  Elec       q    Type
REMARK                         _______ _______ _______ _____ _____    ______ ____
ROOT
ATOM      1  N   LIG    1        1.224  -2.923  -1.607  0.00  0.00    -1.110 NA
ATOM      2  H   LIG    1        0.466  -3.414  -1.960  0.00  0.00    +0.420 HD
ENDROOT
BRANCH   1   3
ATOM      3  S   LIG    1        1.233  -2.440  -0.022  0.00  0.00    +2.700 S 
ATOM      4  O   LIG    1       -0.006  -2.861   0.532  0.00  0.00    -0.940 OA
ATOM      5  O   LIG    1        2.493  -2.827   0.508  0.00  0.00    -0.940 OA
BRANCH   3  10
ATOM      6  C   LIG    1        1.153   3.594   0.010  0.00  0.00    +0.110 C 
ATOM      7  C   LIG    1        1.173   2.087   0.002  0.00  0.00    -0.010 A 
ATOM      8  C   LIG    1        2.378   1.411  -0.013  0.00  0.00    +0.020 A 
ATOM      9  C   LIG    1        2.396   0.029  -0.021  0.00  0.00    +0.130 A 
ATOM     10  C   LIG    1        1.209  -0.679  -0.013  0.00  0.00    -0.680 A 
ATOM     11  C   LIG    1        0.002  -0.004   0.002  0.00  0.00    +0.150 A 
ATOM     12  C   LIG    1       -0.017   1.379   0.010  0.00  0.00    -0.060 A 
ATOM     13 CL   LIG    1       -1.532   2.227   0.021  0.00  0.00    -0.050 Cl
ENDBRANCH   3  10
ENDBRANCH   1   3
BRANCH   1  14
ATOM     14  C   LIG    1        2.361  -2.607  -2.474  0.00  0.00    +0.310 C 
BRANCH  14  15
ATOM     15  C   LIG    1        2.287  -3.461  -3.742  0.00  0.00    +0.160 C 
ATOM     16  C   LIG    1        3.484  -3.181  -4.620  0.00  0.00    +0.260 C 
ATOM     17  N   LIG    1        3.144  -3.267  -6.050  0.00  0.00    -0.510 N 
ATOM     18  C   LIG    1        2.249  -4.405  -6.354  0.00  0.00    +0.260 C 
ATOM     19  C   LIG    1        2.628  -5.675  -5.630  0.00  0.00    +0.030 C 
ATOM     20  C   LIG    1        1.836  -5.749  -4.301  0.00  0.00    +0.240 C 
ATOM     21  H   LIG    1        2.687  -2.411  -6.327  0.00  0.00    +0.430 HD
ATOM     22  H   LIG    1        3.994  -3.370  -6.583  0.00  0.00    +0.430 HD
ATOM     23  O   LIG    1        2.328  -4.853  -3.396  0.00  0.00    -0.350 OA
ENDBRANCH  14  15
ENDBRANCH   1  14
TORSDOF 4
