REMARK  Name = ZINCpe00000VUBUG.0
REMARK                            x       y       z     vdW  Elec       q    Type
REMARK                         _______ _______ _______ _____ _____    ______ ____
ROOT
ATOM      1  O   LIG    1       -1.329  -0.104  -1.770  0.00  0.00    -0.520 OA
ATOM      2  C   LIG    1       -0.686  -0.695  -0.928  0.00  0.00    +0.510 C 
ATOM      3  N   LIG    1        0.002  -0.004   0.002  0.00  0.00    -0.610 N 
ATOM      4  C   LIG    1        0.786  -0.706   1.028  0.00  0.00    +0.270 C 
ATOM      5  C   LIG    1        2.220  -0.169   1.005  0.00  0.00    +0.040 C 
ATOM      6  C   LIG    1        2.194   1.353   1.166  0.00  0.00    +0.030 C 
ATOM      7  C   LIG    1        1.426   1.978  -0.001  0.00  0.00    +0.220 C 
ATOM      8  C   LIG    1       -0.018   1.465   0.010  0.00  0.00    +0.290 C 
ENDROOT
BRANCH   7   9
ATOM      9  N   LIG    1        1.428   3.436   0.137  0.00  0.00    -0.460 N 
ATOM     10  C   LIG    1        1.945   4.336  -0.755  0.00  0.00    +0.120 A 
ATOM     11  C   LIG    1        1.732   5.562  -0.240  0.00  0.00    +0.140 A 
ATOM     12  N   LIG    1        1.110   5.415   0.939  0.00  0.00    -0.490 NA
ATOM     13  C   LIG    1        0.925   4.144   1.172  0.00  0.00    +0.380 A 
ENDBRANCH   7   9
BRANCH   2  14
ATOM     14  C   LIG    1       -0.655  -2.202  -0.923  0.00  0.00    +0.370 C 
BRANCH  14  15
ATOM     15  N   LIG    1       -1.476  -2.710  -2.026  0.00  0.00    -0.450 N 
ATOM     16  N   LIG    1       -2.834  -2.970  -1.823  0.00  0.00    +0.090 NA
ATOM     17  N   LIG    1       -3.605  -3.415  -2.747  0.00  0.00    -0.190 NA
ATOM     18  C   LIG    1       -3.153  -3.669  -4.000  0.00  0.00    +0.060 A 
ATOM     19  C   LIG    1       -4.004  -4.153  -4.996  0.00  0.00    +0.080 A 
ATOM     20  C   LIG    1       -3.509  -4.399  -6.257  0.00  0.00    +0.070 A 
ATOM     21  C   LIG    1       -2.172  -4.171  -6.553  0.00  0.00    +0.040 A 
ATOM     22  C   LIG    1       -1.313  -3.694  -5.588  0.00  0.00    +0.100 A 
ATOM     23  C   LIG    1       -1.793  -3.439  -4.305  0.00  0.00    -0.150 A 
ATOM     24  C   LIG    1       -0.918  -2.923  -3.241  0.00  0.00    +0.540 A 
ATOM     25  O   LIG    1        0.261  -2.700  -3.444  0.00  0.00    -0.500 OA
ENDBRANCH  14  15
ENDBRANCH   2  14
TORSDOF 3
