REMARK  Name = ZINCtV000002HVtI.0
REMARK                            x       y       z     vdW  Elec       q    Type
REMARK                         _______ _______ _______ _____ _____    ______ ____
ROOT
ATOM      1  S   LIG    1       -2.780   1.227   0.768  0.00  0.00    -0.140 S 
ENDROOT
BRANCH   1   2
ATOM      2  C   LIG    1       -1.458   2.032  -0.178  0.00  0.00    +0.010 C 
ATOM      3  C   LIG    1       -1.954   2.331  -1.595  0.00  0.00    +0.080 C 
BRANCH   2   6
ATOM      4  N   LIG    1        0.969   1.633  -0.436  0.00  0.00    -0.660 N 
ATOM      5  H   LIG    1        1.077   2.581  -0.609  0.00  0.00    +0.410 HD
ATOM      6  C   LIG    1       -0.262   1.118  -0.247  0.00  0.00    +0.530 C 
ATOM      7  O   LIG    1       -0.408  -0.081  -0.138  0.00  0.00    -0.490 OA
BRANCH   4  12
ATOM      8  C   LIG    1        5.520  -1.748  -0.224  0.00  0.00    +0.100 C 
ATOM      9  C   LIG    1        4.311  -0.850  -0.280  0.00  0.00    -0.100 A 
ATOM     10  C   LIG    1        3.154  -1.208   0.386  0.00  0.00    +0.030 A 
ATOM     11  C   LIG    1        2.044  -0.387   0.336  0.00  0.00    +0.030 A 
ATOM     12  C   LIG    1        2.092   0.799  -0.384  0.00  0.00    +0.140 A 
ATOM     13  C   LIG    1        3.254   1.153  -1.057  0.00  0.00    -0.110 A 
ATOM     14  C   LIG    1        3.307   2.436  -1.846  0.00  0.00    +0.080 C 
ATOM     15  C   LIG    1        4.362   0.331  -0.999  0.00  0.00    +0.030 A 
ENDBRANCH   4  12
ENDBRANCH   2   6
ENDBRANCH   1   2
BRANCH   1  16
ATOM     16  C   LIG    1       -4.051   2.517   0.871  0.00  0.00    +0.120 C 
BRANCH  16  17
ATOM     17  C   LIG    1       -3.528   3.675   1.682  0.00  0.00    -0.100 A 
ATOM     18  C   LIG    1       -3.237   3.503   3.023  0.00  0.00    +0.080 A 
ATOM     19  C   LIG    1       -2.752   4.562   3.766  0.00  0.00    -0.010 A 
ATOM     20  C   LIG    1       -2.567   5.798   3.171  0.00  0.00    +0.100 A 
ATOM     21  C   LIG    1       -2.864   5.971   1.829  0.00  0.00    -0.010 A 
ATOM     22  F   LIG    1       -2.099   6.836   3.898  0.00  0.00    -0.140 F 
ATOM     23  C   LIG    1       -3.344   4.908   1.086  0.00  0.00    +0.050 A 
ENDBRANCH  16  17
BRANCH  16  24
ATOM     24  C   LIG    1       -5.283   1.957   1.534  0.00  0.00    -0.080 A 
ATOM     25  C   LIG    1       -5.159   1.030   2.552  0.00  0.00    +0.060 A 
ATOM     26  C   LIG    1       -6.288   0.519   3.164  0.00  0.00    -0.010 A 
ATOM     27  C   LIG    1       -7.544   0.927   2.749  0.00  0.00    +0.110 A 
ATOM     28  C   LIG    1       -7.668   1.851   1.725  0.00  0.00    -0.010 A 
ATOM     29  F   LIG    1       -8.649   0.424   3.342  0.00  0.00    -0.140 F 
ATOM     30  C   LIG    1       -6.537   2.365   1.119  0.00  0.00    +0.070 A 
ENDBRANCH  16  24
ENDBRANCH   1  16
TORSDOF 6
