REMARK  Name = ZINCrH00000luCro.0
REMARK                            x       y       z     vdW  Elec       q    Type
REMARK                         _______ _______ _______ _____ _____    ______ ____
ROOT
ATOM      1  C   LIG    1       -2.011   5.913   0.118  0.00  0.00    -0.260 C 
ATOM      2  C   LIG    1       -2.877   6.712  -0.598  0.00  0.00    +0.290 C 
ATOM      3  N   LIG    1       -3.864   6.151  -1.347  0.00  0.00    -0.710 N 
ATOM      4  H   LIG    1       -3.911   6.310  -2.303  0.00  0.00    +0.420 HD
ATOM      5  C   LIG    1       -4.816   5.333  -0.708  0.00  0.00    +0.100 A 
ATOM      6  C   LIG    1       -6.145   5.716  -0.709  0.00  0.00    +0.020 A 
ATOM      7  C   LIG    1       -7.083   4.975  -0.008  0.00  0.00    +0.010 A 
ATOM      8  C   LIG    1       -6.695   3.851   0.694  0.00  0.00    +0.020 A 
ATOM      9  C   LIG    1       -5.373   3.447   0.686  0.00  0.00    +0.040 A 
ATOM     10  C   LIG    1       -4.422   4.176  -0.030  0.00  0.00    +0.130 A 
ATOM     11  N   LIG    1       -3.130   3.736  -0.059  0.00  0.00    -0.500 NA
ATOM     12  C   LIG    1       -2.061   4.454   0.010  0.00  0.00    +0.480 C 
ENDROOT
BRANCH  12  13
ATOM     13  N   LIG    1       -0.854   3.785  -0.016  0.00  0.00    -0.650 N 
ATOM     14  H   LIG    1       -0.022   4.282   0.033  0.00  0.00    +0.410 HD
ATOM     15  C   LIG    1       -0.830   2.441  -0.109  0.00  0.00    +0.580 C 
ATOM     16  O   LIG    1       -1.872   1.817  -0.170  0.00  0.00    -0.460 OA
BRANCH  15  17
ATOM     17  C   LIG    1        0.459   1.727  -0.136  0.00  0.00    -0.250 A 
ATOM     18  C   LIG    1        0.654   0.379  -0.227  0.00  0.00    +0.090 A 
ATOM     19  O   LIG    1        1.969   0.143  -0.226  0.00  0.00    -0.170 OA
ATOM     20  C   LIG    1        2.662   1.289  -0.139  0.00  0.00    +0.180 A 
ATOM     21  C   LIG    1       -0.430  -0.665  -0.311  0.00  0.00    +0.190 C 
ATOM     22  C   LIG    1        1.804   2.318  -0.079  0.00  0.00    -0.030 A 
ENDBRANCH  15  17
ENDBRANCH  12  13
BRANCH   1  23
ATOM     23  C   LIG    1       -1.021   6.532   0.999  0.00  0.00    +0.520 C 
ATOM     24  O   LIG    1       -1.217   6.576   2.198  0.00  0.00    -0.480 OA
BRANCH  23  25
ATOM     25  O   LIG    1        0.110   7.054   0.480  0.00  0.00    -0.350 OA
BRANCH  25  27
ATOM     26  C   LIG    1        2.245   8.176   0.632  0.00  0.00    +0.070 C 
ATOM     27  C   LIG    1        1.033   7.643   1.399  0.00  0.00    +0.190 C 
ENDBRANCH  25  27
ENDBRANCH  23  25
ENDBRANCH   1  23
BRANCH   2  28
ATOM     28  C   LIG    1       -2.732   8.211  -0.546  0.00  0.00    +0.060 C 
ATOM     29  C   LIG    1       -1.898   8.685  -1.738  0.00  0.00    +0.050 C 
ENDBRANCH   2  28
TORSDOF 6
