REMARK  Name = ZINCrD00000l6htC.0
REMARK                            x       y       z     vdW  Elec       q    Type
REMARK                         _______ _______ _______ _____ _____    ______ ____
ROOT
ATOM      1  C   LIG    1       -2.286  -0.405   1.500  0.00  0.00    -0.250 A 
ATOM      2  C   LIG    1       -3.272  -1.060   2.152  0.00  0.00    +0.190 A 
ATOM      3  N   LIG    1       -3.611  -2.207   1.606  0.00  0.00    -0.480 NA
ATOM      4  C   LIG    1       -2.965  -2.569   0.540  0.00  0.00    +0.290 A 
ATOM      5  C   LIG    1       -3.932  -0.519   3.394  0.00  0.00    +0.190 C 
ATOM      6  S   LIG    1       -1.802  -1.388   0.120  0.00  0.00    +0.190 S 
ENDROOT
BRANCH   1  13
ATOM      7  N   LIG    1       -0.698   1.558   1.213  0.00  0.00    -0.490 N 
ATOM      8  C   LIG    1       -0.446   2.711   1.865  0.00  0.00    +0.480 A 
ATOM      9  N   LIG    1       -1.287   2.780   2.917  0.00  0.00    -0.470 N 
ATOM     10  H   LIG    1       -1.337   3.500   3.565  0.00  0.00    +0.470 HD
ATOM     11  N   LIG    1       -2.074   1.620   2.906  0.00  0.00    -0.260 NA
ATOM     12  S   LIG    1        0.730   3.878   1.434  0.00  0.00    -0.560 S 
ATOM     13  C   LIG    1       -1.712   0.896   1.881  0.00  0.00    +0.370 A 
BRANCH   7  14
ATOM     14  C   LIG    1       -0.013   1.086   0.008  0.00  0.00    +0.370 C 
BRANCH  14  16
ATOM     15  C   LIG    1       -0.098   2.269  -2.126  0.00  0.00    +0.100 C 
ATOM     16  C   LIG    1       -0.742   1.585  -1.213  0.00  0.00    -0.090 C 
ENDBRANCH  14  16
ENDBRANCH   7  14
ENDBRANCH   1  13
BRANCH   4  17
ATOM     17  N   LIG    1       -3.187  -3.747  -0.160  0.00  0.00    -0.630 N 
ATOM     18  H   LIG    1       -2.662  -3.947  -0.951  0.00  0.00    +0.430 HD
ATOM     19  C   LIG    1       -4.131  -4.612   0.259  0.00  0.00    +0.510 C 
ATOM     20  O   LIG    1       -4.788  -4.361   1.247  0.00  0.00    -0.460 OA
BRANCH  19  21
ATOM     21  C   LIG    1       -4.372  -5.891  -0.501  0.00  0.00    +0.070 C 
BRANCH  21  22
ATOM     22  C   LIG    1       -5.488  -6.686   0.179  0.00  0.00    +0.160 C 
BRANCH  22  23
ATOM     23  C   LIG    1       -5.729  -7.965  -0.581  0.00  0.00    -0.210 A 
ATOM     24  C   LIG    1       -6.591  -8.177  -1.604  0.00  0.00    -0.020 A 
ATOM     25  O   LIG    1       -6.452  -9.463  -1.956  0.00  0.00    +0.100 OA
ATOM     26  N   LIG    1       -5.632 -10.026  -1.269  0.00  0.00    -0.360 NA
ATOM     27  C   LIG    1       -7.519  -7.166  -2.226  0.00  0.00    +0.190 C 
ATOM     28  C   LIG    1       -5.113  -9.222  -0.387  0.00  0.00    +0.020 A 
ATOM     29  C   LIG    1       -4.062  -9.564   0.639  0.00  0.00    +0.160 C 
ENDBRANCH  22  23
ENDBRANCH  21  22
ENDBRANCH  19  21
ENDBRANCH   4  17
TORSDOF 7
