REMARK  Name = ZINCvU0000000Io7.0
REMARK                            x       y       z     vdW  Elec       q    Type
REMARK                         _______ _______ _______ _____ _____    ______ ____
ROOT
ATOM      1  C   LIG    1       -2.462  -4.415  -3.992  0.00  0.00    +0.210 C 
ATOM      2  C   LIG    1       -3.318  -3.202  -4.256  0.00  0.00    +0.110 A 
ATOM      3  C   LIG    1       -3.538  -2.193  -3.369  0.00  0.00    -0.210 A 
ATOM      4  C   LIG    1       -4.423  -1.236  -4.064  0.00  0.00    -0.090 A 
ATOM      5  C   LIG    1       -5.000  -0.020  -3.716  0.00  0.00    +0.090 A 
ATOM      6  C   LIG    1       -5.804   0.642  -4.629  0.00  0.00    +0.110 A 
ATOM      7  C   LIG    1       -6.031   0.089  -5.887  0.00  0.00    +0.060 A 
ATOM      8  C   LIG    1       -5.461  -1.115  -6.237  0.00  0.00    +0.060 A 
ATOM      9  C   LIG    1       -4.652  -1.792  -5.332  0.00  0.00    +0.060 A 
ATOM     10  O   LIG    1       -3.977  -2.959  -5.394  0.00  0.00    -0.170 OA
ENDROOT
BRANCH   6  11
ATOM     11  N   LIG    1       -6.390   1.865  -4.287  0.00  0.00    -1.060 N 
ATOM     12  H   LIG    1       -7.337   1.909  -4.080  0.00  0.00    +0.430 HD
BRANCH  11  13
ATOM     13  S   LIG    1       -5.466   3.239  -4.235  0.00  0.00    +2.690 S 
ATOM     14  O   LIG    1       -4.323   2.924  -3.452  0.00  0.00    -0.940 OA
ATOM     15  O   LIG    1       -6.352   4.306  -3.923  0.00  0.00    -0.950 OA
BRANCH  13  16
ATOM     16  C   LIG    1       -4.883   3.538  -5.871  0.00  0.00    -0.680 A 
ATOM     17  C   LIG    1       -3.715   2.942  -6.307  0.00  0.00    +0.150 A 
ATOM     18  C   LIG    1       -3.259   3.173  -7.591  0.00  0.00    +0.020 A 
ATOM     19  C   LIG    1       -3.968   4.008  -8.437  0.00  0.00    +0.020 A 
ATOM     20  C   LIG    1       -5.135   4.607  -7.998  0.00  0.00    +0.020 A 
ATOM     21 CL   LIG    1       -3.392   4.303 -10.048  0.00  0.00    -0.050 Cl
ATOM     22  C   LIG    1       -5.592   4.372  -6.715  0.00  0.00    +0.150 A 
ENDBRANCH  13  16
ENDBRANCH  11  13
ENDBRANCH   6  11
BRANCH   3  23
ATOM     23  C   LIG    1       -3.003  -2.076  -2.006  0.00  0.00    +0.550 C 
ATOM     24  O   LIG    1       -3.624  -2.535  -1.067  0.00  0.00    -0.490 OA
BRANCH  23  25
ATOM     25  O   LIG    1       -1.822  -1.460  -1.796  0.00  0.00    -0.340 OA
BRANCH  25  26
ATOM     26  C   LIG    1       -1.354  -1.382  -0.424  0.00  0.00    +0.270 C 
BRANCH  26  27
ATOM     27  C   LIG    1       -0.029  -0.665  -0.385  0.00  0.00    -0.100 A 
ATOM     28  C   LIG    1        0.009   0.708  -0.233  0.00  0.00    +0.040 A 
ATOM     29  C   LIG    1        1.225   1.366  -0.197  0.00  0.00    +0.010 A 
ATOM     30  C   LIG    1        2.402   0.650  -0.314  0.00  0.00    +0.020 A 
ATOM     31  C   LIG    1        2.363  -0.724  -0.466  0.00  0.00    +0.010 A 
ATOM     32  C   LIG    1        1.147  -1.381  -0.501  0.00  0.00    +0.030 A 
ENDBRANCH  26  27
ENDBRANCH  25  26
ENDBRANCH  23  25
ENDBRANCH   3  23
TORSDOF 7
