REMARK  Name = ZINCkj00000a6Tzq.0
REMARK                            x       y       z     vdW  Elec       q    Type
REMARK                         _______ _______ _______ _____ _____    ______ ____
ROOT
ATOM      1  N   LIG    1        2.109  -3.268  -3.705  0.00  0.00    -0.670 N 
ATOM      2  H   LIG    1        2.866  -3.521  -3.153  0.00  0.00    +0.410 HD
ATOM      3  C   LIG    1        1.521  -2.067  -3.533  0.00  0.00    +0.730 C 
ATOM      4  N   LIG    1        1.923  -1.258  -2.533  0.00  0.00    -0.630 N 
ATOM      5  C   LIG    1        2.984  -1.511  -1.530  0.00  0.00    +0.300 C 
ATOM      6  C   LIG    1        2.423  -0.933  -0.210  0.00  0.00    +0.180 C 
ATOM      7  C   LIG    1        1.394   0.113  -0.655  0.00  0.00    -0.120 C 
ATOM      8  C   LIG    1        0.018   0.007   0.001  0.00  0.00    +0.050 C 
ATOM      9  C   LIG    1       -0.003   1.547   0.005  0.00  0.00    +0.050 C 
ATOM     10  C   LIG    1        1.536   1.494  -0.016  0.00  0.00    +0.030 C 
ATOM     11  C   LIG    1        1.401   0.088  -2.189  0.00  0.00    +0.340 C 
ATOM     12  O   LIG    1        0.629  -1.715  -4.279  0.00  0.00    -0.540 OA
ENDROOT
BRANCH   1  16
ATOM     13  C   LIG    1        0.709  -5.835  -6.544  0.00  0.00    +0.320 A 
ATOM     14  N   LIG    1        0.676  -4.539  -6.781  0.00  0.00    -0.490 NA
ATOM     15  C   LIG    1        1.120  -3.674  -5.886  0.00  0.00    +0.340 A 
ATOM     16  C   LIG    1        1.628  -4.150  -4.680  0.00  0.00    +0.030 A 
ATOM     17  C   LIG    1        1.649  -5.526  -4.471  0.00  0.00    +0.310 A 
ATOM     18  N   LIG    1        1.181  -6.325  -5.415  0.00  0.00    -0.500 NA
BRANCH  13  20
ATOM     19  C   LIG    1        1.333  -7.179  -8.532  0.00  0.00    +0.050 C 
ATOM     20  C   LIG    1        0.191  -6.785  -7.593  0.00  0.00    +0.120 C 
ENDBRANCH  13  20
ENDBRANCH   1  16
BRANCH   6  21
ATOM     21  N   LIG    1        3.494  -0.300   0.571  0.00  0.00    -0.630 N 
ATOM     22  H   LIG    1        3.956   0.396   0.005  0.00  0.00    +0.440 HD
ATOM     23  H   LIG    1        4.162  -1.000   0.856  0.00  0.00    +0.440 HD
ATOM     24  H   LIG    1        3.098   0.140   1.389  0.00  0.00    +0.440 HD
ENDBRANCH   6  21
TORSDOF 3
