REMARK  Name = ZINCvU0000000Hy8.0
REMARK                            x       y       z     vdW  Elec       q    Type
REMARK                         _______ _______ _______ _____ _____    ______ ____
ROOT
ATOM      1  O   LIG    1        4.229   1.730   2.211  0.00  0.00    -0.520 OA
ATOM      2  C   LIG    1        3.235   2.216   1.704  0.00  0.00    +0.580 C 
ATOM      3  N   LIG    1        2.286   1.416   1.179  0.00  0.00    -0.600 N 
ATOM      4  C   LIG    1        1.007   1.974   0.721  0.00  0.00    +0.280 C 
ATOM      5  C   LIG    1       -0.135   1.211   1.400  0.00  0.00    +0.040 C 
ATOM      6  C   LIG    1        0.029  -0.287   1.135  0.00  0.00    +0.090 C 
ATOM      7  C   LIG    1        1.353  -0.770   1.729  0.00  0.00    +0.040 C 
ATOM      8  C   LIG    1        2.512  -0.030   1.054  0.00  0.00    +0.300 C 
ENDROOT
BRANCH   6   9
ATOM      9  C   LIG    1       -1.112  -1.038   1.773  0.00  0.00    +0.100 A 
ATOM     10  N   LIG    1       -1.368  -1.028   3.026  0.00  0.00    -0.460 NA
ATOM     11  C   LIG    1       -2.424  -1.743   3.458  0.00  0.00    +0.080 A 
ATOM     12  C   LIG    1       -2.929  -1.904   4.764  0.00  0.00    +0.070 A 
ATOM     13  C   LIG    1       -4.020  -2.688   4.990  0.00  0.00    +0.030 A 
ATOM     14  C   LIG    1       -4.655  -3.340   3.943  0.00  0.00    +0.040 A 
ATOM     15  C   LIG    1       -4.184  -3.200   2.656  0.00  0.00    +0.060 A 
ATOM     16  C   LIG    1       -3.069  -2.404   2.406  0.00  0.00    -0.180 A 
ATOM     17  S   LIG    1       -2.219  -2.013   0.915  0.00  0.00    +0.100 S 
ENDBRANCH   6   9
BRANCH   2  18
ATOM     18  C   LIG    1        3.070   3.677   1.665  0.00  0.00    +0.040 A 
ATOM     19  C   LIG    1        2.368   4.399   0.720  0.00  0.00    -0.050 A 
ATOM     20  C   LIG    1        2.463   5.746   1.059  0.00  0.00    +0.110 A 
ATOM     21  N   LIG    1        3.188   5.858   2.145  0.00  0.00    -0.250 NA
ATOM     22  N   LIG    1        3.588   4.580   2.555  0.00  0.00    -0.290 N 
BRANCH  22  23
ATOM     23  C   LIG    1        4.374   4.279   3.674  0.00  0.00    +0.140 A 
ATOM     24  C   LIG    1        4.045   3.203   4.487  0.00  0.00    +0.030 A 
ATOM     25  C   LIG    1        4.826   2.905   5.586  0.00  0.00    +0.030 A 
ATOM     26  C   LIG    1        5.928   3.685   5.885  0.00  0.00    +0.020 A 
ATOM     27  C   LIG    1        6.255   4.762   5.080  0.00  0.00    +0.020 A 
ATOM     28  C   LIG    1        5.482   5.061   3.976  0.00  0.00    +0.030 A 
ENDBRANCH  22  23
BRANCH  20  29
ATOM     29  C   LIG    1        1.839   6.888   0.299  0.00  0.00    +0.040 C 
ATOM     30  C   LIG    1        1.363   6.610  -1.128  0.00  0.00    +0.050 C 
ATOM     31  C   LIG    1        2.618   7.453  -0.891  0.00  0.00    +0.040 C 
ENDBRANCH  20  29
ENDBRANCH   2  18
TORSDOF 4
