REMARK  Name = ZINCrD000000Dg48.0
REMARK                            x       y       z     vdW  Elec       q    Type
REMARK                         _______ _______ _______ _____ _____    ______ ____
ROOT
ATOM      1  C   LIG    1       -6.387  -0.792   0.062  0.00  0.00    +0.390 A 
ATOM      2  N   LIG    1       -6.114  -2.080   0.052  0.00  0.00    -0.600 NA
ATOM      3  C   LIG    1       -7.087  -2.998   0.057  0.00  0.00    +0.550 A 
ATOM      4  C   LIG    1       -8.497  -2.550   0.074  0.00  0.00    -0.220 A 
ATOM      5  C   LIG    1       -8.735  -1.192   0.084  0.00  0.00    +0.060 A 
ATOM      6  S   LIG    1      -10.464  -0.892   0.103  0.00  0.00    +0.180 S 
ATOM      7  C   LIG    1      -10.836  -2.608   0.098  0.00  0.00    -0.190 A 
ATOM      8  C   LIG    1      -12.241  -3.184   0.110  0.00  0.00    +0.120 C 
ATOM      9  C   LIG    1      -12.175  -4.653  -0.313  0.00  0.00    +0.030 C 
ATOM     10  C   LIG    1      -11.098  -5.362   0.513  0.00  0.00    +0.020 C 
ATOM     11  C   LIG    1       -9.720  -4.864   0.072  0.00  0.00    +0.110 C 
ATOM     12  C   LIG    1       -9.720  -3.341   0.082  0.00  0.00    -0.030 A 
ATOM     13  O   LIG    1       -6.815  -4.189   0.048  0.00  0.00    -0.490 OA
ATOM     14  N   LIG    1       -7.660  -0.323   0.082  0.00  0.00    -0.580 N 
ATOM     15  H   LIG    1       -7.817   0.634   0.093  0.00  0.00    +0.430 HD
ENDROOT
BRANCH   1  16
ATOM     16  S   LIG    1       -5.054   0.360   0.054  0.00  0.00    +0.130 S 
BRANCH  16  17
ATOM     17  C   LIG    1       -3.651  -0.783   0.034  0.00  0.00    +0.210 C 
BRANCH  17  21
ATOM     18  O   LIG    1       -1.412   3.290   0.040  0.00  0.00    -0.470 OA
ATOM     19  C   LIG    1       -1.329   2.074   0.032  0.00  0.00    +0.540 A 
ATOM     20  N   LIG    1       -2.434   1.304   0.034  0.00  0.00    -0.590 NA
ATOM     21  C   LIG    1       -2.364   0.002   0.026  0.00  0.00    +0.470 A 
ATOM     22  N   LIG    1       -1.204  -0.677   0.010  0.00  0.00    -0.610 N 
ATOM     23  H   LIG    1       -1.214  -1.647   0.006  0.00  0.00    +0.430 HD
ATOM     24  C   LIG    1        0.002  -0.004   0.002  0.00  0.00    +0.170 A 
ATOM     25  C   LIG    1        1.218  -0.674  -0.013  0.00  0.00    -0.020 A 
ATOM     26  C   LIG    1        2.394   0.046  -0.021  0.00  0.00    +0.090 A 
ATOM     27  C   LIG    1        2.376   1.433  -0.013  0.00  0.00    -0.010 A 
ATOM     28  C   LIG    1        1.179   2.117   0.002  0.00  0.00    +0.110 A 
ATOM     29  C   LIG    1       -0.017   1.403   0.010  0.00  0.00    -0.210 A 
ENDBRANCH  17  21
ENDBRANCH  16  17
ENDBRANCH   1  16
TORSDOF 3
