REMARK  Name = ZINCpe000000YdhN.0
REMARK                            x       y       z     vdW  Elec       q    Type
REMARK                         _______ _______ _______ _____ _____    ______ ____
ROOT
ATOM      1  N   LIG    1        0.097   4.147   0.055  0.00  0.00    -0.500 NA
ATOM      2  C   LIG    1       -1.045   3.646  -0.727  0.00  0.00    +0.200 C 
ATOM      3  C   LIG    1       -1.575   2.373  -0.068  0.00  0.00    +0.300 C 
ATOM      4  N   LIG    1       -0.477   1.446   0.189  0.00  0.00    -0.720 N 
ATOM      5  H   LIG    1       -0.687   0.513   0.353  0.00  0.00    +0.410 HD
ATOM      6  C   LIG    1        0.805   1.824   0.203  0.00  0.00    +0.530 C 
ATOM      7  O   LIG    1        1.653   0.993   0.451  0.00  0.00    -0.520 OA
ATOM      8  C   LIG    1        1.240   3.235  -0.076  0.00  0.00    +0.190 C 
ENDROOT
BRANCH   8   9
ATOM      9  C   LIG    1        2.312   3.631   0.906  0.00  0.00    -0.030 A 
ATOM     10  C   LIG    1        1.962   4.104   2.157  0.00  0.00    +0.060 A 
ATOM     11  C   LIG    1        2.945   4.468   3.059  0.00  0.00    +0.040 A 
ATOM     12  C   LIG    1        4.278   4.359   2.709  0.00  0.00    +0.030 A 
ATOM     13  C   LIG    1        4.628   3.886   1.458  0.00  0.00    +0.060 A 
ATOM     14  C   LIG    1        3.645   3.517   0.558  0.00  0.00    -0.160 A 
BRANCH  14  15
ATOM     15  C   LIG    1        4.027   2.996  -0.803  0.00  0.00    +0.500 C 
ATOM     16  F   LIG    1        3.532   3.858  -1.788  0.00  0.00    -0.180 F 
ATOM     17  F   LIG    1        3.481   1.720  -0.984  0.00  0.00    -0.160 F 
ATOM     18  F   LIG    1        5.420   2.926  -0.902  0.00  0.00    -0.180 F 
ENDBRANCH  14  15
ENDBRANCH   8   9
BRANCH   1  19
ATOM     19  C   LIG    1        0.460   5.509  -0.358  0.00  0.00    +0.330 C 
BRANCH  19  24
ATOM     20  C   LIG    1       -2.323   9.677   0.273  0.00  0.00    +0.360 C 
ATOM     21  N   LIG    1       -1.865   8.286   0.292  0.00  0.00    -0.440 N 
ATOM     22  N   LIG    1       -0.650   7.792  -0.213  0.00  0.00    -0.500 N 
ATOM     23  H   LIG    1        0.050   8.307  -0.644  0.00  0.00    +0.450 HD
ATOM     24  C   LIG    1       -0.647   6.460   0.017  0.00  0.00    +0.400 A 
ATOM     25  N   LIG    1       -1.764   6.130   0.611  0.00  0.00    -0.550 NA
ATOM     26  C   LIG    1       -2.525   7.223   0.798  0.00  0.00    +0.630 A 
ATOM     27  O   LIG    1       -3.621   7.248   1.326  0.00  0.00    -0.530 OA
ENDBRANCH  19  24
ENDBRANCH   1  19
TORSDOF 4
