REMARK  Name = ZINCvU00000005w8.0
REMARK                            x       y       z     vdW  Elec       q    Type
REMARK                         _______ _______ _______ _____ _____    ______ ____
ROOT
ATOM      1  C   LIG    1       -1.844   1.629  -1.130  0.00  0.00    +0.220 C 
ENDROOT
BRANCH   1   2
ATOM      2  N   LIG    1       -1.226   0.314  -1.343  0.00  0.00    -0.490 NA
ATOM      3  C   LIG    1        0.247   0.425  -1.407  0.00  0.00    +0.170 C 
ATOM      4  C   LIG    1        0.682  -0.666  -2.417  0.00  0.00    +0.030 C 
ATOM      5  C   LIG    1       -0.465  -0.603  -3.460  0.00  0.00    +0.010 C 
ATOM      6  C   LIG    1       -1.706  -0.300  -2.594  0.00  0.00    +0.210 C 
BRANCH   6   7
ATOM      7  C   LIG    1       -2.615   0.658  -3.319  0.00  0.00    -0.090 A 
ATOM      8  C   LIG    1       -2.114   1.852  -3.802  0.00  0.00    +0.020 A 
ATOM      9  C   LIG    1       -2.942   2.735  -4.474  0.00  0.00    +0.030 A 
ATOM     10  C   LIG    1       -4.278   2.422  -4.651  0.00  0.00    +0.070 A 
ATOM     11  O   LIG    1       -5.107   3.285  -5.307  0.00  0.00    -0.320 OA
ATOM     12  C   LIG    1       -5.588   2.845  -6.578  0.00  0.00    +0.230 C 
ATOM     13  C   LIG    1       -6.818   1.965  -6.414  0.00  0.00    -0.010 C 
ATOM     14  C   LIG    1       -6.509   0.668  -5.684  0.00  0.00    +0.230 C 
ATOM     15  O   LIG    1       -6.103   0.927  -4.339  0.00  0.00    -0.320 OA
ATOM     16  C   LIG    1       -4.784   1.226  -4.160  0.00  0.00    +0.070 A 
ATOM     17  C   LIG    1       -3.951   0.343  -3.494  0.00  0.00    +0.030 A 
ENDBRANCH   6   7
ENDBRANCH   1   2
BRANCH   1  20
ATOM     18  N   LIG    1       -2.171   3.215   0.740  0.00  0.00    -0.670 N 
ATOM     19  H   LIG    1       -2.703   3.764   0.143  0.00  0.00    +0.410 HD
ATOM     20  C   LIG    1       -1.679   2.036   0.311  0.00  0.00    +0.500 C 
ATOM     21  O   LIG    1       -1.103   1.301   1.086  0.00  0.00    -0.470 OA
BRANCH  18  28
ATOM     22  C   LIG    1       -1.493   4.950   2.278  0.00  0.00    -0.090 A 
ATOM     23  C   LIG    1       -1.241   5.374   3.568  0.00  0.00    +0.030 A 
ATOM     24  C   LIG    1       -1.408   4.503   4.629  0.00  0.00    +0.020 A 
ATOM     25  C   LIG    1       -1.828   3.204   4.402  0.00  0.00    -0.030 A 
ATOM     26  C   LIG    1       -2.087   2.776   3.113  0.00  0.00    -0.060 A 
ATOM     27 CL   LIG    1       -2.036   2.114   5.737  0.00  0.00    -0.060 Cl
ATOM     28  C   LIG    1       -1.915   3.647   2.046  0.00  0.00    +0.150 A 
BRANCH  22  30
ATOM     29  C   LIG    1       -2.651   6.551   0.780  0.00  0.00    +0.020 C 
ATOM     30  C   LIG    1       -1.310   5.900   1.122  0.00  0.00    +0.070 C 
ENDBRANCH  22  30
BRANCH  26  31
ATOM     31  C   LIG    1       -2.550   1.363   2.866  0.00  0.00    +0.070 C 
ATOM     32  C   LIG    1       -1.572   0.384   3.520  0.00  0.00    +0.030 C 
ENDBRANCH  26  31
ENDBRANCH  18  28
ENDBRANCH   1  20
TORSDOF 6
