REMARK  Name = ZINCpk00000KfLrm.0
REMARK                            x       y       z     vdW  Elec       q    Type
REMARK                         _______ _______ _______ _____ _____    ______ ____
ROOT
ATOM      1  C   LIG    1       -0.752   1.593  -1.232  0.00  0.00    +0.030 C 
ATOM      2  C   LIG    1       -2.194   1.077  -1.207  0.00  0.00    +0.010 C 
ATOM      3  C   LIG    1       -2.872   1.544   0.085  0.00  0.00    +0.030 C 
ATOM      4  C   LIG    1       -2.071   1.038   1.287  0.00  0.00    +0.170 C 
ATOM      5  N   LIG    1       -0.700   1.559   1.216  0.00  0.00    -0.530 NA
ATOM      6  C   LIG    1       -0.013   1.086   0.008  0.00  0.00    +0.190 C 
ENDROOT
BRANCH   1  11
ATOM      7  N   LIG    1       -1.181   0.392  -4.352  0.00  0.00    -0.580 N 
ATOM      8  C   LIG    1       -0.790  -0.696  -3.678  0.00  0.00    +0.700 C 
ATOM      9  N   LIG    1       -0.107  -0.390  -2.556  0.00  0.00    -0.720 N 
ATOM     10  H   LIG    1        0.271  -1.013  -1.917  0.00  0.00    +0.440 HD
ATOM     11  C   LIG    1       -0.049   1.081  -2.491  0.00  0.00    +0.130 C 
ATOM     12  C   LIG    1        1.402   1.564  -2.529  0.00  0.00    +0.090 C 
ATOM     13  O   LIG    1       -1.023  -1.833  -4.037  0.00  0.00    -0.540 OA
ATOM     14  C   LIG    1       -0.792   1.526  -3.735  0.00  0.00    +0.530 C 
ATOM     15  O   LIG    1       -0.996   2.664  -4.099  0.00  0.00    -0.460 OA
BRANCH   7  17
ATOM     16  C   LIG    1       -0.964   0.324  -6.787  0.00  0.00    +0.030 C 
ATOM     17  C   LIG    1       -1.937   0.355  -5.607  0.00  0.00    +0.310 C 
ENDBRANCH   7  17
ENDBRANCH   1  11
BRANCH   5  18
ATOM     18  C   LIG    1        0.059   1.209   2.425  0.00  0.00    +0.360 C 
BRANCH  18  19
ATOM     19  C   LIG    1       -0.538   1.914   3.615  0.00  0.00    +0.190 A 
ATOM     20  N   LIG    1       -1.488   1.460   4.396  0.00  0.00    -0.470 NA
ATOM     21  C   LIG    1       -1.694   2.422   5.314  0.00  0.00    +0.200 A 
ATOM     22  N   LIG    1       -0.873   3.394   5.048  0.00  0.00    -0.380 NA
ATOM     23  O   LIG    1       -0.197   3.120   4.080  0.00  0.00    +0.090 OA
BRANCH  21  24
ATOM     24  C   LIG    1       -2.692   2.380   6.442  0.00  0.00    +0.060 C 
ATOM     25  C   LIG    1       -2.901   3.663   7.248  0.00  0.00    +0.050 C 
ATOM     26  C   LIG    1       -2.150   2.484   7.869  0.00  0.00    +0.050 C 
ENDBRANCH  21  24
ENDBRANCH  18  19
ENDBRANCH   5  18
TORSDOF 5
