REMARK  Name = ZINCrH000004v6K6.0
REMARK                            x       y       z     vdW  Elec       q    Type
REMARK                         _______ _______ _______ _____ _____    ______ ____
ROOT
ATOM      1  C   LIG    1       -2.663   3.913   0.059  0.00  0.00    +0.110 A 
ATOM      2  C   LIG    1       -3.788   3.178   0.410  0.00  0.00    +0.020 A 
ATOM      3  C   LIG    1       -5.016   3.801   0.510  0.00  0.00    -0.020 A 
ATOM      4  C   LIG    1       -5.129   5.160   0.249  0.00  0.00    +0.100 A 
ATOM      5  C   LIG    1       -4.005   5.894  -0.107  0.00  0.00    +0.010 A 
ATOM      6  C   LIG    1       -2.776   5.273  -0.202  0.00  0.00    +0.050 A 
ENDROOT
BRANCH   4   7
ATOM      7  N   LIG    1       -6.374   5.790   0.345  0.00  0.00    -0.490 N 
ATOM      8  C   LIG    1       -6.323   6.919   1.285  0.00  0.00    +0.210 C 
ATOM      9  C   LIG    1       -7.679   7.628   1.301  0.00  0.00    +0.190 C 
ATOM     10  N   LIG    1       -8.724   6.671   1.689  0.00  0.00    -0.520 NA
ATOM     11  C   LIG    1       -8.776   5.543   0.749  0.00  0.00    +0.190 C 
ATOM     12  C   LIG    1       -7.420   4.833   0.733  0.00  0.00    +0.200 C 
BRANCH  10  13
ATOM     13  C   LIG    1      -10.032   7.333   1.790  0.00  0.00    +0.270 C 
BRANCH  13  14
ATOM     14  C   LIG    1      -10.247   8.227   0.567  0.00  0.00    +0.410 C 
ATOM     15  F   LIG    1       -9.302   9.258   0.572  0.00  0.00    -0.180 F 
ATOM     16  F   LIG    1      -11.534   8.773   0.610  0.00  0.00    -0.180 F 
ATOM     17  F   LIG    1      -10.101   7.466  -0.598  0.00  0.00    -0.180 F 
ENDBRANCH  13  14
ENDBRANCH  10  13
ENDBRANCH   4   7
BRANCH   1  20
ATOM     18  O   LIG    1       -0.360   5.110   0.653  0.00  0.00    -0.510 OA
ATOM     19  C   LIG    1       -0.299   3.940   0.330  0.00  0.00    +0.560 C 
ATOM     20  N   LIG    1       -1.417   3.283  -0.037  0.00  0.00    -0.670 N 
ATOM     21  H   LIG    1       -1.357   2.373  -0.367  0.00  0.00    +0.410 HD
BRANCH  19  22
ATOM     22  C   LIG    1        1.002   3.238   0.340  0.00  0.00    -0.110 A 
ATOM     23  C   LIG    1        1.075   1.893  -0.025  0.00  0.00    +0.030 A 
ATOM     24  C   LIG    1        2.291   1.240  -0.009  0.00  0.00    +0.050 A 
ATOM     25  C   LIG    1        3.437   1.916   0.368  0.00  0.00    +0.010 A 
ATOM     26  C   LIG    1        3.373   3.252   0.731  0.00  0.00    +0.100 A 
ATOM     27  F   LIG    1        4.497   3.906   1.098  0.00  0.00    -0.130 F 
ATOM     28  C   LIG    1        2.162   3.916   0.719  0.00  0.00    +0.060 A 
ENDBRANCH  19  22
ENDBRANCH   1  20
TORSDOF 5
