REMARK  Name = ZINCpe000000UOGP.0
REMARK                            x       y       z     vdW  Elec       q    Type
REMARK                         _______ _______ _______ _____ _____    ______ ____
ROOT
ATOM      1  C   LIG    1        0.001  -0.005   0.002  0.00  0.00    +0.250 C 
ENDROOT
BRANCH   1   2
ATOM      2  C   LIG    1        0.482  -0.493  -1.340  0.00  0.00    +0.520 C 
ATOM      3  N   LIG    1       -0.139  -0.088  -2.466  0.00  0.00    -0.620 N 
ATOM      4  C   LIG    1       -1.228   0.897  -2.537  0.00  0.00    +0.230 C 
ATOM      5  C   LIG    1       -1.637   1.022  -4.020  0.00  0.00    +0.040 C 
ATOM      6  C   LIG    1       -1.149  -0.320  -4.627  0.00  0.00    +0.040 C 
ATOM      7  C   LIG    1        0.157  -0.565  -3.829  0.00  0.00    +0.250 C 
ATOM      8  O   LIG    1        1.428  -1.249  -1.408  0.00  0.00    -0.530 OA
ENDBRANCH   1   2
BRANCH   1  10
ATOM      9  C   LIG    1       -0.491  -2.036   1.256  0.00  0.00    +0.530 C 
ATOM     10  N   LIG    1        0.335  -0.995   1.029  0.00  0.00    -0.700 N 
ATOM     11  H   LIG    1        1.150  -0.902   1.546  0.00  0.00    +0.410 HD
ATOM     12  O   LIG    1       -1.511  -2.152   0.609  0.00  0.00    -0.530 OA
BRANCH   9  16
ATOM     13  C   LIG    1       -3.519  -4.077   3.739  0.00  0.00    +0.300 C 
ATOM     14  N   LIG    1       -2.151  -3.605   3.509  0.00  0.00    -0.620 N 
ATOM     15  C   LIG    1       -1.269  -4.108   2.449  0.00  0.00    +0.300 C 
ATOM     16  C   LIG    1       -0.148  -3.054   2.312  0.00  0.00    +0.000 C 
ATOM     17  C   LIG    1       -0.144  -2.412   3.719  0.00  0.00    +0.080 C 
ATOM     18  C   LIG    1       -1.544  -2.656   4.241  0.00  0.00    +0.520 C 
ATOM     19  O   LIG    1       -2.044  -2.078   5.183  0.00  0.00    -0.530 OA
ENDBRANCH   9  16
ENDBRANCH   1  10
BRANCH   1  20
ATOM     20  C   LIG    1        0.681   1.325   0.335  0.00  0.00    +0.100 C 
BRANCH  20  21
ATOM     21  C   LIG    1        0.108   1.874   1.616  0.00  0.00    -0.090 A 
ATOM     22  C   LIG    1       -0.988   2.716   1.578  0.00  0.00    +0.010 A 
ATOM     23  C   LIG    1       -1.516   3.216   2.753  0.00  0.00    +0.010 A 
ATOM     24  C   LIG    1       -0.942   2.884   3.966  0.00  0.00    +0.000 A 
ATOM     25  C   LIG    1        0.158   2.047   4.004  0.00  0.00    +0.010 A 
ATOM     26  C   LIG    1        0.683   1.542   2.829  0.00  0.00    +0.010 A 
ENDBRANCH  20  21
ENDBRANCH   1  20
TORSDOF 5
