REMARK  Name = ZINCrH00000No4Nm.0
REMARK                            x       y       z     vdW  Elec       q    Type
REMARK                         _______ _______ _______ _____ _____    ______ ____
ROOT
ATOM      1  N   LIG    1        2.789   0.832  -1.412  0.00  0.00    -0.520 NA
ENDROOT
BRANCH   1   2
ATOM      2  C   LIG    1        2.587   1.226  -0.011  0.00  0.00    +0.220 C 
BRANCH   2   9
ATOM      3  C   LIG    1        0.253  -0.464   0.202  0.00  0.00    +0.110 C 
ATOM      4  C   LIG    1        0.105   1.035   0.247  0.00  0.00    -0.060 A 
ATOM      5  C   LIG    1       -1.148   1.602   0.385  0.00  0.00    +0.060 A 
ATOM      6  C   LIG    1       -1.284   2.977   0.431  0.00  0.00    -0.180 A 
ATOM      7  C   LIG    1       -0.167   3.785   0.330  0.00  0.00    +0.060 A 
ATOM      8  C   LIG    1        1.086   3.218   0.187  0.00  0.00    +0.020 A 
ATOM      9  C   LIG    1        1.222   1.843   0.145  0.00  0.00    -0.050 A 
BRANCH   6  10
ATOM     10  C   LIG    1       -2.649   3.595   0.586  0.00  0.00    +0.510 C 
ATOM     11  F   LIG    1       -3.223   3.162   1.787  0.00  0.00    -0.180 F 
ATOM     12  F   LIG    1       -3.461   3.207  -0.485  0.00  0.00    -0.180 F 
ATOM     13  F   LIG    1       -2.532   4.989   0.602  0.00  0.00    -0.180 F 
ENDBRANCH   6  10
ENDBRANCH   2   9
ENDBRANCH   1   2
BRANCH   1  14
ATOM     14  C   LIG    1        2.837   2.010  -2.288  0.00  0.00    +0.230 C 
BRANCH  14  15
ATOM     15  C   LIG    1        3.893   2.989  -1.771  0.00  0.00    +0.120 C 
ATOM     16  C   LIG    1        3.831   4.284  -2.584  0.00  0.00    -0.010 C 
ATOM     17  C   LIG    1        4.931   5.235  -2.101  0.00  0.00    +0.010 C 
ATOM     18  C   LIG    1        6.287   4.534  -2.226  0.00  0.00    -0.020 C 
ATOM     19  C   LIG    1        6.254   3.229  -1.426  0.00  0.00    +0.200 C 
ATOM     20  O   LIG    1        5.190   2.405  -1.906  0.00  0.00    -0.370 OA
ENDBRANCH  14  15
ENDBRANCH   1  14
BRANCH   1  21
ATOM     21  C   LIG    1        4.003   0.017  -1.560  0.00  0.00    +0.310 C 
BRANCH  21  22
ATOM     22  C   LIG    1        4.109  -0.471  -2.982  0.00  0.00    -0.010 A 
ATOM     23  C   LIG    1        4.817   0.100  -3.984  0.00  0.00    +0.150 A 
ATOM     24  N   LIG    1        4.620  -0.677  -5.075  0.00  0.00    -0.300 N 
ATOM     25  N   LIG    1        3.845  -1.649  -4.743  0.00  0.00    -0.090 NA
ATOM     26  C   LIG    1        5.193  -0.450  -6.404  0.00  0.00    +0.370 C 
ATOM     27  N   LIG    1        3.526  -1.559  -3.500  0.00  0.00    -0.250 NA
ENDBRANCH  21  22
ENDBRANCH   1  21
TORSDOF 7
