REMARK  Name = ZINCvU00000008NN.0
REMARK                            x       y       z     vdW  Elec       q    Type
REMARK                         _______ _______ _______ _____ _____    ______ ____
ROOT
ATOM      1  C   LIG    1        2.722   6.952  -2.046  0.00  0.00    +0.100 C 
ATOM      2  N   LIG    1        2.930   5.693  -1.838  0.00  0.00    -0.200 NA
ATOM      3  N   LIG    1        2.281   5.204  -0.719  0.00  0.00    -0.560 N 
ATOM      4  C   LIG    1        2.452   3.935  -0.000  0.00  0.00    +0.570 C 
ATOM      5  O   LIG    1        2.827   4.280   1.338  0.00  0.00    -0.330 OA
ATOM      6  C   LIG    1        2.287   5.372   1.937  0.00  0.00    +0.150 A 
ATOM      7  C   LIG    1        2.457   5.497   3.315  0.00  0.00    -0.020 A 
ATOM      8  C   LIG    1        1.955   6.590   3.988  0.00  0.00    +0.050 A 
ATOM      9  C   LIG    1        1.278   7.579   3.298  0.00  0.00    -0.020 A 
ATOM     10  C   LIG    1        1.097   7.460   1.933  0.00  0.00    +0.050 A 
ATOM     11  C   LIG    1        1.590   6.361   1.257  0.00  0.00    -0.170 A 
ATOM     12  C   LIG    1        1.339   6.234  -0.223  0.00  0.00    +0.250 C 
ATOM     13  C   LIG    1        1.778   7.489  -0.990  0.00  0.00    +0.090 C 
ENDROOT
BRANCH   1  17
ATOM     14  C   LIG    1        4.420   9.228  -5.202  0.00  0.00    +0.140 A 
ATOM     15  C   LIG    1        4.722   7.878  -5.082  0.00  0.00    -0.010 A 
ATOM     16  C   LIG    1        4.173   7.135  -4.059  0.00  0.00    +0.090 A 
ATOM     17  C   LIG    1        3.312   7.742  -3.142  0.00  0.00    -0.060 A 
ATOM     18  C   LIG    1        3.007   9.100  -3.269  0.00  0.00    +0.080 A 
ATOM     19  C   LIG    1        3.565   9.836  -4.292  0.00  0.00    -0.080 A 
BRANCH  14  21
ATOM     20  C   LIG    1        4.611  11.340  -6.277  0.00  0.00    +0.250 C 
ATOM     21  O   LIG    1        4.964   9.956  -6.212  0.00  0.00    -0.320 OA
ENDBRANCH  14  21
ENDBRANCH   1  17
BRANCH   4  22
ATOM     22  C   LIG    1        1.156   3.166   0.007  0.00  0.00    -0.160 A 
ATOM     23  C   LIG    1        0.350   3.160  -1.116  0.00  0.00    +0.090 A 
ATOM     24  C   LIG    1       -0.838   2.455  -1.112  0.00  0.00    +0.000 A 
ATOM     25  C   LIG    1       -1.225   1.757   0.023  0.00  0.00    +0.120 A 
ATOM     26  C   LIG    1       -0.412   1.761   1.148  0.00  0.00    -0.050 A 
ATOM     27  C   LIG    1        0.775   2.467   1.138  0.00  0.00    +0.090 A 
BRANCH  25  28
ATOM     28  O   LIG    1       -2.396   1.068   0.032  0.00  0.00    -0.320 OA
BRANCH  28  29
ATOM     29  C   LIG    1       -2.731   0.372   1.235  0.00  0.00    +0.590 C 
ATOM     30  F   LIG    1       -2.824   1.286   2.291  0.00  0.00    -0.200 F 
ATOM     31  F   LIG    1       -1.737  -0.570   1.520  0.00  0.00    -0.200 F 
ENDBRANCH  28  29
ENDBRANCH  25  28
ENDBRANCH   4  22
TORSDOF 5
