REMARK  Name = ZINCtV00000kIeTp.0
REMARK                            x       y       z     vdW  Elec       q    Type
REMARK                         _______ _______ _______ _____ _____    ______ ____
ROOT
ATOM      1  O   LIG    1       -1.992   2.632  -3.588  0.00  0.00    -0.550 OA
ATOM      2  C   LIG    1       -1.812   1.431  -3.549  0.00  0.00    +0.700 C 
ATOM      3  N   LIG    1       -1.355   0.854  -2.420  0.00  0.00    -0.730 N 
ATOM      4  H   LIG    1       -1.212  -0.105  -2.388  0.00  0.00    +0.400 HD
ATOM      5  N   LIG    1       -2.070   0.675  -4.635  0.00  0.00    -0.690 N 
ATOM      6  H   LIG    1       -1.998  -0.291  -4.582  0.00  0.00    +0.410 HD
ENDROOT
BRANCH   5   7
ATOM      7  C   LIG    1       -2.443   1.284  -5.838  0.00  0.00    +0.210 A 
ATOM      8  C   LIG    1       -3.326   0.644  -6.698  0.00  0.00    -0.010 A 
ATOM      9  C   LIG    1       -3.695   1.250  -7.883  0.00  0.00    +0.090 A 
ATOM     10  C   LIG    1       -3.178   2.488  -8.219  0.00  0.00    -0.200 A 
ATOM     11  C   LIG    1       -2.294   3.125  -7.367  0.00  0.00    +0.090 A 
ATOM     12  C   LIG    1       -1.925   2.527  -6.178  0.00  0.00    +0.030 A 
BRANCH  10  13
ATOM     13  C   LIG    1       -3.579   3.144  -9.515  0.00  0.00    +0.510 C 
ATOM     14  F   LIG    1       -3.541   4.534  -9.365  0.00  0.00    -0.180 F 
ATOM     15  F   LIG    1       -4.876   2.747  -9.857  0.00  0.00    -0.180 F 
ATOM     16  F   LIG    1       -2.692   2.759 -10.526  0.00  0.00    -0.180 F 
ENDBRANCH  10  13
ENDBRANCH   5   7
BRANCH   3  17
ATOM     17  C   LIG    1       -1.075   1.675  -1.239  0.00  0.00    +0.280 C 
ATOM     18  C   LIG    1        0.071   1.047  -0.419  0.00  0.00    +0.020 C 
ATOM     19  C   LIG    1       -0.327   1.307   1.056  0.00  0.00    +0.030 C 
ATOM     20  C   LIG    1       -1.866   1.106   1.031  0.00  0.00    +0.020 C 
ATOM     21  C   LIG    1       -2.306   1.712  -0.317  0.00  0.00    +0.000 C 
BRANCH  21  22
ATOM     22  C   LIG    1       -3.422   0.893  -0.913  0.00  0.00    -0.000 A 
ATOM     23  C   LIG    1       -3.270  -0.471  -1.070  0.00  0.00    +0.010 A 
ATOM     24  C   LIG    1       -4.294  -1.223  -1.616  0.00  0.00    +0.040 A 
ATOM     25  C   LIG    1       -5.470  -0.609  -2.005  0.00  0.00    +0.000 A 
ATOM     26  C   LIG    1       -5.622   0.756  -1.847  0.00  0.00    +0.070 A 
ATOM     27  C   LIG    1       -4.601   1.506  -1.296  0.00  0.00    -0.180 A 
BRANCH  27  28
ATOM     28  C   LIG    1       -4.769   2.993  -1.119  0.00  0.00    +0.500 C 
ATOM     29  F   LIG    1       -3.785   3.665  -1.852  0.00  0.00    -0.160 F 
ATOM     30  F   LIG    1       -4.645   3.318   0.236  0.00  0.00    -0.180 F 
ATOM     31  F   LIG    1       -6.035   3.377  -1.576  0.00  0.00    -0.180 F 
ENDBRANCH  27  28
ENDBRANCH  21  22
ENDBRANCH   3  17
TORSDOF 5
