REMARK  Name = ZINCkj000005lK9P.1
REMARK                            x       y       z     vdW  Elec       q    Type
REMARK                         _______ _______ _______ _____ _____    ______ ____
ROOT
ATOM      1  C   LIG    1       -6.708   0.536  -1.871  0.00  0.00    +0.260 C 
ENDROOT
BRANCH   1   2
ATOM      2  N   LIG    1       -7.602  -0.326  -2.656  0.00  0.00    -0.380 N 
ATOM      3  C   LIG    1       -8.996  -0.088  -2.250  0.00  0.00    +0.270 C 
ATOM      4  C   LIG    1       -9.872  -1.191  -2.844  0.00  0.00    +0.110 C 
ATOM      5  C   LIG    1       -9.600  -1.322  -4.321  0.00  0.00    -0.090 A 
ATOM      6  C   LIG    1      -10.510  -2.011  -5.106  0.00  0.00    +0.040 A 
ATOM      7  C   LIG    1      -10.290  -2.157  -6.462  0.00  0.00    +0.050 A 
ATOM      8  C   LIG    1       -9.159  -1.611  -7.038  0.00  0.00    +0.040 A 
ATOM      9  C   LIG    1       -8.252  -0.922  -6.256  0.00  0.00    +0.050 A 
ATOM     10  C   LIG    1       -8.471  -0.775  -4.895  0.00  0.00    -0.130 A 
ATOM     11  C   LIG    1       -7.458  -0.014  -4.081  0.00  0.00    +0.320 C 
ATOM     12  H   LIG    1       -7.364  -1.293  -2.496  0.00  0.00    +0.430 HD
ENDBRANCH   1   2
BRANCH   1  13
ATOM     13  C   LIG    1       -5.253   0.202  -2.208  0.00  0.00    +0.270 C 
BRANCH  13  16
ATOM     14  O   LIG    1       -2.561   0.129  -2.327  0.00  0.00    -0.500 OA
ATOM     15  C   LIG    1       -3.025   0.945  -1.559  0.00  0.00    +0.510 C 
ATOM     16  N   LIG    1       -4.361   1.062  -1.426  0.00  0.00    -0.730 N 
ATOM     17  H   LIG    1       -4.732   1.714  -0.812  0.00  0.00    +0.410 HD
BRANCH  15  18
ATOM     18  C   LIG    1       -2.107   1.829  -0.754  0.00  0.00    +0.180 C 
ATOM     19  C   LIG    1       -2.249   1.504   0.749  0.00  0.00    +0.030 C 
ATOM     20  C   LIG    1       -0.780   1.606   1.249  0.00  0.00    +0.020 C 
ATOM     21  C   LIG    1       -0.013   1.086   0.008  0.00  0.00    +0.210 C 
ATOM     22  O   LIG    1       -0.746   1.581  -1.124  0.00  0.00    -0.350 OA
ENDBRANCH  15  18
ENDBRANCH  13  16
ENDBRANCH   1  13
TORSDOF 4
