REMARK  Name = ZINCkj000005lK9P.0
REMARK                            x       y       z     vdW  Elec       q    Type
REMARK                         _______ _______ _______ _____ _____    ______ ____
ROOT
ATOM      1  C   LIG    1        4.816   3.910   0.253  0.00  0.00    +0.260 C 
ENDROOT
BRANCH   1   2
ATOM      2  N   LIG    1        3.571   3.147   0.415  0.00  0.00    -0.380 N 
ATOM      3  C   LIG    1        3.623   1.937  -0.419  0.00  0.00    +0.270 C 
ATOM      4  C   LIG    1        2.476   1.012  -0.009  0.00  0.00    +0.110 C 
ATOM      5  C   LIG    1        1.180   1.782   0.000  0.00  0.00    -0.090 A 
ATOM      6  C   LIG    1       -0.013   1.076   0.008  0.00  0.00    +0.040 A 
ATOM      7  C   LIG    1       -1.220   1.747   0.017  0.00  0.00    +0.050 A 
ATOM      8  C   LIG    1       -1.238   3.129   0.030  0.00  0.00    +0.040 A 
ATOM      9  C   LIG    1       -0.050   3.833   0.022  0.00  0.00    +0.040 A 
ATOM     10  C   LIG    1        1.163   3.161   0.005  0.00  0.00    -0.140 A 
ATOM     11  C   LIG    1        2.433   3.969  -0.008  0.00  0.00    +0.320 C 
ATOM     12  H   LIG    1        3.458   2.886   1.383  0.00  0.00    +0.430 HD
ENDBRANCH   1   2
BRANCH   1  13
ATOM     13  C   LIG    1        4.807   5.108   1.204  0.00  0.00    +0.280 C 
BRANCH  13  16
ATOM     14  O   LIG    1        5.428   7.339   2.584  0.00  0.00    -0.500 OA
ATOM     15  C   LIG    1        6.263   6.975   1.783  0.00  0.00    +0.520 C 
ATOM     16  N   LIG    1        6.049   5.869   1.042  0.00  0.00    -0.730 N 
ATOM     17  H   LIG    1        6.716   5.578   0.402  0.00  0.00    +0.410 HD
BRANCH  15  18
ATOM     18  C   LIG    1        7.540   7.757   1.617  0.00  0.00    +0.170 C 
ATOM     19  C   LIG    1        7.595   8.403   0.209  0.00  0.00    +0.020 C 
ATOM     20  C   LIG    1        8.550   9.601   0.473  0.00  0.00    +0.020 C 
ATOM     21  C   LIG    1        8.193   9.993   1.923  0.00  0.00    +0.210 C 
ATOM     22  O   LIG    1        7.574   8.858   2.539  0.00  0.00    -0.350 OA
ENDBRANCH  15  18
ENDBRANCH  13  16
ENDBRANCH   1  13
TORSDOF 4
