REMARK  Name = ZINCpk00000y6xKL.0
REMARK                            x       y       z     vdW  Elec       q    Type
REMARK                         _______ _______ _______ _____ _____    ______ ____
ROOT
ATOM      1  C   LIG    1       -0.317   4.079   1.270  0.00  0.00    +0.530 C 
ATOM      2  N   LIG    1       -0.235   4.317   2.595  0.00  0.00    -0.610 N 
ATOM      3  C   LIG    1        0.677   5.340   3.146  0.00  0.00    +0.270 C 
ATOM      4  C   LIG    1        0.200   6.729   2.722  0.00  0.00    +0.010 C 
ATOM      5  C   LIG    1        0.215   7.667   3.932  0.00  0.00    +0.010 C 
ATOM      6  C   LIG    1       -0.971   8.630   3.848  0.00  0.00    +0.000 C 
ATOM      7  C   LIG    1       -2.192   8.000   4.521  0.00  0.00    +0.260 C 
ATOM      8  N   LIG    1       -2.508   6.729   3.841  0.00  0.00    -0.730 N 
ATOM      9  H   LIG    1       -2.952   6.712   2.978  0.00  0.00    +0.410 HD
ATOM     10  C   LIG    1       -2.150   5.581   4.478  0.00  0.00    +0.520 C 
ATOM     11  C   LIG    1       -2.381   4.262   3.785  0.00  0.00    +0.030 C 
ATOM     12  O   LIG    1       -1.655   5.613   5.584  0.00  0.00    -0.540 OA
ATOM     13  C   LIG    1       -1.043   3.554   3.569  0.00  0.00    +0.310 C 
ATOM     14  O   LIG    1        0.359   4.722   0.495  0.00  0.00    -0.520 OA
ENDROOT
BRANCH   1  19
ATOM     15  C   LIG    1       -1.170   2.929  -0.785  0.00  0.00    +0.270 C 
ATOM     16  O   LIG    1       -0.764   1.590  -1.117  0.00  0.00    -0.360 OA
ATOM     17  C   LIG    1       -0.013   1.086   0.008  0.00  0.00    +0.220 C 
ATOM     18  C   LIG    1       -0.796   1.614   1.237  0.00  0.00    +0.040 C 
ATOM     19  C   LIG    1       -1.250   3.015   0.752  0.00  0.00    -0.030 C 
BRANCH  15  24
ATOM     20  N   LIG    1       -3.449   2.306  -1.737  0.00  0.00    -0.350 N 
ATOM     21  N   LIG    1       -4.554   2.992  -2.257  0.00  0.00    -0.290 NA
ATOM     22  C   LIG    1       -4.294   4.273  -2.221  0.00  0.00    +0.220 A 
ATOM     23  C   LIG    1       -3.018   4.445  -1.673  0.00  0.00    -0.110 A 
ATOM     24  C   LIG    1       -2.519   3.220  -1.388  0.00  0.00    +0.080 A 
BRANCH  20  26
ATOM     25  C   LIG    1       -3.855   0.427  -0.225  0.00  0.00    +0.030 C 
ATOM     26  C   LIG    1       -3.325   0.853  -1.595  0.00  0.00    +0.320 C 
ENDBRANCH  20  26
ENDBRANCH  15  24
ENDBRANCH   1  19
TORSDOF 3
