REMARK  Name = ZINCqH0000002N39.0
REMARK                            x       y       z     vdW  Elec       q    Type
REMARK                         _______ _______ _______ _____ _____    ______ ____
ROOT
ATOM      1  C   LIG    1       -7.131   3.367  -1.019  0.00  0.00    +0.520 C 
ATOM      2  N   LIG    1       -6.021   2.842  -0.463  0.00  0.00    -0.720 N 
ATOM      3  H   LIG    1       -5.920   1.879  -0.398  0.00  0.00    +0.400 HD
ATOM      4  O   LIG    1       -7.257   4.571  -1.100  0.00  0.00    -0.530 OA
ENDROOT
BRANCH   2   5
ATOM      5  C   LIG    1       -4.967   3.724   0.042  0.00  0.00    +0.290 C 
ATOM      6  C   LIG    1       -5.302   4.153   1.472  0.00  0.00    +0.040 C 
BRANCH   5   7
ATOM      7  C   LIG    1       -3.650   2.991   0.033  0.00  0.00    -0.110 A 
ATOM      8  C   LIG    1       -3.599   1.661   0.407  0.00  0.00    +0.050 A 
ATOM      9  C   LIG    1       -2.394   0.985   0.400  0.00  0.00    -0.020 A 
ATOM     10  C   LIG    1       -1.234   1.644   0.017  0.00  0.00    +0.160 A 
ATOM     11  N   LIG    1       -0.011   0.966   0.007  0.00  0.00    -0.660 N 
ATOM     12  H   LIG    1        0.002  -0.004   0.002  0.00  0.00    +0.410 HD
ATOM     13  C   LIG    1        1.148   1.650   0.000  0.00  0.00    +0.520 C 
ATOM     14  C   LIG    1        1.154   3.155   0.026  0.00  0.00    +0.080 C 
ATOM     15  C   LIG    1       -0.033   3.694  -0.774  0.00  0.00    +0.100 C 
ATOM     16  O   LIG    1        2.200   1.047  -0.028  0.00  0.00    -0.520 OA
ATOM     17  C   LIG    1       -1.290   2.980  -0.353  0.00  0.00    -0.120 A 
ATOM     18  C   LIG    1       -2.497   3.650  -0.338  0.00  0.00    +0.060 A 
ENDBRANCH   5   7
ENDBRANCH   2   5
BRANCH   1  19
ATOM     19  C   LIG    1       -8.215   2.459  -1.539  0.00  0.00    +0.060 C 
BRANCH  19  20
ATOM     20  C   LIG    1       -9.338   3.291  -2.105  0.00  0.00    +0.130 A 
ATOM     21  C   LIG    1       -9.659   4.498  -1.514  0.00  0.00    +0.020 A 
ATOM     22  C   LIG    1      -10.693   5.255  -2.043  0.00  0.00    +0.050 A 
ATOM     23  C   LIG    1      -11.368   4.767  -3.151  0.00  0.00    -0.040 A 
ATOM     24  C   LIG    1      -10.991   3.550  -3.688  0.00  0.00    +0.250 A 
ATOM     25  N   LIG    1       -9.998   2.860  -3.162  0.00  0.00    -0.480 NA
ENDBRANCH  19  20
BRANCH  19  26
ATOM     26  C   LIG    1       -8.748   1.595  -0.395  0.00  0.00    +0.040 C 
BRANCH  26  28
ATOM     27  C   LIG    1      -10.293  -0.278   0.199  0.00  0.00    +0.010 C 
ATOM     28  C   LIG    1       -9.760   0.587  -0.945  0.00  0.00    +0.020 C 
ENDBRANCH  26  28
ENDBRANCH  19  26
ENDBRANCH   1  19
TORSDOF 6
