REMARK  Name = ZINCqH0000034ZD4.0
REMARK                            x       y       z     vdW  Elec       q    Type
REMARK                         _______ _______ _______ _____ _____    ______ ____
ROOT
ATOM      1  C   LIG    1        4.483  -1.121   2.227  0.00  0.00    +0.220 C 
ENDROOT
BRANCH   1   2
ATOM      2  C   LIG    1        3.802  -2.255   1.505  0.00  0.00    -0.040 A 
ATOM      3  C   LIG    1        3.861  -2.330   0.126  0.00  0.00    +0.030 A 
ATOM      4  C   LIG    1        3.240  -3.374  -0.538  0.00  0.00    +0.130 A 
ATOM      5  C   LIG    1        2.549  -4.337   0.178  0.00  0.00    -0.030 A 
ATOM      6  C   LIG    1        2.486  -4.257   1.558  0.00  0.00    +0.130 A 
ATOM      7  F   LIG    1        1.812  -5.196   2.259  0.00  0.00    -0.130 F 
ATOM      8  F   LIG    1        3.303  -3.450  -1.886  0.00  0.00    -0.130 F 
ATOM      9  C   LIG    1        3.113  -3.216   2.221  0.00  0.00    +0.010 A 
ENDBRANCH   1   2
BRANCH   1  10
ATOM     10  N   LIG    1        4.192   0.143   1.538  0.00  0.00    -0.490 NA
ATOM     11  C   LIG    1        4.779   1.295   2.270  0.00  0.00    +0.210 C 
ATOM     12  C   LIG    1        3.974   2.518   1.779  0.00  0.00    -0.040 C 
ATOM     13  C   LIG    1        3.567   2.579   0.264  0.00  0.00    +0.100 C 
ATOM     14  C   LIG    1        2.628   1.943   1.291  0.00  0.00    -0.100 C 
ATOM     15  C   LIG    1        2.733   0.421   1.528  0.00  0.00    +0.220 C 
BRANCH  14  16
ATOM     16  C   LIG    1        1.317   2.611   1.613  0.00  0.00    -0.040 A 
ATOM     17  C   LIG    1        0.129   2.034   1.205  0.00  0.00    +0.010 A 
ATOM     18  C   LIG    1       -1.075   2.650   1.495  0.00  0.00    +0.000 A 
ATOM     19  C   LIG    1       -1.090   3.837   2.201  0.00  0.00    -0.090 A 
ATOM     20  C   LIG    1        0.097   4.415   2.610  0.00  0.00    +0.000 A 
ATOM     21  C   LIG    1       -2.402   4.506   2.523  0.00  0.00    +0.090 C 
ATOM     22  C   LIG    1        1.301   3.801   2.316  0.00  0.00    +0.010 A 
ENDBRANCH  14  16
ENDBRANCH   1  10
BRANCH   1  23
ATOM     23  C   LIG    1        5.971  -1.356   2.240  0.00  0.00    +0.470 C 
ATOM     24  O   LIG    1        6.666  -0.876   1.375  0.00  0.00    -0.470 OA
BRANCH  23  26
ATOM     25  C   LIG    1        7.965  -2.282   3.160  0.00  0.00    +0.290 C 
ATOM     26  O   LIG    1        6.526  -2.098   3.211  0.00  0.00    -0.360 OA
ENDBRANCH  23  26
ENDBRANCH   1  23
TORSDOF 5
