REMARK  Name = ZINCvU00000007Y9.0
REMARK                            x       y       z     vdW  Elec       q    Type
REMARK                         _______ _______ _______ _____ _____    ______ ____
ROOT
ATOM      1  C   LIG    1        0.982  10.334   2.135  0.00  0.00    +0.600 C 
ATOM      2  N   LIG    1        1.902   9.942   3.038  0.00  0.00    -0.580 N 
ATOM      3  C   LIG    1        2.184   8.516   3.224  0.00  0.00    +0.310 C 
ATOM      4  O   LIG    1        0.783  11.519   1.945  0.00  0.00    -0.530 OA
ENDROOT
BRANCH   1   7
ATOM      5  C   LIG    1       -0.268   7.259   0.724  0.00  0.00    +0.090 A 
ATOM      6  N   LIG    1        0.484   8.031   1.448  0.00  0.00    -0.430 NA
ATOM      7  C   LIG    1        0.217   9.328   1.378  0.00  0.00    +0.020 A 
ATOM      8  C   LIG    1       -0.811   9.660   0.564  0.00  0.00    -0.020 A 
ATOM      9  S   LIG    1       -1.449   8.238  -0.139  0.00  0.00    +0.190 S 
BRANCH   5  13
ATOM     10  C   LIG    1        0.061   3.030   0.487  0.00  0.00    -0.060 A 
ATOM     11  C   LIG    1        0.925   3.744   1.298  0.00  0.00    +0.010 A 
ATOM     12  C   LIG    1        0.827   5.118   1.375  0.00  0.00    +0.070 A 
ATOM     13  C   LIG    1       -0.153   5.787   0.641  0.00  0.00    -0.040 A 
ATOM     14  C   LIG    1       -1.025   5.061  -0.171  0.00  0.00    +0.040 A 
ATOM     15  C   LIG    1       -0.913   3.688  -0.244  0.00  0.00    +0.020 A 
BRANCH  10  17
ATOM     16  C   LIG    1        1.135   1.155  -0.730  0.00  0.00    +0.030 C 
ATOM     17  C   LIG    1        0.177   1.530   0.403  0.00  0.00    +0.070 C 
ENDBRANCH  10  17
ENDBRANCH   5  13
ENDBRANCH   1   7
BRANCH   2  18
ATOM     18  C   LIG    1        2.619  10.940   3.835  0.00  0.00    +0.340 C 
BRANCH  18  19
ATOM     19  C   LIG    1        1.856  11.213   5.105  0.00  0.00    +0.500 C 
ATOM     20  N   LIG    1        2.330  12.104   5.998  0.00  0.00    -0.680 N 
ATOM     21  H   LIG    1        3.194  12.521   5.855  0.00  0.00    +0.410 HD
ATOM     22  O   LIG    1        0.815  10.630   5.324  0.00  0.00    -0.500 OA
BRANCH  20  23
ATOM     23  C   LIG    1        1.575  12.429   7.131  0.00  0.00    +0.200 A 
ATOM     24  C   LIG    1        0.779  11.465   7.736  0.00  0.00    +0.020 A 
ATOM     25  C   LIG    1        0.040  11.787   8.857  0.00  0.00    +0.070 A 
ATOM     26  C   LIG    1        0.083  13.070   9.371  0.00  0.00    +0.000 A 
ATOM     27  C   LIG    1        0.871  14.033   8.768  0.00  0.00    +0.090 A 
ATOM     28  C   LIG    1        1.616  13.716   7.649  0.00  0.00    -0.220 A 
BRANCH  28  29
ATOM     29  C   LIG    1        2.474  14.767   6.992  0.00  0.00    +0.510 C 
ATOM     30  F   LIG    1        2.057  14.949   5.669  0.00  0.00    -0.170 F 
ATOM     31  F   LIG    1        3.811  14.354   7.007  0.00  0.00    -0.180 F 
ATOM     32  F   LIG    1        2.351  15.973   7.690  0.00  0.00    -0.170 F 
ENDBRANCH  28  29
ENDBRANCH  20  23
ENDBRANCH  18  19
ENDBRANCH   2  18
TORSDOF 7
