REMARK  Name = ZINCrH000004jGNC.0
REMARK                            x       y       z     vdW  Elec       q    Type
REMARK                         _______ _______ _______ _____ _____    ______ ____
ROOT
ATOM      1  C   LIG    1       -2.268   1.495   0.451  0.00  0.00    -0.700 A 
ATOM      2  C   LIG    1       -2.220   0.235  -0.117  0.00  0.00    +0.140 A 
ATOM      3  C   LIG    1       -1.047  -0.492  -0.080  0.00  0.00    +0.000 A 
ATOM      4  C   LIG    1        0.084   0.042   0.528  0.00  0.00    +0.210 A 
ATOM      5  C   LIG    1        0.035   1.306   1.094  0.00  0.00    -0.130 A 
ATOM      6  C   LIG    1        1.242   1.919   1.755  0.00  0.00    +0.100 C 
ATOM      7  C   LIG    1        2.246   0.835   2.147  0.00  0.00    +0.050 C 
ATOM      8  C   LIG    1        2.522  -0.050   0.924  0.00  0.00    +0.280 C 
ATOM      9  N   LIG    1        1.263  -0.714   0.558  0.00  0.00    -0.550 N 
ATOM     10  C   LIG    1        1.244  -2.027   0.256  0.00  0.00    +0.590 C 
ATOM     11  O   LIG    1        0.182  -2.595   0.083  0.00  0.00    -0.490 OA
ATOM     12  C   LIG    1       -1.144   2.030   1.050  0.00  0.00    +0.140 A 
ENDROOT
BRANCH  10  13
ATOM     13  C   LIG    1        2.504  -2.773   0.137  0.00  0.00    -0.240 A 
ATOM     14  C   LIG    1        2.621  -4.097   0.281  0.00  0.00    +0.140 A 
ATOM     15  C   LIG    1        3.919  -4.611   0.126  0.00  0.00    -0.090 A 
ATOM     16  C   LIG    1        4.359  -5.953   0.218  0.00  0.00    +0.070 A 
ATOM     17  C   LIG    1        5.670  -6.263   0.035  0.00  0.00    +0.010 A 
ATOM     18  C   LIG    1        6.601  -5.271  -0.245  0.00  0.00    +0.060 A 
ATOM     19  C   LIG    1        6.205  -3.958  -0.340  0.00  0.00    +0.040 A 
ATOM     20  C   LIG    1        4.862  -3.614  -0.157  0.00  0.00    -0.140 A 
ATOM     21  S   LIG    1        4.062  -2.048  -0.222  0.00  0.00    +0.140 S 
ENDBRANCH  10  13
BRANCH   1  22
ATOM     22  S   LIG    1       -3.765   2.422   0.405  0.00  0.00    +2.690 S 
ATOM     23  O   LIG    1       -4.517   1.918  -0.691  0.00  0.00    -0.950 OA
ATOM     24  O   LIG    1       -3.395   3.789   0.531  0.00  0.00    -0.950 OA
BRANCH  22  26
ATOM     25  C   LIG    1       -4.428   2.823   2.996  0.00  0.00    +0.290 C 
ATOM     26  N   LIG    1       -4.620   2.042   1.772  0.00  0.00    -1.010 NA
ATOM     27  C   LIG    1       -5.567   0.924   1.756  0.00  0.00    +0.300 C 
ENDBRANCH  22  26
ENDBRANCH   1  22
TORSDOF 3
