REMARK  Name = ZINCrD00000l1Yqb.0
REMARK                            x       y       z     vdW  Elec       q    Type
REMARK                         _______ _______ _______ _____ _____    ______ ____
ROOT
ATOM      1  C   LIG    1       -3.398   3.264   2.946  0.00  0.00    -0.070 A 
ATOM      2  C   LIG    1       -2.656   2.838   4.050  0.00  0.00    +0.070 A 
ATOM      3  C   LIG    1       -3.114   3.097   5.326  0.00  0.00    +0.120 A 
ATOM      4  C   LIG    1       -4.311   3.765   5.513  0.00  0.00    -0.650 A 
ATOM      5  C   LIG    1       -5.053   4.185   4.423  0.00  0.00    +0.120 A 
ATOM      6  C   LIG    1       -4.605   3.938   3.142  0.00  0.00    +0.080 A 
ENDROOT
BRANCH   4   7
ATOM      7  S   LIG    1       -4.891   4.084   7.145  0.00  0.00    +2.690 S 
ATOM      8  O   LIG    1       -5.767   5.199   7.049  0.00  0.00    -0.940 OA
ATOM      9  O   LIG    1       -3.748   4.065   7.989  0.00  0.00    -0.940 OA
BRANCH   7  10
ATOM     10  N   LIG    1       -5.825   2.793   7.595  0.00  0.00    -1.000 NA
ATOM     11  C   LIG    1       -7.273   2.777   7.331  0.00  0.00    +0.270 C 
ATOM     12  C   LIG    1       -7.620   1.450   6.637  0.00  0.00    +0.220 C 
ATOM     13  O   LIG    1       -7.104   0.366   7.414  0.00  0.00    -0.370 OA
ATOM     14  C   LIG    1       -5.680   0.361   7.539  0.00  0.00    +0.220 C 
ATOM     15  C   LIG    1       -5.233   1.630   8.274  0.00  0.00    +0.270 C 
ENDBRANCH   7  10
ENDBRANCH   4   7
BRANCH   1  17
ATOM     16  O   LIG    1       -3.562   3.362   0.619  0.00  0.00    -0.490 OA
ATOM     17  C   LIG    1       -2.912   2.995   1.578  0.00  0.00    +0.510 C 
BRANCH  17  18
ATOM     18  O   LIG    1       -1.748   2.344   1.392  0.00  0.00    -0.340 OA
BRANCH  18  19
ATOM     19  C   LIG    1       -1.332   2.115   0.020  0.00  0.00    +0.280 C 
BRANCH  19  20
ATOM     20  C   LIG    1       -0.017   1.379   0.010  0.00  0.00    -0.090 A 
ATOM     21  C   LIG    1        1.172   2.086   0.002  0.00  0.00    -0.000 A 
ATOM     22  C   LIG    1        2.379   1.410  -0.013  0.00  0.00    +0.040 A 
ATOM     23  C   LIG    1        2.397   0.028  -0.021  0.00  0.00    +0.070 A 
ATOM     24  C   LIG    1        1.210  -0.679  -0.013  0.00  0.00    +0.040 A 
ATOM     25 CL   LIG    1        1.149   3.822   0.011  0.00  0.00    -0.050 Cl
ATOM     26  C   LIG    1        0.002  -0.004   0.002  0.00  0.00    -0.000 A 
ATOM     27 CL   LIG    1       -1.489  -0.893   0.011  0.00  0.00    -0.050 Cl
ENDBRANCH  19  20
ENDBRANCH  18  19
ENDBRANCH  17  18
ENDBRANCH   1  17
TORSDOF 6
