REMARK  Name = ZINCqH00000386e4.0
REMARK                            x       y       z     vdW  Elec       q    Type
REMARK                         _______ _______ _______ _____ _____    ______ ____
ROOT
ATOM      1  C   LIG    1        5.008   1.969  -0.707  0.00  0.00    +0.270 C 
ENDROOT
BRANCH   1   5
ATOM      2  N   LIG    1        8.031   3.793   0.264  0.00  0.00    -0.460 N 
ATOM      3  C   LIG    1        7.139   3.776   1.452  0.00  0.00    +0.170 C 
ATOM      4  C   LIG    1        5.711   3.809   0.868  0.00  0.00    +0.030 C 
ATOM      5  C   LIG    1        5.849   3.239  -0.559  0.00  0.00    -0.010 C 
ATOM      6  C   LIG    1        7.349   2.910  -0.716  0.00  0.00    +0.190 C 
BRANCH   2  14
ATOM      7  C   LIG    1        9.614   5.267   2.112  0.00  0.00    +0.110 C 
ATOM      8  C   LIG    1       10.106   3.990   1.481  0.00  0.00    -0.090 A 
ATOM      9  C   LIG    1       11.359   3.503   1.794  0.00  0.00    +0.040 A 
ATOM     10  C   LIG    1       11.813   2.332   1.215  0.00  0.00    +0.000 A 
ATOM     11  C   LIG    1       11.012   1.644   0.320  0.00  0.00    -0.020 A 
ATOM     12  C   LIG    1        9.754   2.124   0.006  0.00  0.00    -0.020 A 
ATOM     13 CL   LIG    1       11.585   0.174  -0.405  0.00  0.00    -0.070 Cl
ATOM     14  C   LIG    1        9.299   3.303   0.583  0.00  0.00    +0.110 A 
ENDBRANCH   2  14
ENDBRANCH   1   5
BRANCH   1  15
ATOM     15  N   LIG    1        3.587   2.310  -0.605  0.00  0.00    -0.730 N 
ATOM     16  H   LIG    1        3.318   3.231  -0.463  0.00  0.00    +0.390 HD
ATOM     17  C   LIG    1        2.653   1.343  -0.706  0.00  0.00    +0.590 C 
ATOM     18  O   LIG    1        2.991   0.177  -0.793  0.00  0.00    -0.550 OA
BRANCH  17  19
ATOM     19  C   LIG    1        1.233   1.695  -0.712  0.00  0.00    -0.290 A 
ATOM     20  C   LIG    1        0.146   0.844  -0.914  0.00  0.00    +0.350 A 
ATOM     21  N   LIG    1       -0.976   1.538  -0.850  0.00  0.00    -0.550 NA
ATOM     22  C   LIG    1       -0.760   2.826  -0.608  0.00  0.00    +0.280 A 
ATOM     23  N   LIG    1       -1.593   3.902  -0.458  0.00  0.00    -0.490 N 
ATOM     24  H   LIG    1       -2.553   3.778  -0.525  0.00  0.00    +0.430 HD
ATOM     25  C   LIG    1       -1.098   5.126  -0.217  0.00  0.00    +0.340 A 
ATOM     26  C   LIG    1        0.241   5.350  -0.115  0.00  0.00    -0.050 A 
ATOM     27  C   LIG    1        1.139   4.296  -0.258  0.00  0.00    +0.170 A 
ATOM     28  C   LIG    1        0.639   3.024  -0.507  0.00  0.00    -0.140 A 
ENDBRANCH  17  19
ENDBRANCH   1  15
TORSDOF 4
