REMARK  Name = ZINCpk000000n28m.0
REMARK                            x       y       z     vdW  Elec       q    Type
REMARK                         _______ _______ _______ _____ _____    ______ ____
ROOT
ATOM      1  C   LIG    1        2.459  -4.040   0.457  0.00  0.00    +0.550 C 
ATOM      2  N   LIG    1        3.581  -4.782   0.543  0.00  0.00    -0.650 N 
ATOM      3  C   LIG    1        4.993  -4.614   0.170  0.00  0.00    +0.260 C 
ATOM      4  C   LIG    1        5.349  -5.596   1.299  0.00  0.00    +0.000 C 
ATOM      5  C   LIG    1        3.929  -6.120   1.045  0.00  0.00    +0.290 C 
ATOM      6  O   LIG    1        1.406  -4.481   0.865  0.00  0.00    -0.510 OA
ENDROOT
BRANCH   1   7
ATOM      7  C   LIG    1        2.514  -2.660  -0.147  0.00  0.00    +0.170 C 
ATOM      8  C   LIG    1        2.886  -2.765  -1.627  0.00  0.00    +0.060 C 
BRANCH   7   9
ATOM      9  O   LIG    1        1.236  -2.034  -0.020  0.00  0.00    -0.280 OA
BRANCH   9  14
ATOM     10  C   LIG    1        0.005   1.393   0.222  0.00  0.00    -0.130 A 
ATOM     11  C   LIG    1        1.187   2.103  -0.008  0.00  0.00    +0.030 A 
ATOM     12  C   LIG    1        2.365   1.423  -0.239  0.00  0.00    +0.040 A 
ATOM     13  C   LIG    1        2.381   0.040  -0.243  0.00  0.00    -0.050 A 
ATOM     14  C   LIG    1        1.212  -0.675  -0.015  0.00  0.00    +0.120 A 
ATOM     15  C   LIG    1        0.024  -0.005   0.217  0.00  0.00    +0.050 A 
BRANCH  10  17
ATOM     16  C   LIG    1       -1.272   3.621   0.466  0.00  0.00    +0.080 C 
ATOM     17  C   LIG    1       -1.256   2.114   0.462  0.00  0.00    +0.390 C 
ATOM     18  O   LIG    1       -2.280   1.496   0.656  0.00  0.00    -0.450 OA
ENDBRANCH  10  17
ENDBRANCH   9  14
ENDBRANCH   7   9
ENDBRANCH   1   7
BRANCH   4  19
ATOM     19  C   LIG    1        6.457  -6.587   0.939  0.00  0.00    +0.200 C 
BRANCH  19  20
ATOM     20  N   LIG    1        7.759  -6.031   1.332  0.00  0.00    -0.540 NA
ATOM     21  C   LIG    1        8.087  -4.842   0.531  0.00  0.00    +0.140 C 
ATOM     22  C   LIG    1        9.419  -4.261   1.012  0.00  0.00    +0.220 C 
ATOM     23  O   LIG    1       10.431  -5.268   0.927  0.00  0.00    -0.380 OA
ATOM     24  C   LIG    1       10.144  -6.439   1.696  0.00  0.00    +0.220 C 
ATOM     25  C   LIG    1        8.819  -7.043   1.221  0.00  0.00    +0.150 C 
ENDBRANCH  19  20
ENDBRANCH   4  19
TORSDOF 6
