REMARK  Name = ZINCpe000000ZD89.0
REMARK                            x       y       z     vdW  Elec       q    Type
REMARK                         _______ _______ _______ _____ _____    ______ ____
ROOT
ATOM      1  C   LIG    1        0.034   7.548   2.103  0.00  0.00    +0.200 A 
ATOM      2  N   LIG    1       -1.052   7.906   2.743  0.00  0.00    -0.470 NA
ATOM      3  C   LIG    1       -1.327   9.159   2.316  0.00  0.00    +0.200 A 
ATOM      4  N   LIG    1       -0.402   9.485   1.452  0.00  0.00    -0.360 NA
ATOM      5  O   LIG    1        0.388   8.574   1.324  0.00  0.00    +0.110 OA
ENDROOT
BRANCH   3   6
ATOM      6  C   LIG    1       -2.466  10.007   2.749  0.00  0.00    +0.030 A 
ATOM      7  C   LIG    1       -3.383   9.524   3.681  0.00  0.00    +0.080 A 
ATOM      8  C   LIG    1       -4.437  10.318   4.083  0.00  0.00    +0.110 A 
ATOM      9  C   LIG    1       -4.591  11.588   3.557  0.00  0.00    -0.030 A 
ATOM     10  C   LIG    1       -3.686  12.071   2.628  0.00  0.00    +0.110 A 
ATOM     11  C   LIG    1       -2.626  11.287   2.222  0.00  0.00    +0.080 A 
BRANCH   9  12
ATOM     12  N   LIG    1       -5.727  12.433   3.988  0.00  0.00    +0.020 N 
ATOM     13  O   LIG    1       -6.524  12.010   4.806  0.00  0.00    -0.150 OA
ATOM     14  O   LIG    1       -5.864  13.551   3.526  0.00  0.00    -0.150 OA
ENDBRANCH   9  12
ENDBRANCH   3   6
BRANCH   1  15
ATOM     15  C   LIG    1        0.751   6.229   2.228  0.00  0.00    +0.360 C 
BRANCH  15  23
ATOM     16  O   LIG    1       -2.241   1.273  -0.052  0.00  0.00    -0.580 OA
ATOM     17  C   LIG    1       -1.116   1.729   0.016  0.00  0.00    +0.700 C 
ATOM     18  N   LIG    1       -0.011   0.966   0.007  0.00  0.00    -0.740 N 
ATOM     19  H   LIG    1        0.002  -0.004   0.002  0.00  0.00    +0.430 HD
ATOM     20  C   LIG    1        1.177   1.835   0.001  0.00  0.00    +0.270 C 
ATOM     21  C   LIG    1        0.593   3.255  -0.058  0.00  0.00    +0.230 C 
ATOM     22  C   LIG    1        1.060   4.085   1.141  0.00  0.00    +0.200 C 
ATOM     23  N   LIG    1        0.210   5.281   1.245  0.00  0.00    -0.540 NA
ATOM     24  C   LIG    1       -1.186   4.949   1.548  0.00  0.00    +0.170 C 
ATOM     25  C   LIG    1       -1.791   4.136   0.393  0.00  0.00    +0.340 C 
ATOM     26  N   LIG    1       -0.860   3.033   0.110  0.00  0.00    -0.630 N 
ENDBRANCH  15  23
ENDBRANCH   1  15
TORSDOF 4
