REMARK  Name = ZINCtV000002GRBI.0
REMARK                            x       y       z     vdW  Elec       q    Type
REMARK                         _______ _______ _______ _____ _____    ______ ____
ROOT
ATOM      1  C   LIG    1        3.501   3.573  -0.299  0.00  0.00    +0.510 C 
ATOM      2  N   LIG    1        3.508   2.226  -0.264  0.00  0.00    -0.670 N 
ATOM      3  H   LIG    1        4.351   1.746  -0.234  0.00  0.00    +0.410 HD
ATOM      4  O   LIG    1        2.449   4.176  -0.256  0.00  0.00    -0.500 OA
ENDROOT
BRANCH   2   5
ATOM      5  C   LIG    1        2.302   1.521  -0.269  0.00  0.00    +0.160 A 
ATOM      6  C   LIG    1        1.190   2.038   0.378  0.00  0.00    +0.020 A 
ATOM      7  C   LIG    1       -0.002   1.339   0.371  0.00  0.00    +0.030 A 
ATOM      8  C   LIG    1       -0.094   0.121  -0.279  0.00  0.00    +0.000 A 
ATOM      9  C   LIG    1        1.005  -0.406  -0.927  0.00  0.00    +0.040 A 
ATOM     10  C   LIG    1        2.212   0.289  -0.928  0.00  0.00    -0.080 A 
BRANCH  10  11
ATOM     11  C   LIG    1        3.395  -0.273  -1.623  0.00  0.00    -0.050 A 
ATOM     12  C   LIG    1        4.117   0.511  -2.521  0.00  0.00    +0.010 A 
ATOM     13  C   LIG    1        5.220  -0.016  -3.161  0.00  0.00    +0.000 A 
ATOM     14  C   LIG    1        5.604  -1.323  -2.921  0.00  0.00    +0.000 A 
ATOM     15  C   LIG    1        4.888  -2.108  -2.035  0.00  0.00    +0.010 A 
ATOM     16  C   LIG    1        3.786  -1.590  -1.385  0.00  0.00    +0.020 A 
ENDBRANCH  10  11
ENDBRANCH   2   5
BRANCH   1  17
ATOM     17  C   LIG    1        4.800   4.332  -0.391  0.00  0.00    +0.150 C 
BRANCH  17  23
ATOM     18  C   LIG    1        3.611   9.987   3.368  0.00  0.00    +0.090 C 
ATOM     19  C   LIG    1        3.859   8.827   2.439  0.00  0.00    -0.060 A 
ATOM     20  C   LIG    1        4.085   7.564   2.964  0.00  0.00    -0.090 A 
ATOM     21  C   LIG    1        4.314   6.494   2.126  0.00  0.00    +0.060 A 
ATOM     22  C   LIG    1        4.317   6.689   0.746  0.00  0.00    -0.110 A 
ATOM     23  C   LIG    1        4.518   5.812  -0.414  0.00  0.00    -0.170 A 
ATOM     24  C   LIG    1        4.405   6.593  -1.497  0.00  0.00    +0.240 A 
ATOM     25  O   LIG    1        4.147   7.860  -1.129  0.00  0.00    -0.190 OA
ATOM     26  C   LIG    1        4.087   7.969   0.213  0.00  0.00    +0.050 A 
ATOM     27  C   LIG    1        3.859   9.033   1.075  0.00  0.00    +0.020 A 
BRANCH  20  28
ATOM     28  C   LIG    1        4.081   7.360   4.457  0.00  0.00    +0.030 C 
ATOM     29  C   LIG    1        5.399   6.713   4.887  0.00  0.00    +0.020 C 
ATOM     30  C   LIG    1        2.916   6.447   4.844  0.00  0.00    +0.030 C 
ENDBRANCH  20  28
ENDBRANCH  17  23
ENDBRANCH   1  17
TORSDOF 5
