REMARK  Name = ZINCqH0000001OzX.0
REMARK                            x       y       z     vdW  Elec       q    Type
REMARK                         _______ _______ _______ _____ _____    ______ ____
ROOT
ATOM      1  N   LIG    1        1.237  -2.072  -0.021  0.00  0.00    -0.670 N 
ATOM      2  H   LIG    1        0.409  -2.572   0.052  0.00  0.00    +0.410 HD
ATOM      3  C   LIG    1        2.410  -2.726  -0.137  0.00  0.00    +0.560 C 
ATOM      4  O   LIG    1        3.455  -2.103  -0.144  0.00  0.00    -0.490 OA
ENDROOT
BRANCH   1   9
ATOM      5  C   LIG    1       -0.264   3.517  -0.764  0.00  0.00    +0.260 A 
ATOM      6  N   LIG    1       -0.720   2.336  -1.055  0.00  0.00    -0.480 NA
ATOM      7  C   LIG    1        0.143   1.401  -0.575  0.00  0.00    +0.040 A 
ATOM      8  C   LIG    1        0.162   0.006  -0.593  0.00  0.00    +0.050 A 
ATOM      9  C   LIG    1        1.214  -0.672  -0.005  0.00  0.00    +0.150 A 
ATOM     10  C   LIG    1        2.251   0.031   0.603  0.00  0.00    +0.070 A 
ATOM     11  C   LIG    1        2.240   1.410   0.625  0.00  0.00    +0.070 A 
ATOM     12  C   LIG    1        1.191   2.103   0.040  0.00  0.00    -0.000 A 
ATOM     13  O   LIG    1        0.899   3.416  -0.100  0.00  0.00    -0.210 OA
BRANCH   5  15
ATOM     14  C   LIG    1       -1.253   5.598   0.152  0.00  0.00    +0.060 C 
ATOM     15  C   LIG    1       -0.939   4.815  -1.124  0.00  0.00    +0.120 C 
ATOM     16  C   LIG    1       -0.011   5.643  -2.015  0.00  0.00    +0.060 C 
ENDBRANCH   5  15
ENDBRANCH   1   9
BRANCH   3  17
ATOM     17  C   LIG    1        2.427  -4.194  -0.256  0.00  0.00    -0.130 A 
ATOM     18  C   LIG    1        1.229  -4.914  -0.249  0.00  0.00    +0.070 A 
ATOM     19  C   LIG    1        1.252  -6.287  -0.361  0.00  0.00    -0.010 A 
ATOM     20  C   LIG    1        2.457  -6.961  -0.480  0.00  0.00    +0.070 A 
ATOM     21  C   LIG    1        3.648  -6.266  -0.489  0.00  0.00    -0.020 A 
ATOM     22  C   LIG    1        3.646  -4.880  -0.384  0.00  0.00    -0.060 A 
BRANCH  22  23
ATOM     23  S   LIG    1        5.166  -3.988  -0.402  0.00  0.00    +0.090 S 
BRANCH  23  24
ATOM     24  C   LIG    1        6.407  -5.299  -0.581  0.00  0.00    +0.030 C 
BRANCH  24  25
ATOM     25  C   LIG    1        7.783  -4.686  -0.614  0.00  0.00    +0.540 C 
ATOM     26  O   LIG    1        7.915  -3.484  -0.525  0.00  0.00    -0.520 OA
ATOM     27  N   LIG    1        8.869  -5.475  -0.741  0.00  0.00    -0.850 N 
ATOM     28  H   LIG    1        9.755  -5.081  -0.762  0.00  0.00    +0.410 HD
ATOM     29  H   LIG    1        8.764  -6.437  -0.812  0.00  0.00    +0.400 HD
ENDBRANCH  24  25
ENDBRANCH  23  24
ENDBRANCH  22  23
ENDBRANCH   3  17
TORSDOF 6
