REMARK  Name = ZINCqH0000031OZX.0
REMARK                            x       y       z     vdW  Elec       q    Type
REMARK                         _______ _______ _______ _____ _____    ______ ____
ROOT
ATOM      1  C   LIG    1       -0.730   1.580   1.266  0.00  0.00    +0.270 C 
ENDROOT
BRANCH   1   7
ATOM      2  C   LIG    1        3.231   0.581  -1.289  0.00  0.00    +0.650 C 
ATOM      3  N   LIG    1        2.057   1.242  -1.275  0.00  0.00    -0.600 N 
ATOM      4  C   LIG    1        1.385   1.603  -2.531  0.00  0.00    +0.270 C 
ATOM      5  C   LIG    1       -0.051   1.072  -2.492  0.00  0.00    +0.020 C 
ATOM      6  C   LIG    1       -0.749   1.593  -1.234  0.00  0.00    +0.030 C 
ATOM      7  C   LIG    1       -0.013   1.086   0.008  0.00  0.00    -0.030 C 
ATOM      8  C   LIG    1        1.424   1.617  -0.003  0.00  0.00    +0.300 C 
ATOM      9  O   LIG    1        3.776   0.288  -0.244  0.00  0.00    -0.570 OA
BRANCH   2  10
ATOM     10  O   LIG    1        3.800   0.244  -2.462  0.00  0.00    -0.360 OA
BRANCH  10  12
ATOM     11  C   LIG    1        4.873  -1.783  -1.645  0.00  0.00    +0.040 C 
ATOM     12  C   LIG    1        5.064  -0.467  -2.402  0.00  0.00    +0.140 C 
ATOM     13  C   LIG    1        6.099   0.394  -1.675  0.00  0.00    +0.040 C 
ATOM     14  C   LIG    1        5.552  -0.762  -3.822  0.00  0.00    +0.080 C 
ENDBRANCH  10  12
ENDBRANCH   2  10
ENDBRANCH   1   7
BRANCH   1  15
ATOM     15  N   LIG    1       -0.095   0.998   2.451  0.00  0.00    -0.750 N 
ATOM     16  H   LIG    1        0.662   0.400   2.351  0.00  0.00    +0.400 HD
BRANCH  15  17
ATOM     17  C   LIG    1       -0.579   1.305   3.725  0.00  0.00    +0.220 A 
ATOM     18  C   LIG    1       -1.664   2.162   3.868  0.00  0.00    -0.040 A 
ATOM     19  C   LIG    1       -2.147   2.469   5.127  0.00  0.00    +0.060 A 
ATOM     20  C   LIG    1       -1.556   1.925   6.249  0.00  0.00    -0.010 A 
ATOM     21  C   LIG    1       -0.465   1.064   6.116  0.00  0.00    +0.020 A 
ATOM     22  C   LIG    1        0.019   0.750   4.846  0.00  0.00    +0.000 A 
BRANCH  21  23
ATOM     23  C   LIG    1        0.171   0.481   7.316  0.00  0.00    +0.210 A 
ATOM     24  N   LIG    1        1.196  -0.338   7.335  0.00  0.00    -0.280 NA
ATOM     25  N   LIG    1        1.477  -0.639   8.554  0.00  0.00    -0.290 NA
ATOM     26  C   LIG    1        0.649  -0.029   9.355  0.00  0.00    +0.420 A 
ATOM     27  O   LIG    1       -0.192   0.696   8.597  0.00  0.00    -0.220 OA
ENDBRANCH  21  23
ENDBRANCH  15  17
ENDBRANCH   1  15
TORSDOF 6
