REMARK  Name = ZINCpe00000MJJHr.0
REMARK                            x       y       z     vdW  Elec       q    Type
REMARK                         _______ _______ _______ _____ _____    ______ ____
ROOT
ATOM      1  N   LIG    1        2.175   1.062   1.097  0.00  0.00    -0.690 N 
ATOM      2  H   LIG    1        1.731   0.496   1.748  0.00  0.00    +0.420 HD
ENDROOT
BRANCH   1   7
ATOM      3  C   LIG    1        7.602   2.168   1.740  0.00  0.00    +0.350 C 
ATOM      4  N   LIG    1        6.176   1.898   1.546  0.00  0.00    -0.560 N 
ATOM      5  C   LIG    1        5.507   2.529   0.561  0.00  0.00    +0.590 A 
ATOM      6  C   LIG    1        4.123   2.263   0.379  0.00  0.00    -0.320 A 
ATOM      7  C   LIG    1        3.502   1.348   1.235  0.00  0.00    +0.540 A 
ATOM      8  N   LIG    1        4.242   0.748   2.218  0.00  0.00    -0.540 N 
ATOM      9  C   LIG    1        3.604  -0.208   3.126  0.00  0.00    +0.360 C 
ATOM     10  O   LIG    1        6.082   3.319  -0.165  0.00  0.00    -0.510 OA
ATOM     11  C   LIG    1        5.551   1.024   2.353  0.00  0.00    +0.710 A 
ATOM     12  O   LIG    1        6.185   0.472   3.232  0.00  0.00    -0.520 OA
BRANCH   6  13
ATOM     13  C   LIG    1        3.382   2.916  -0.658  0.00  0.00    +0.300 C 
ATOM     14  N   LIG    1        2.794   3.434  -1.480  0.00  0.00    -0.440 NA
ENDBRANCH   6  13
ENDBRANCH   1   7
BRANCH   1  15
ATOM     15  C   LIG    1        1.422   1.610  -0.033  0.00  0.00    +0.320 C 
BRANCH  15  16
ATOM     16  C   LIG    1        0.002   1.039  -0.025  0.00  0.00    +0.130 C 
ATOM     17  C   LIG    1       -0.813   1.561  -1.234  0.00  0.00    +0.230 C 
ATOM     18  O   LIG    1       -2.173   1.478  -0.766  0.00  0.00    -0.370 OA
ATOM     19  C   LIG    1       -2.142   1.466   0.674  0.00  0.00    +0.270 C 
ATOM     20  C   LIG    1       -2.842   2.761   1.155  0.00  0.00    +0.030 C 
ATOM     21  C   LIG    1       -4.100   2.967   0.361  0.00  0.00    +0.020 C 
ATOM     22  C   LIG    1       -5.350   2.383   1.052  0.00  0.00    +0.000 C 
ATOM     23  C   LIG    1       -5.093   1.002   1.682  0.00  0.00    +0.000 C 
ATOM     24  C   LIG    1       -4.251   0.126   0.792  0.00  0.00    +0.040 C 
ATOM     25  C   LIG    1       -2.782   0.273   1.221  0.00  0.00    +0.020 C 
ATOM     26  O   LIG    1       -0.759   1.561   1.088  0.00  0.00    -0.370 OA
ENDBRANCH  15  16
ENDBRANCH   1  15
TORSDOF 4
