REMARK  Name = ZINCrg00000xT01k.0
REMARK                            x       y       z     vdW  Elec       q    Type
REMARK                         _______ _______ _______ _____ _____    ______ ____
ROOT
ATOM      1  C   LIG    1        0.432   1.369  -7.368  0.00  0.00    +0.230 C 
ATOM      2  C   LIG    1        1.529   2.418  -7.664  0.00  0.00    +0.030 C 
ATOM      3  C   LIG    1        1.169   2.957  -9.084  0.00  0.00    +0.010 C 
ATOM      4  C   LIG    1       -0.401   2.920  -9.014  0.00  0.00    +0.030 C 
ATOM      5  C   LIG    1        1.413   1.735 -10.023  0.00  0.00    +0.270 C 
ATOM      6  N   LIG    1        0.330   0.780  -9.707  0.00  0.00    -0.600 N 
ATOM      7  C   LIG    1        0.122  -0.420 -10.285  0.00  0.00    +0.630 C 
ATOM      8  O   LIG    1       -0.814  -1.113  -9.929  0.00  0.00    -0.540 OA
ATOM      9  C   LIG    1       -0.488   1.402  -8.627  0.00  0.00    +0.260 C 
ENDROOT
BRANCH   7  10
ATOM     10  C   LIG    1        1.023  -0.892 -11.342  0.00  0.00    -0.100 A 
ATOM     11  C   LIG    1        0.931  -2.115 -12.023  0.00  0.00    +0.130 A 
ATOM     12  C   LIG    1        0.041  -3.195 -11.959  0.00  0.00    +0.080 A 
ATOM     13  C   LIG    1        0.229  -4.262 -12.787  0.00  0.00    +0.090 A 
ATOM     14  C   LIG    1        1.303  -4.255 -13.690  0.00  0.00    +0.040 A 
ATOM     15  C   LIG    1        2.147  -3.201 -13.740  0.00  0.00    +0.280 A 
ATOM     16  N   LIG    1        1.968  -2.131 -12.917  0.00  0.00    -0.280 N 
ATOM     17  N   LIG    1        2.660  -0.926 -12.745  0.00  0.00    -0.100 NA
ATOM     18  N   LIG    1        2.085  -0.234 -11.825  0.00  0.00    -0.170 NA
ENDBRANCH   7  10
BRANCH   1  20
ATOM     19  C   LIG    1        0.077   1.320  -4.957  0.00  0.00    +0.510 C 
ATOM     20  N   LIG    1       -0.326   1.745  -6.171  0.00  0.00    -0.730 N 
ATOM     21  H   LIG    1       -1.117   2.300  -6.253  0.00  0.00    +0.400 HD
ATOM     22  O   LIG    1        1.067   0.627  -4.856  0.00  0.00    -0.520 OA
BRANCH  19  23
ATOM     23  C   LIG    1       -0.702   1.707  -3.727  0.00  0.00    +0.020 C 
BRANCH  23  24
ATOM     24  C   LIG    1       -0.037   1.099  -2.490  0.00  0.00    +0.220 C 
BRANCH  24  25
ATOM     25  O   LIG    1       -0.119  -0.326  -2.557  0.00  0.00    -0.540 OA
ATOM     26  H   LIG    1       -1.023  -0.666  -2.591  0.00  0.00    +0.370 HD
ENDBRANCH  24  25
BRANCH  24  27
ATOM     27  C   LIG    1       -0.753   1.593  -1.232  0.00  0.00    -0.010 C 
BRANCH  27  29
ATOM     28  C   LIG    1       -0.729   1.579   1.267  0.00  0.00    +0.000 C 
ATOM     29  C   LIG    1       -0.013   1.086   0.008  0.00  0.00    +0.010 C 
ENDBRANCH  27  29
ENDBRANCH  24  27
ENDBRANCH  23  24
ENDBRANCH  19  23
ENDBRANCH   1  20
TORSDOF 7
