REMARK  Name = ZINCqH0000006AtT.0
REMARK                            x       y       z     vdW  Elec       q    Type
REMARK                         _______ _______ _______ _____ _____    ______ ____
ROOT
ATOM      1  C   LIG    1       -1.345   5.809   0.675  0.00  0.00    +0.500 C 
ATOM      2  N   LIG    1       -1.433   7.067   1.150  0.00  0.00    -0.670 N 
ATOM      3  H   LIG    1       -0.689   7.680   1.040  0.00  0.00    +0.420 HD
ATOM      4  O   LIG    1       -2.305   5.069   0.736  0.00  0.00    -0.500 OA
ENDROOT
BRANCH   2   5
ATOM      5  C   LIG    1       -2.596   7.489   1.803  0.00  0.00    +0.160 A 
ATOM      6  C   LIG    1       -3.837   7.027   1.382  0.00  0.00    +0.030 A 
ATOM      7  C   LIG    1       -4.985   7.438   2.030  0.00  0.00    +0.050 A 
ATOM      8  C   LIG    1       -4.904   8.320   3.091  0.00  0.00    +0.010 A 
ATOM      9  C   LIG    1       -3.668   8.789   3.513  0.00  0.00    +0.110 A 
ATOM     10  C   LIG    1       -2.513   8.373   2.869  0.00  0.00    -0.010 A 
BRANCH   9  11
ATOM     11  O   LIG    1       -3.589   9.656   4.557  0.00  0.00    -0.240 OA
BRANCH  11  12
ATOM     12  C   LIG    1       -3.343  10.961   4.284  0.00  0.00    +0.270 A 
ATOM     13  C   LIG    1       -3.147  11.866   5.322  0.00  0.00    +0.230 A 
ATOM     14  N   LIG    1       -2.908  13.136   5.052  0.00  0.00    -0.400 NA
ATOM     15  C   LIG    1       -2.854  13.548   3.797  0.00  0.00    +0.190 A 
ATOM     16  C   LIG    1       -3.048  12.651   2.763  0.00  0.00    +0.270 A 
ATOM     17  N   LIG    1       -3.284  11.377   3.026  0.00  0.00    -0.480 NA
ENDBRANCH  11  12
ENDBRANCH   9  11
ENDBRANCH   2   5
BRANCH   1  18
ATOM     18  C   LIG    1       -0.055   5.320   0.068  0.00  0.00    +0.150 C 
ATOM     19  C   LIG    1       -0.012   5.701  -1.413  0.00  0.00    +0.100 C 
BRANCH  18  20
ATOM     20  C   LIG    1        0.029   3.822   0.204  0.00  0.00    -0.110 A 
ATOM     21  C   LIG    1        0.600   3.067  -0.804  0.00  0.00    +0.040 A 
ATOM     22  C   LIG    1        0.676   1.693  -0.679  0.00  0.00    +0.010 A 
ATOM     23  C   LIG    1        0.182   1.073   0.453  0.00  0.00    +0.010 A 
ATOM     24  C   LIG    1       -0.393   1.827   1.459  0.00  0.00    +0.000 A 
ATOM     25  C   LIG    1       -0.466   3.202   1.336  0.00  0.00    +0.040 A 
ENDBRANCH  18  20
BRANCH  18  27
ATOM     26  C   LIG    1        1.102   5.628   2.144  0.00  0.00    +0.210 C 
ATOM     27  O   LIG    1        1.048   5.923   0.747  0.00  0.00    -0.360 OA
ENDBRANCH  18  27
ENDBRANCH   1  18
TORSDOF 6
