REMARK  Name = ZINCrg000000sCLz.0
REMARK                            x       y       z     vdW  Elec       q    Type
REMARK                         _______ _______ _______ _____ _____    ______ ____
ROOT
ATOM      1  C   LIG    1       -0.013   1.086   0.008  0.00  0.00    +0.240 C 
ATOM      2  C   LIG    1       -0.729   1.579   1.268  0.00  0.00    +0.000 C 
ATOM      3  C   LIG    1       -2.154   1.019   1.293  0.00  0.00    +0.280 C 
ATOM      4  N   LIG    1       -2.826   1.380   0.037  0.00  0.00    -0.610 N 
ATOM      5  C   LIG    1       -2.178   1.033  -1.236  0.00  0.00    +0.280 C 
ATOM      6  C   LIG    1       -4.013   2.017   0.052  0.00  0.00    +0.520 C 
ATOM      7  O   LIG    1       -4.558   2.309  -0.992  0.00  0.00    -0.530 OA
ATOM      8  C   LIG    1       -0.752   1.593  -1.232  0.00  0.00    +0.020 C 
ENDROOT
BRANCH   1  10
ATOM      9  C   LIG    1        2.331   0.925   0.654  0.00  0.00    +0.600 C 
ATOM     10  N   LIG    1        1.362   1.593  -0.002  0.00  0.00    -0.730 N 
ATOM     11  H   LIG    1        1.574   2.409  -0.482  0.00  0.00    +0.400 HD
ATOM     12  O   LIG    1        2.065  -0.098   1.255  0.00  0.00    -0.550 OA
BRANCH   9  16
ATOM     13  C   LIG    1        7.236   1.399   1.481  0.00  0.00    +0.360 C 
ATOM     14  N   LIG    1        5.869   1.638   1.010  0.00  0.00    -0.360 N 
ATOM     15  C   LIG    1        4.804   0.861   1.268  0.00  0.00    +0.320 A 
ATOM     16  C   LIG    1        3.714   1.435   0.644  0.00  0.00    -0.300 A 
ATOM     17  C   LIG    1        4.174   2.599  -0.012  0.00  0.00    +0.270 A 
ATOM     18  N   LIG    1        5.453   2.713   0.217  0.00  0.00    -0.290 NA
ENDBRANCH   9  16
ENDBRANCH   1  10
BRANCH   6  19
ATOM     19  C   LIG    1       -4.665   2.366   1.365  0.00  0.00    +0.050 C 
BRANCH  19  20
ATOM     20  C   LIG    1       -5.993   3.079   1.102  0.00  0.00    +0.300 C 
BRANCH  20  21
ATOM     21  N   LIG    1       -6.626   3.418   2.379  0.00  0.00    -0.730 N 
ATOM     22  H   LIG    1       -6.190   3.185   3.213  0.00  0.00    +0.400 HD
ATOM     23  C   LIG    1       -7.814   4.055   2.394  0.00  0.00    +0.580 C 
ATOM     24  O   LIG    1       -8.360   4.348   1.347  0.00  0.00    -0.530 OA
BRANCH  23  25
ATOM     25  C   LIG    1       -8.450   4.397   3.676  0.00  0.00    -0.150 A 
ATOM     26  C   LIG    1       -7.905   4.098   4.886  0.00  0.00    -0.050 A 
ATOM     27  S   LIG    1       -8.908   4.642   6.153  0.00  0.00    +0.190 S 
ATOM     28  C   LIG    1      -10.100   5.282   5.035  0.00  0.00    -0.060 A 
ATOM     29  C   LIG    1       -9.719   5.077   3.780  0.00  0.00    +0.070 A 
ENDBRANCH  23  25
ENDBRANCH  20  21
ENDBRANCH  19  20
ENDBRANCH   6  19
TORSDOF 6
