REMARK  Name = ZINCrH000004uWgr.0
REMARK                            x       y       z     vdW  Elec       q    Type
REMARK                         _______ _______ _______ _____ _____    ______ ____
ROOT
ATOM      1  O   LIG    1       -1.784  -0.414  -3.444  0.00  0.00    -0.540 OA
ATOM      2  C   LIG    1       -2.533   0.542  -3.500  0.00  0.00    +0.560 C 
ATOM      3  N   LIG    1       -2.771   1.278  -2.396  0.00  0.00    -0.710 N 
ATOM      4  H   LIG    1       -3.368   2.041  -2.441  0.00  0.00    +0.400 HD
ENDROOT
BRANCH   2   5
ATOM      5  C   LIG    1       -3.183   0.897  -4.778  0.00  0.00    -0.140 A 
ATOM      6  C   LIG    1       -4.049   1.992  -4.842  0.00  0.00    +0.050 A 
ATOM      7  C   LIG    1       -4.651   2.324  -6.035  0.00  0.00    +0.010 A 
ATOM      8  C   LIG    1       -4.404   1.562  -7.177  0.00  0.00    -0.020 A 
ATOM      9  C   LIG    1       -3.545   0.465  -7.113  0.00  0.00    +0.010 A 
ATOM     10  C   LIG    1       -2.938   0.134  -5.923  0.00  0.00    +0.090 A 
BRANCH   8  11
ATOM     11  C   LIG    1       -5.058   1.917  -8.460  0.00  0.00    -0.060 A 
ATOM     12  C   LIG    1       -4.810   1.161  -9.604  0.00  0.00    +0.020 A 
ATOM     13  C   LIG    1       -5.426   1.493 -10.794  0.00  0.00    +0.010 A 
ATOM     14  C   LIG    1       -6.278   2.581 -10.854  0.00  0.00    +0.010 A 
ATOM     15  C   LIG    1       -6.523   3.339  -9.723  0.00  0.00    +0.010 A 
ATOM     16  C   LIG    1       -5.918   3.013  -8.527  0.00  0.00    +0.020 A 
ENDBRANCH   8  11
ENDBRANCH   2   5
BRANCH   3  17
ATOM     17  C   LIG    1       -2.126   0.926  -1.129  0.00  0.00    +0.250 C 
ATOM     18  C   LIG    1       -0.747   1.586  -1.057  0.00  0.00    +0.010 C 
ATOM     19  C   LIG    1       -0.074   1.218   0.267  0.00  0.00    +0.020 C 
ATOM     20  C   LIG    1       -0.935   1.710   1.431  0.00  0.00    +0.010 C 
ATOM     21  C   LIG    1       -2.314   1.051   1.360  0.00  0.00    -0.010 C 
ATOM     22  C   LIG    1       -2.987   1.418   0.036  0.00  0.00    +0.170 C 
BRANCH  22  23
ATOM     23  N   LIG    1       -4.311   0.785  -0.033  0.00  0.00    -0.530 NA
ATOM     24  C   LIG    1       -5.253   1.431   0.893  0.00  0.00    +0.160 C 
ATOM     25  C   LIG    1       -6.631   0.781   0.747  0.00  0.00    +0.220 C 
ATOM     26  O   LIG    1       -6.517  -0.625   0.984  0.00  0.00    -0.380 OA
ATOM     27  C   LIG    1       -5.609  -1.286   0.099  0.00  0.00    +0.220 C 
ATOM     28  C   LIG    1       -4.220  -0.657   0.239  0.00  0.00    +0.150 C 
ENDBRANCH  22  23
ENDBRANCH   3  17
TORSDOF 4
