REMARK  Name = ZINCkj000005kZGR.1
REMARK                            x       y       z     vdW  Elec       q    Type
REMARK                         _______ _______ _______ _____ _____    ______ ____
ROOT
ATOM      1  N   LIG    1       -2.873   2.744   0.803  0.00  0.00    -0.510 N 
ATOM      2  C   LIG    1       -1.969   3.889   0.643  0.00  0.00    +0.310 C 
ATOM      3  C   LIG    1       -0.646   3.467   1.320  0.00  0.00    +0.110 C 
ATOM      4  C   LIG    1       -0.716   1.926   1.216  0.00  0.00    +0.170 C 
ATOM      5  C   LIG    1       -2.196   1.627   1.120  0.00  0.00    +0.500 C 
ATOM      6  O   LIG    1       -2.697   0.538   1.302  0.00  0.00    -0.440 OA
ENDROOT
BRANCH   4   7
ATOM      7  N   LIG    1       -0.018   1.460   0.010  0.00  0.00    -0.380 N 
ATOM      8  C   LIG    1       -0.216   0.016  -0.132  0.00  0.00    +0.280 C 
ATOM      9  C   LIG    1        0.187  -0.429  -1.542  0.00  0.00    +0.140 C 
ATOM     10  S   LIG    1        1.961  -0.095  -1.766  0.00  0.00    -0.180 S 
ATOM     11  C   LIG    1        2.082   1.644  -1.246  0.00  0.00    -0.060 C 
ATOM     12  C   LIG    1        1.379   2.537  -2.271  0.00  0.00    +0.080 C 
ATOM     13  C   LIG    1        3.554   2.047  -1.137  0.00  0.00    +0.130 C 
ATOM     14  C   LIG    1        1.405   1.790   0.121  0.00  0.00    +0.290 C 
ATOM     15  H   LIG    1       -0.404   1.928  -0.796  0.00  0.00    +0.420 HD
ENDBRANCH   4   7
BRANCH   1  20
ATOM     16  C   LIG    1       -7.641   1.527   0.720  0.00  0.00    +0.370 C 
ATOM     17  N   LIG    1       -6.402   2.298   0.598  0.00  0.00    -0.360 N 
ATOM     18  C   LIG    1       -6.305   3.585   0.201  0.00  0.00    +0.280 A 
ATOM     19  C   LIG    1       -4.997   3.929   0.228  0.00  0.00    -0.120 A 
ATOM     20  C   LIG    1       -4.264   2.807   0.647  0.00  0.00    +0.280 A 
ATOM     21  N   LIG    1       -5.111   1.830   0.872  0.00  0.00    -0.280 NA
ENDBRANCH   1  20
TORSDOF 2
