REMARK  Name = ZINCkj000005kZGR.2
REMARK                            x       y       z     vdW  Elec       q    Type
REMARK                         _______ _______ _______ _____ _____    ______ ____
ROOT
ATOM      1  N   LIG    1       -2.174   3.771  -1.456  0.00  0.00    -0.510 N 
ATOM      2  C   LIG    1       -2.970   2.580  -1.779  0.00  0.00    +0.310 C 
ATOM      3  C   LIG    1       -2.183   1.387  -1.192  0.00  0.00    +0.090 C 
ATOM      4  C   LIG    1       -0.738   1.939  -1.177  0.00  0.00    +0.170 C 
ATOM      5  C   LIG    1       -0.915   3.440  -1.120  0.00  0.00    +0.510 C 
ATOM      6  O   LIG    1       -0.047   4.231  -0.816  0.00  0.00    -0.470 OA
ENDROOT
BRANCH   4   7
ATOM      7  N   LIG    1       -0.018   1.460   0.010  0.00  0.00    -0.380 N 
ATOM      8  C   LIG    1       -0.774   1.824   1.210  0.00  0.00    +0.270 C 
ATOM      9  C   LIG    1        0.109   1.661   2.452  0.00  0.00    +0.140 C 
ATOM     10  S   LIG    1        0.569  -0.092   2.606  0.00  0.00    -0.180 S 
ATOM     11  C   LIG    1        1.195  -0.461   0.938  0.00  0.00    -0.060 C 
ATOM     12  C   LIG    1        1.414  -1.968   0.792  0.00  0.00    +0.130 C 
ATOM     13  C   LIG    1        2.513   0.280   0.708  0.00  0.00    +0.070 C 
ATOM     14  C   LIG    1        0.154   0.009  -0.085  0.00  0.00    +0.290 C 
ATOM     15  H   LIG    1        0.890   1.900   0.045  0.00  0.00    +0.430 HD
ENDBRANCH   4   7
BRANCH   1  20
ATOM     16  C   LIG    1       -5.186   7.640  -1.879  0.00  0.00    +0.380 C 
ATOM     17  N   LIG    1       -3.980   6.834  -1.674  0.00  0.00    -0.350 N 
ATOM     18  C   LIG    1       -2.746   7.308  -1.405  0.00  0.00    +0.270 A 
ATOM     19  C   LIG    1       -1.912   6.250  -1.282  0.00  0.00    -0.110 A 
ATOM     20  C   LIG    1       -2.664   5.083  -1.493  0.00  0.00    +0.290 A 
ATOM     21  N   LIG    1       -3.906   5.436  -1.725  0.00  0.00    -0.300 NA
ENDBRANCH   1  20
TORSDOF 2
