REMARK  Name = ZINCrD00000F5Lnu.0
REMARK                            x       y       z     vdW  Elec       q    Type
REMARK                         _______ _______ _______ _____ _____    ______ ____
ROOT
ATOM      1  C   LIG    1        4.833   1.087  -0.039  0.00  0.00    -0.710 A 
ATOM      2  C   LIG    1        3.635   1.764  -0.029  0.00  0.00    +0.210 A 
ATOM      3  C   LIG    1        2.430   1.050  -0.015  0.00  0.00    -0.140 A 
ATOM      4  C   LIG    1        2.452  -0.350  -0.023  0.00  0.00    +0.140 A 
ATOM      5  C   LIG    1        3.656  -1.017  -0.038  0.00  0.00    -0.080 A 
ATOM      6  C   LIG    1        4.849  -0.303  -0.046  0.00  0.00    +0.240 A 
ENDROOT
BRANCH   1   7
ATOM      7  S   LIG    1        6.350   1.984  -0.049  0.00  0.00    +2.700 S 
ATOM      8  O   LIG    1        6.002   3.361  -0.004  0.00  0.00    -0.960 OA
ATOM      9  O   LIG    1        7.145   1.417  -1.081  0.00  0.00    -0.940 OA
BRANCH   7  10
ATOM     10  N   LIG    1        7.126   1.651   1.376  0.00  0.00    -1.110 NA
ATOM     11  H   LIG    1        7.273   2.357   2.024  0.00  0.00    +0.420 HD
BRANCH  10  13
ATOM     12  C   LIG    1        8.578   0.319   2.824  0.00  0.00    +0.030 C 
ATOM     13  C   LIG    1        7.590   0.290   1.656  0.00  0.00    +0.270 C 
ENDBRANCH  10  13
ENDBRANCH   7  10
ENDBRANCH   1   7
BRANCH   3  14
ATOM     14  C   LIG    1        1.148   1.767   0.001  0.00  0.00    +0.170 C 
ATOM     15  C   LIG    1       -0.013   1.076   0.008  0.00  0.00    -0.080 C 
BRANCH  15  16
ATOM     16  C   LIG    1       -1.250   1.768   0.018  0.00  0.00    +0.500 C 
ATOM     17  O   LIG    1       -1.266   2.984   0.024  0.00  0.00    -0.510 OA
BRANCH  16  18
ATOM     18  O   LIG    1       -2.409   1.077   0.019  0.00  0.00    -0.350 OA
BRANCH  18  19
ATOM     19  C   LIG    1       -3.618   1.839   0.029  0.00  0.00    +0.210 C 
BRANCH  19  20
ATOM     20  C   LIG    1       -4.819   0.891   0.030  0.00  0.00    +0.000 C 
ATOM     21  C   LIG    1       -4.835   0.089   1.333  0.00  0.00    +0.020 C 
ATOM     22  C   LIG    1       -6.035  -0.859   1.333  0.00  0.00    +0.010 C 
ATOM     23  C   LIG    1       -7.327  -0.047   1.218  0.00  0.00    +0.000 C 
ATOM     24  C   LIG    1       -7.311   0.755  -0.085  0.00  0.00    -0.020 C 
ATOM     25  C   LIG    1       -7.204  -0.204  -1.272  0.00  0.00    +0.010 C 
ATOM     26  C   LIG    1       -6.110   1.703  -0.085  0.00  0.00    +0.030 C 
ENDBRANCH  19  20
ENDBRANCH  18  19
ENDBRANCH  16  18
ENDBRANCH  15  16
ENDBRANCH   3  14
BRANCH   6  27
ATOM     27  O   LIG    1        6.034  -0.966  -0.061  0.00  0.00    -0.310 OA
ATOM     28  C   LIG    1        5.978  -2.394  -0.068  0.00  0.00    +0.270 C 
ENDBRANCH   6  27
TORSDOF 9
