REMARK  Name = ZINCtV00001bB3SZ.0
REMARK                            x       y       z     vdW  Elec       q    Type
REMARK                         _______ _______ _______ _____ _____    ______ ____
ROOT
ATOM      1  C   LIG    1        1.978   1.617   0.841  0.00  0.00    -0.050 A 
ATOM      2  C   LIG    1        3.121   0.830   0.975  0.00  0.00    +0.010 A 
ATOM      3  C   LIG    1        4.348   1.350   0.680  0.00  0.00    +0.140 A 
ATOM      4  C   LIG    1        4.459   2.677   0.243  0.00  0.00    -0.070 A 
ATOM      5  C   LIG    1        3.307   3.465   0.109  0.00  0.00    +0.140 A 
ATOM      6  C   LIG    1        2.083   2.935   0.401  0.00  0.00    -0.040 A 
ENDROOT
BRANCH   4   7
ATOM      7  C   LIG    1        5.776   3.240  -0.075  0.00  0.00    +0.140 C 
ATOM      8  C   LIG    1        6.641   2.543  -0.849  0.00  0.00    -0.190 C 
ATOM      9  C   LIG    1        8.076   2.985  -0.967  0.00  0.00    +0.100 C 
ATOM     10  C   LIG    1        9.005   1.771  -0.999  0.00  0.00    +0.100 C 
ATOM     11  C   LIG    1        8.557   0.784  -2.043  0.00  0.00    -0.040 A 
ATOM     12  C   LIG    1        9.492   0.049  -2.744  0.00  0.00    +0.000 A 
ATOM     13  C   LIG    1        9.082  -0.893  -3.671  0.00  0.00    +0.050 A 
ATOM     14  C   LIG    1        7.734  -1.106  -3.904  0.00  0.00    -0.010 A 
ATOM     15  C   LIG    1        6.789  -0.371  -3.217  0.00  0.00    +0.070 A 
ATOM     16  C   LIG    1        7.198   0.585  -2.288  0.00  0.00    -0.160 A 
ATOM     17  C   LIG    1        6.199   1.397  -1.558  0.00  0.00    +0.430 C 
ATOM     18  O   LIG    1        5.021   1.087  -1.566  0.00  0.00    -0.440 OA
ENDBRANCH   4   7
BRANCH   6  19
ATOM     19  N   LIG    1        0.865   3.764   0.254  0.00  0.00    +0.030 N 
ATOM     20  O   LIG    1       -0.227   3.294   0.518  0.00  0.00    -0.150 OA
ATOM     21  O   LIG    1        0.955   4.916  -0.130  0.00  0.00    -0.160 OA
ENDBRANCH   6  19
BRANCH   1  22
ATOM     22  S   LIG    1        0.397   0.940   1.222  0.00  0.00    +0.130 S 
BRANCH  22  27
ATOM     23  C   LIG    1        1.746  -4.515   3.425  0.00  0.00    +0.100 C 
ATOM     24  C   LIG    1        1.409  -3.153   2.875  0.00  0.00    -0.050 A 
ATOM     25  C   LIG    1        1.421  -2.050   3.709  0.00  0.00    +0.000 A 
ATOM     26  C   LIG    1        1.113  -0.800   3.208  0.00  0.00    +0.070 A 
ATOM     27  C   LIG    1        0.791  -0.652   1.865  0.00  0.00    -0.200 A 
ATOM     28  C   LIG    1        0.774  -1.764   1.031  0.00  0.00    +0.080 A 
ATOM     29  C   LIG    1        1.089  -3.009   1.537  0.00  0.00    +0.000 A 
ENDBRANCH  22  27
ENDBRANCH   1  22
TORSDOF 4
