REMARK  Name = ZINCvU00000007gb.0
REMARK                            x       y       z     vdW  Elec       q    Type
REMARK                         _______ _______ _______ _____ _____    ______ ____
ROOT
ATOM      1  C   LIG    1       -1.262   2.845  -1.409  0.00  0.00    +0.120 A 
ATOM      2  N   LIG    1       -1.418   2.877  -2.713  0.00  0.00    -0.280 NA
ATOM      3  N   LIG    1       -1.392   1.684  -3.190  0.00  0.00    -0.260 NA
ATOM      4  C   LIG    1       -1.212   0.818  -2.220  0.00  0.00    +0.230 A 
ATOM      5  N   LIG    1       -1.120   1.535  -1.050  0.00  0.00    -0.440 N 
ENDROOT
BRANCH   5   6
ATOM      6  C   LIG    1       -0.918   1.004   0.301  0.00  0.00    +0.230 C 
ATOM      7  C   LIG    1        0.370   1.583   0.889  0.00  0.00    +0.040 C 
ATOM      8  C   LIG    1        0.263   3.107   0.951  0.00  0.00    +0.020 C 
ATOM      9  C   LIG    1       -0.922   3.499   1.836  0.00  0.00    +0.050 C 
ATOM     10  C   LIG    1       -2.211   2.921   1.248  0.00  0.00    +0.020 C 
ATOM     11  C   LIG    1       -2.103   1.396   1.185  0.00  0.00    +0.010 C 
ATOM     12  C   LIG    1       -3.392   0.818   0.597  0.00  0.00    +0.030 C 
ENDBRANCH   5   6
BRANCH   4  13
ATOM     13  C   LIG    1       -1.125  -0.652  -2.359  0.00  0.00    -0.070 A 
ATOM     14  C   LIG    1       -1.843  -1.316  -3.360  0.00  0.00    +0.120 A 
ATOM     15  C   LIG    1       -1.726  -2.692  -3.447  0.00  0.00    -0.010 A 
ATOM     16  C   LIG    1       -0.912  -3.361  -2.552  0.00  0.00    +0.270 A 
ATOM     17  N   LIG    1       -0.246  -2.708  -1.618  0.00  0.00    -0.480 NA
ATOM     18  C   LIG    1       -0.319  -1.399  -1.498  0.00  0.00    +0.270 A 
ENDBRANCH   4  13
BRANCH   1  19
ATOM     19  S   LIG    1       -1.237   4.234  -0.325  0.00  0.00    +0.200 S 
BRANCH  19  20
ATOM     20  C   LIG    1       -1.481   5.571  -1.521  0.00  0.00    +0.040 C 
BRANCH  20  31
ATOM     21  C   LIG    1       -3.980   6.643  -0.551  0.00  0.00    +0.160 C 
ATOM     22  C   LIG    1       -2.703   7.413  -0.331  0.00  0.00    +0.120 A 
ATOM     23  N   LIG    1       -2.738   8.561   0.305  0.00  0.00    -0.420 NA
ATOM     24  C   LIG    1       -1.607   9.248   0.496  0.00  0.00    +0.080 A 
ATOM     25  C   LIG    1       -1.611  10.482   1.168  0.00  0.00    +0.050 A 
ATOM     26  C   LIG    1       -0.443  11.157   1.347  0.00  0.00    +0.040 A 
ATOM     27  C   LIG    1        0.763  10.643   0.873  0.00  0.00    +0.040 A 
ATOM     28  C   LIG    1        0.806   9.450   0.218  0.00  0.00    +0.060 A 
ATOM     29  C   LIG    1       -0.380   8.724   0.014  0.00  0.00    +0.080 A 
ATOM     30  N   LIG    1       -0.370   7.550  -0.625  0.00  0.00    -0.410 NA
ATOM     31  C   LIG    1       -1.494   6.894  -0.800  0.00  0.00    +0.130 A 
ENDBRANCH  20  31
ENDBRANCH  19  20
ENDBRANCH   1  19
TORSDOF 5
