REMARK  Name = ZINCtV00001bB3yn.0
REMARK                            x       y       z     vdW  Elec       q    Type
REMARK                         _______ _______ _______ _____ _____    ______ ____
ROOT
ATOM      1  C   LIG    1        1.884  -0.448  -1.659  0.00  0.00    +0.320 C 
ATOM      2  N   LIG    1        0.856  -0.910  -0.724  0.00  0.00    -0.470 N 
ATOM      3  C   LIG    1        0.515  -2.227  -0.508  0.00  0.00    +0.110 A 
ATOM      4  C   LIG    1        0.972  -3.429  -1.039  0.00  0.00    +0.000 A 
ATOM      5  C   LIG    1        0.422  -4.619  -0.613  0.00  0.00    +0.030 A 
ATOM      6  C   LIG    1       -0.586  -4.632   0.341  0.00  0.00    +0.000 A 
ATOM      7  C   LIG    1       -1.051  -3.464   0.876  0.00  0.00    +0.030 A 
ATOM      8  C   LIG    1       -0.507  -2.245   0.459  0.00  0.00    -0.100 A 
ATOM      9  C   LIG    1       -0.757  -0.850   0.817  0.00  0.00    -0.170 A 
ATOM     10  C   LIG    1        0.087  -0.094   0.073  0.00  0.00    +0.160 A 
ENDROOT
BRANCH  10  11
ATOM     11  C   LIG    1        0.171   1.382   0.114  0.00  0.00    -0.040 A 
ATOM     12  C   LIG    1       -0.993   2.151   0.098  0.00  0.00    +0.030 A 
ATOM     13  C   LIG    1       -0.908   3.528   0.142  0.00  0.00    +0.020 A 
ATOM     14  C   LIG    1        0.329   4.146   0.192  0.00  0.00    +0.030 A 
ATOM     15  C   LIG    1        1.487   3.389   0.203  0.00  0.00    +0.010 A 
ATOM     16  C   LIG    1        1.415   2.012   0.165  0.00  0.00    +0.020 A 
ENDBRANCH  10  11
BRANCH   9  17
ATOM     17  C   LIG    1       -1.763  -0.348   1.821  0.00  0.00    +0.130 C 
BRANCH  17  18
ATOM     18  C   LIG    1       -1.040   0.275   2.988  0.00  0.00    -0.060 A 
ATOM     19  C   LIG    1       -0.056  -0.435   3.650  0.00  0.00    +0.060 A 
ATOM     20  C   LIG    1        0.607   0.135   4.720  0.00  0.00    +0.040 A 
ATOM     21  C   LIG    1        0.287   1.417   5.129  0.00  0.00    -0.020 A 
ATOM     22  C   LIG    1       -0.698   2.129   4.467  0.00  0.00    +0.050 A 
ATOM     23 CL   LIG    1        1.120   2.134   6.473  0.00  0.00    -0.060 Cl
ATOM     24  C   LIG    1       -1.358   1.559   3.393  0.00  0.00    +0.010 A 
ATOM     25 CL   LIG    1       -2.589   2.453   2.557  0.00  0.00    -0.050 Cl
ENDBRANCH  17  18
BRANCH  17  26
ATOM     26  C   LIG    1       -2.618  -1.517   2.315  0.00  0.00    +0.270 C 
BRANCH  26  27
ATOM     27  N   LIG    1       -3.671  -1.012   3.199  0.00  0.00    -0.020 N 
ATOM     28  O   LIG    1       -3.404  -0.189   4.057  0.00  0.00    -0.140 OA
ATOM     29  O   LIG    1       -4.814  -1.414   3.076  0.00  0.00    -0.170 OA
ENDBRANCH  26  27
ENDBRANCH  17  26
ENDBRANCH   9  17
TORSDOF 5
