REMARK  Name = ZINCqH0000008ISP.0
REMARK                            x       y       z     vdW  Elec       q    Type
REMARK                         _______ _______ _______ _____ _____    ______ ____
ROOT
ATOM      1  C   LIG    1       -7.196   4.289  -6.035  0.00  0.00    +0.290 A 
ATOM      2  C   LIG    1       -7.732   4.786  -4.852  0.00  0.00    -0.020 A 
ATOM      3  C   LIG    1       -7.023   4.635  -3.674  0.00  0.00    +0.100 A 
ATOM      4  C   LIG    1       -5.786   3.994  -3.722  0.00  0.00    +0.090 A 
ATOM      5  C   LIG    1       -5.314   3.524  -4.939  0.00  0.00    +0.260 A 
ATOM      6  N   LIG    1       -6.020   3.682  -6.042  0.00  0.00    -0.500 NA
ENDROOT
BRANCH   1  10
ATOM      7  C   LIG    1       -7.228   3.393 -10.810  0.00  0.00    +0.060 C 
ATOM      8  C   LIG    1       -7.951   4.073  -9.646  0.00  0.00    +0.150 C 
ATOM      9  C   LIG    1       -7.167   3.842  -8.351  0.00  0.00    +0.190 C 
ATOM     10  N   LIG    1       -7.905   4.432  -7.225  0.00  0.00    -0.470 N 
ATOM     11  C   LIG    1       -9.246   3.841  -7.114  0.00  0.00    +0.170 C 
ATOM     12  C   LIG    1      -10.010   4.073  -8.421  0.00  0.00    +0.200 C 
ATOM     13  C   LIG    1      -10.200   5.574  -8.643  0.00  0.00    +0.020 C 
ATOM     14  O   LIG    1       -9.263   3.520  -9.508  0.00  0.00    -0.370 OA
ENDBRANCH   1  10
BRANCH   4  15
ATOM     15  N   LIG    1       -5.030   3.822  -2.554  0.00  0.00    -0.680 N 
ATOM     16  H   LIG    1       -4.470   3.038  -2.450  0.00  0.00    +0.410 HD
ATOM     17  C   LIG    1       -5.082   4.748  -1.575  0.00  0.00    +0.700 C 
ATOM     18  N   LIG    1       -4.441   4.533  -0.410  0.00  0.00    -0.740 N 
ATOM     19  H   LIG    1       -3.942   3.712  -0.275  0.00  0.00    +0.400 HD
ATOM     20  O   LIG    1       -5.707   5.777  -1.745  0.00  0.00    -0.570 OA
BRANCH  18  21
ATOM     21  C   LIG    1       -4.497   5.539   0.654  0.00  0.00    +0.280 C 
BRANCH  21  22
ATOM     22  C   LIG    1       -3.692   5.052   1.860  0.00  0.00    +0.050 C 
BRANCH  22  23
ATOM     23  C   LIG    1       -3.750   6.087   2.954  0.00  0.00    -0.120 C 
ATOM     24  C   LIG    1       -4.654   5.951   3.871  0.00  0.00    -0.040 C 
ATOM     25  C   LIG    1       -4.844   6.907   5.012  0.00  0.00    +0.050 C 
ATOM     26  C   LIG    1       -3.601   7.784   5.178  0.00  0.00    +0.010 C 
ATOM     27  C   LIG    1       -3.228   8.362   3.807  0.00  0.00    +0.020 C 
ATOM     28  C   LIG    1       -2.761   7.214   2.909  0.00  0.00    +0.060 C 
ENDBRANCH  22  23
ENDBRANCH  21  22
ENDBRANCH  18  21
ENDBRANCH   4  15
TORSDOF 5
