REMARK  Name = ZINCtV000002AFwJ.0
REMARK                            x       y       z     vdW  Elec       q    Type
REMARK                         _______ _______ _______ _____ _____    ______ ____
ROOT
ATOM      1  C   LIG    1        1.228  -0.429  -0.164  0.00  0.00    +0.250 A 
ATOM      2  N   LIG    1       -0.005   0.006  -0.041  0.00  0.00    -0.270 NA
ATOM      3  N   LIG    1       -0.007   1.280   0.127  0.00  0.00    -0.280 NA
ATOM      4  C   LIG    1        1.225   1.739   0.123  0.00  0.00    +0.160 A 
ATOM      5  N   LIG    1        2.056   0.668  -0.062  0.00  0.00    -0.420 N 
ENDROOT
BRANCH   1   9
ATOM      6  C   LIG    1        2.436  -4.459  -0.761  0.00  0.00    +0.150 A 
ATOM      7  C   LIG    1        1.161  -4.181  -0.286  0.00  0.00    -0.010 A 
ATOM      8  C   LIG    1        0.765  -2.875  -0.091  0.00  0.00    +0.120 A 
ATOM      9  C   LIG    1        1.648  -1.831  -0.371  0.00  0.00    -0.060 A 
ATOM     10  C   LIG    1        2.928  -2.114  -0.853  0.00  0.00    +0.070 A 
ATOM     11  C   LIG    1        3.317  -3.423  -1.041  0.00  0.00    -0.070 A 
BRANCH   6  13
ATOM     12  C   LIG    1        4.147  -5.962  -1.442  0.00  0.00    +0.240 C 
ATOM     13  O   LIG    1        2.822  -5.747  -0.952  0.00  0.00    -0.310 OA
ENDBRANCH   6  13
ENDBRANCH   1   9
BRANCH   5  14
ATOM     14  C   LIG    1        3.455   0.683  -0.134  0.00  0.00    +0.100 A 
ATOM     15  C   LIG    1        4.210   0.103   0.878  0.00  0.00    +0.030 A 
ATOM     16  C   LIG    1        5.589   0.115   0.802  0.00  0.00    +0.030 A 
ATOM     17  C   LIG    1        6.218   0.713  -0.275  0.00  0.00    +0.040 A 
ATOM     18  C   LIG    1        5.470   1.296  -1.281  0.00  0.00    +0.040 A 
ATOM     19  C   LIG    1        4.090   1.282  -1.213  0.00  0.00    +0.030 A 
ENDBRANCH   5  14
BRANCH   4  20
ATOM     20  S   LIG    1        1.714   3.420   0.320  0.00  0.00    +0.030 S 
BRANCH  20  21
ATOM     21  C   LIG    1        0.092   4.200   0.509  0.00  0.00    +0.170 C 
BRANCH  21  22
ATOM     22  C   LIG    1        0.267   5.685   0.697  0.00  0.00    -0.110 A 
ATOM     23  C   LIG    1        0.405   6.211   1.969  0.00  0.00    +0.130 A 
ATOM     24  C   LIG    1        0.572   7.575   2.140  0.00  0.00    +0.000 A 
ATOM     25  C   LIG    1        0.589   8.412   1.040  0.00  0.00    +0.080 A 
ATOM     26  C   LIG    1        0.446   7.887  -0.231  0.00  0.00    +0.030 A 
ATOM     27  F   LIG    1        0.382   5.394   3.045  0.00  0.00    -0.120 F 
ATOM     28  C   LIG    1        0.285   6.524  -0.403  0.00  0.00    +0.010 A 
ATOM     29 CL   LIG    1        0.105   5.866  -2.000  0.00  0.00    -0.040 Cl
ENDBRANCH  21  22
ENDBRANCH  20  21
ENDBRANCH   4  20
TORSDOF 6
