REMARK  Name = ZINCrH000004rJ5G.0
REMARK                            x       y       z     vdW  Elec       q    Type
REMARK                         _______ _______ _______ _____ _____    ______ ____
ROOT
ATOM      1  N   LIG    1        1.328  -0.102  -3.438  0.00  0.00    -0.680 N 
ATOM      2  H   LIG    1        1.032  -0.997  -3.666  0.00  0.00    +0.400 HD
ATOM      3  C   LIG    1        1.375   0.285  -2.148  0.00  0.00    +0.710 C 
ATOM      4  N   LIG    1        1.142  -0.610  -1.167  0.00  0.00    -0.620 N 
ATOM      5  C   LIG    1        0.918  -2.030  -1.479  0.00  0.00    +0.280 C 
ATOM      6  C   LIG    1        1.855  -2.874  -0.608  0.00  0.00    +0.170 C 
ATOM      7  N   LIG    1        1.667  -2.510   0.803  0.00  0.00    -0.530 NA
ATOM      8  C   LIG    1        2.036  -1.109   1.046  0.00  0.00    +0.170 C 
ATOM      9  C   LIG    1        1.106  -0.193   0.243  0.00  0.00    +0.250 C 
ATOM     10  C   LIG    1        1.583   1.256   0.362  0.00  0.00    +0.050 C 
ATOM     11  O   LIG    1        1.628   1.441  -1.868  0.00  0.00    -0.540 OA
ENDROOT
BRANCH   1  14
ATOM     12  C   LIG    1        3.030  -1.047  -5.452  0.00  0.00    +0.110 C 
ATOM     13  C   LIG    1        2.529   0.375  -5.449  0.00  0.00    -0.100 A 
ATOM     14  C   LIG    1        1.704   0.787  -4.447  0.00  0.00    +0.220 A 
ATOM     15  C   LIG    1        1.230   2.129  -4.430  0.00  0.00    +0.080 A 
ATOM     16  N   LIG    1        0.437   2.759  -3.579  0.00  0.00    -0.540 NA
ATOM     17  S   LIG    1        0.243   4.230  -4.044  0.00  0.00    +0.780 S 
ATOM     18  N   LIG    1        1.115   4.229  -5.332  0.00  0.00    -0.600 NA
ATOM     19  C   LIG    1        1.645   3.028  -5.503  0.00  0.00    +0.090 A 
ATOM     20  C   LIG    1        2.502   2.525  -6.515  0.00  0.00    +0.060 A 
ATOM     21  C   LIG    1        2.919   1.236  -6.473  0.00  0.00    +0.070 A 
ENDBRANCH   1  14
BRANCH   7  22
ATOM     22  C   LIG    1        2.420  -3.413   1.684  0.00  0.00    +0.220 C 
BRANCH  22  23
ATOM     23  C   LIG    1        1.848  -4.804   1.585  0.00  0.00    -0.080 A 
ATOM     24  C   LIG    1        0.836  -5.197   2.440  0.00  0.00    +0.020 A 
ATOM     25  C   LIG    1        0.308  -6.471   2.346  0.00  0.00    +0.000 A 
ATOM     26  C   LIG    1        0.799  -7.355   1.404  0.00  0.00    +0.000 A 
ATOM     27  C   LIG    1        1.815  -6.964   0.553  0.00  0.00    +0.000 A 
ATOM     28  C   LIG    1        2.340  -5.688   0.643  0.00  0.00    +0.000 A 
ENDBRANCH  22  23
ENDBRANCH   7  22
TORSDOF 3
