REMARK  Name = ZINCrD00000F5LCM.0
REMARK                            x       y       z     vdW  Elec       q    Type
REMARK                         _______ _______ _______ _____ _____    ______ ____
ROOT
ATOM      1  C   LIG    1       -1.053   6.357  -0.150  0.00  0.00    +0.200 C 
ATOM      2  C   LIG    1       -0.899   7.580   0.410  0.00  0.00    -0.140 C 
ENDROOT
BRANCH   1   5
ATOM      3  N   LIG    1       -0.714   3.044   1.278  0.00  0.00    -0.360 N 
ATOM      4  C   LIG    1       -0.972   3.839   0.226  0.00  0.00    +0.290 A 
ATOM      5  C   LIG    1       -0.856   5.149   0.660  0.00  0.00    -0.240 A 
ATOM      6  C   LIG    1       -0.503   5.103   2.030  0.00  0.00    +0.280 A 
ATOM      7  N   LIG    1       -0.422   3.850   2.384  0.00  0.00    -0.290 NA
BRANCH   3   9
ATOM      8  C   LIG    1       -0.013   1.086   0.008  0.00  0.00    +0.080 C 
ATOM      9  C   LIG    1       -0.729   1.579   1.267  0.00  0.00    +0.200 C 
ATOM     10  C   LIG    1       -2.181   1.101   1.231  0.00  0.00    +0.070 C 
ATOM     11  C   LIG    1       -2.268  -0.276   1.941  0.00  0.00    -0.290 C 
ATOM     12  S   LIG    1       -1.176   0.002   3.393  0.00  0.00    +2.390 S 
ATOM     13  O   LIG    1       -1.861   0.773   4.370  0.00  0.00    -0.920 OA
ATOM     14  O   LIG    1       -0.550  -1.220   3.760  0.00  0.00    -0.930 OA
ATOM     15  C   LIG    1        0.024   1.064   2.503  0.00  0.00    -0.280 C 
ENDBRANCH   3   9
ENDBRANCH   1   5
BRANCH   2  16
ATOM     16  C   LIG    1       -1.089   8.745  -0.371  0.00  0.00    +0.430 C 
ATOM     17  O   LIG    1       -1.393   8.647  -1.546  0.00  0.00    -0.470 OA
BRANCH  16  18
ATOM     18  C   LIG    1       -0.920  10.081   0.241  0.00  0.00    -0.160 A 
ATOM     19  C   LIG    1       -0.579  10.197   1.589  0.00  0.00    +0.100 A 
ATOM     20  C   LIG    1       -0.417  11.446   2.152  0.00  0.00    +0.010 A 
ATOM     21  C   LIG    1       -0.604  12.583   1.386  0.00  0.00    +0.100 A 
ATOM     22  C   LIG    1       -0.949  12.475   0.050  0.00  0.00    -0.190 A 
ATOM     23  C   LIG    1       -1.108  11.232  -0.526  0.00  0.00    +0.130 A 
BRANCH  22  24
ATOM     24  C   LIG    1       -1.151  13.719  -0.776  0.00  0.00    +0.510 C 
ATOM     25  F   LIG    1       -0.815  13.454  -2.108  0.00  0.00    -0.170 F 
ATOM     26  F   LIG    1       -0.335  14.743  -0.285  0.00  0.00    -0.180 F 
ATOM     27  F   LIG    1       -2.491  14.115  -0.703  0.00  0.00    -0.170 F 
ENDBRANCH  22  24
ENDBRANCH  16  18
ENDBRANCH   2  16
TORSDOF 5
