REMARK  Name = ZINCpk00000xOf5g.0
REMARK                            x       y       z     vdW  Elec       q    Type
REMARK                         _______ _______ _______ _____ _____    ______ ____
ROOT
ATOM      1  N   LIG    1       -2.097   9.616  -0.770  0.00  0.00    -0.480 N 
ATOM      2  C   LIG    1       -1.704   9.329   0.616  0.00  0.00    +0.210 C 
ATOM      3  C   LIG    1       -0.864   8.050   0.654  0.00  0.00    +0.040 C 
ATOM      4  C   LIG    1       -1.685   6.889   0.086  0.00  0.00    +0.240 C 
ATOM      5  C   LIG    1       -2.124   7.234  -1.340  0.00  0.00    +0.030 C 
ATOM      6  C   LIG    1       -2.927   8.537  -1.321  0.00  0.00    +0.200 C 
ENDROOT
BRANCH   1  15
ATOM      7  C   LIG    1       -3.134  11.635  -4.902  0.00  0.00    +0.190 C 
ATOM      8  N   LIG    1       -1.857  12.010  -4.279  0.00  0.00    -0.530 NA
ATOM      9  C   LIG    1       -1.819  13.450  -3.979  0.00  0.00    +0.220 C 
ATOM     10  C   LIG    1       -3.067  13.814  -3.172  0.00  0.00    +0.080 C 
ATOM     11  C   LIG    1       -3.219  12.867  -2.011  0.00  0.00    +0.180 A 
ATOM     12  N   LIG    1       -4.023  13.198  -1.006  0.00  0.00    -0.520 NA
ATOM     13  C   LIG    1       -4.187  12.396   0.025  0.00  0.00    +0.510 A 
ATOM     14  N   LIG    1       -3.568  11.236   0.108  0.00  0.00    -0.550 NA
ATOM     15  C   LIG    1       -2.748  10.836  -0.858  0.00  0.00    +0.350 A 
ATOM     16  C   LIG    1       -2.547  11.669  -1.963  0.00  0.00    -0.200 A 
ATOM     17  C   LIG    1       -1.618  11.229  -3.060  0.00  0.00    +0.310 C 
ENDBRANCH   1  15
BRANCH   4  18
ATOM     18  N   LIG    1       -0.867   5.674   0.066  0.00  0.00    -0.720 N 
ATOM     19  H   LIG    1        0.100   5.741   0.029  0.00  0.00    +0.400 HD
ATOM     20  C   LIG    1       -1.458   4.463   0.100  0.00  0.00    +0.590 C 
ATOM     21  O   LIG    1       -2.670   4.379   0.147  0.00  0.00    -0.530 OA
BRANCH  20  22
ATOM     22  C   LIG    1       -0.634   3.241   0.080  0.00  0.00    -0.240 A 
ATOM     23  C   LIG    1        0.727   3.164   0.030  0.00  0.00    +0.230 A 
ATOM     24  O   LIG    1        1.077   1.874   0.029  0.00  0.00    -0.170 OA
ATOM     25  C   LIG    1       -0.007   1.084   0.077  0.00  0.00    +0.170 A 
ATOM     26  C   LIG    1       -1.109   1.849   0.106  0.00  0.00    -0.010 A 
ENDBRANCH  20  22
ENDBRANCH   4  18
TORSDOF 3
