REMARK  Name = ZINCrH00000No4ts.0
REMARK                            x       y       z     vdW  Elec       q    Type
REMARK                         _______ _______ _______ _____ _____    ______ ____
ROOT
ATOM      1  O   LIG    1       -1.576   1.704  -1.774  0.00  0.00    -0.330 OA
ENDROOT
BRANCH   1   2
ATOM      2  C   LIG    1       -1.025   1.305  -2.940  0.00  0.00    +0.510 C 
ATOM      3  O   LIG    1        0.168   1.445  -3.128  0.00  0.00    -0.510 OA
BRANCH   2   4
ATOM      4  C   LIG    1       -1.837   0.722  -3.945  0.00  0.00    -0.080 C 
ATOM      5  C   LIG    1       -1.286   0.322  -5.111  0.00  0.00    +0.170 C 
BRANCH   5   6
ATOM      6  C   LIG    1       -2.127  -0.282  -6.153  0.00  0.00    -0.110 A 
ATOM      7  C   LIG    1       -3.500  -0.451  -5.939  0.00  0.00    +0.080 A 
ATOM      8  C   LIG    1       -4.284  -1.014  -6.923  0.00  0.00    -0.010 A 
ATOM      9  C   LIG    1       -3.718  -1.424  -8.119  0.00  0.00    +0.080 A 
ATOM     10  C   LIG    1       -2.363  -1.268  -8.342  0.00  0.00    -0.060 A 
ATOM     11  C   LIG    1       -1.559  -0.699  -7.367  0.00  0.00    +0.140 A 
BRANCH  11  12
ATOM     12  O   LIG    1       -0.228  -0.546  -7.585  0.00  0.00    -0.320 OA
BRANCH  12  13
ATOM     13  C   LIG    1        0.278  -0.994  -8.844  0.00  0.00    +0.600 C 
ATOM     14  F   LIG    1       -0.355  -0.294  -9.877  0.00  0.00    -0.200 F 
ATOM     15  F   LIG    1        0.029  -2.363  -8.987  0.00  0.00    -0.200 F 
ENDBRANCH  12  13
ENDBRANCH  11  12
ENDBRANCH   5   6
ENDBRANCH   2   4
ENDBRANCH   1   2
BRANCH   1  16
ATOM     16  C   LIG    1       -0.699   2.283  -0.807  0.00  0.00    +0.270 C 
BRANCH  16  18
ATOM     17  O   LIG    1       -2.681   2.461   0.462  0.00  0.00    -0.500 OA
ATOM     18  C   LIG    1       -1.486   2.665   0.420  0.00  0.00    +0.520 C 
ATOM     19  N   LIG    1       -0.862   3.233   1.472  0.00  0.00    -0.680 N 
ATOM     20  H   LIG    1        0.103   3.329   1.469  0.00  0.00    +0.420 HD
BRANCH  19  21
ATOM     21  C   LIG    1       -1.608   3.685   2.569  0.00  0.00    +0.060 A 
ATOM     22  C   LIG    1       -2.101   4.984   2.588  0.00  0.00    +0.140 A 
ATOM     23  C   LIG    1       -2.841   5.425   3.671  0.00  0.00    -0.010 A 
ATOM     24  C   LIG    1       -3.082   4.578   4.737  0.00  0.00    +0.100 A 
ATOM     25  C   LIG    1       -2.588   3.286   4.723  0.00  0.00    -0.010 A 
ATOM     26  F   LIG    1       -1.861   5.814   1.550  0.00  0.00    -0.120 F 
ATOM     27  C   LIG    1       -1.852   2.837   3.642  0.00  0.00    +0.140 A 
ATOM     28  F   LIG    1       -1.370   1.574   3.630  0.00  0.00    -0.120 F 
ENDBRANCH  19  21
ENDBRANCH  16  18
ENDBRANCH   1  16
TORSDOF 8
