REMARK  Name = ZINCnE00000rhnYc.0
REMARK                            x       y       z     vdW  Elec       q    Type
REMARK                         _______ _______ _______ _____ _____    ______ ____
ROOT
ATOM      1  C   LIG    1        0.062   1.455  -0.019  0.00  0.00    +0.310 A 
ATOM      2  N   LIG    1       -0.063   0.148   0.204  0.00  0.00    -0.520 NA
ATOM      3  C   LIG    1        0.995  -0.638   0.226  0.00  0.00    +0.330 A 
ATOM      4  C   LIG    1        2.264  -0.079   0.011  0.00  0.00    -0.210 A 
ATOM      5  C   LIG    1        2.353   1.303  -0.222  0.00  0.00    +0.200 A 
ATOM      6  N   LIG    1        1.250   2.022  -0.229  0.00  0.00    -0.510 NA
ENDROOT
BRANCH   5   7
ATOM      7  C   LIG    1        3.692   1.953  -0.459  0.00  0.00    +0.060 C 
ATOM      8  C   LIG    1        4.010   2.903   0.697  0.00  0.00    +0.040 C 
ATOM      9  C   LIG    1        3.650   2.741  -1.770  0.00  0.00    +0.030 C 
ENDBRANCH   5   7
BRANCH   4  10
ATOM     10  C   LIG    1        3.471  -0.921   0.026  0.00  0.00    +0.530 C 
ATOM     11  O   LIG    1        4.396  -0.650   0.781  0.00  0.00    -0.670 OA
ATOM     12  O   LIG    1        3.550  -1.891  -0.715  0.00  0.00    -0.680 OA
ENDBRANCH   4  10
BRANCH   1  14
ATOM     13  C   LIG    1       -2.353   1.738   0.162  0.00  0.00    +0.100 C 
ATOM     14  C   LIG    1       -1.142   2.293  -0.042  0.00  0.00    +0.050 C 
BRANCH  13  21
ATOM     15  C   LIG    1       -4.742   2.330  -0.596  0.00  0.00    +0.110 A 
ATOM     16  N   LIG    1       -5.580   3.300  -0.354  0.00  0.00    -0.280 NA
ATOM     17  N   LIG    1       -4.987   4.203   0.534  0.00  0.00    -0.360 N 
ATOM     18  C   LIG    1       -3.755   3.756   0.838  0.00  0.00    +0.130 A 
ATOM     19 CL   LIG    1       -2.618   4.518   1.907  0.00  0.00    +0.010 Cl
ATOM     20  C   LIG    1       -5.605   5.427   1.051  0.00  0.00    +0.370 C 
ATOM     21  C   LIG    1       -3.560   2.578   0.139  0.00  0.00    -0.180 A 
BRANCH  15  23
ATOM     22  C   LIG    1       -5.611   0.009  -0.694  0.00  0.00    +0.020 C 
ATOM     23  C   LIG    1       -4.990   1.151  -1.502  0.00  0.00    +0.120 C 
ENDBRANCH  15  23
ENDBRANCH  13  21
ENDBRANCH   1  14
TORSDOF 5
