REMARK  Name = ZINCkj000005hzre.0
REMARK                            x       y       z     vdW  Elec       q    Type
REMARK                         _______ _______ _______ _____ _____    ______ ____
ROOT
ATOM      1  S   LIG    1       -1.224   0.524  -2.358  0.00  0.00    +2.700 S 
ATOM      2  O   LIG    1       -0.383  -0.617  -2.258  0.00  0.00    -0.930 OA
ATOM      3  O   LIG    1       -1.356   1.290  -3.548  0.00  0.00    -0.940 OA
ENDROOT
BRANCH   1   4
ATOM      4  C   LIG    1       -2.846  -0.014  -1.930  0.00  0.00    -0.700 A 
ATOM      5  C   LIG    1       -3.918   0.314  -2.736  0.00  0.00    +0.160 A 
ATOM      6  C   LIG    1       -5.192  -0.108  -2.401  0.00  0.00    -0.130 A 
ATOM      7  C   LIG    1       -5.395  -0.859  -1.258  0.00  0.00    +0.120 A 
ATOM      8  C   LIG    1       -4.326  -1.189  -0.448  0.00  0.00    -0.080 A 
ATOM      9  C   LIG    1       -6.360   0.250  -3.283  0.00  0.00    +0.100 C 
ATOM     10  C   LIG    1       -3.047  -0.772  -0.785  0.00  0.00    +0.210 A 
BRANCH  10  11
ATOM     11  O   LIG    1       -1.992  -1.101   0.007  0.00  0.00    -0.330 OA
ATOM     12  C   LIG    1       -2.273  -1.883   1.169  0.00  0.00    +0.260 C 
ENDBRANCH  10  11
ENDBRANCH   1   4
BRANCH   1  17
ATOM     13  C   LIG    1       -0.736   1.583   1.264  0.00  0.00    +0.140 C 
ATOM     14  C   LIG    1       -0.878   3.105   1.196  0.00  0.00    +0.040 C 
ATOM     15  C   LIG    1       -1.712   3.490  -0.028  0.00  0.00    +0.050 C 
ATOM     16  C   LIG    1       -0.997   3.015  -1.297  0.00  0.00    +0.310 C 
ATOM     17  N   LIG    1       -0.729   1.575  -1.178  0.00  0.00    -0.990 NA
ATOM     18  C   LIG    1       -0.013   1.086   0.008  0.00  0.00    +0.330 C 
BRANCH  13  20
ATOM     19  C   LIG    1       -0.710   1.583   3.663  0.00  0.00    +0.330 C 
ATOM     20  N   LIG    1        0.041   1.213   2.455  0.00  0.00    -0.510 N 
ATOM     21  H   LIG    1        0.924   1.700   2.446  0.00  0.00    +0.430 HD
ATOM     22  H   LIG    1        0.205   0.217   2.453  0.00  0.00    +0.430 HD
ENDBRANCH  13  20
ENDBRANCH   1  17
TORSDOF 4
