REMARK  Name = ZINCtV00000L6kmM.0
REMARK                            x       y       z     vdW  Elec       q    Type
REMARK                         _______ _______ _______ _____ _____    ______ ____
ROOT
ATOM      1  C   LIG    1       -1.742  -0.509   2.616  0.00  0.00    +0.330 A 
ATOM      2  C   LIG    1       -2.881  -0.609   3.356  0.00  0.00    -0.400 A 
ATOM      3  S   LIG    1       -3.952  -1.828   2.695  0.00  0.00    +0.200 S 
ATOM      4  C   LIG    1       -2.838  -2.208   1.386  0.00  0.00    +0.090 A 
ATOM      5  N   LIG    1       -2.949  -3.089   0.393  0.00  0.00    -0.460 NA
ATOM      6  C   LIG    1       -2.019  -3.268  -0.533  0.00  0.00    +0.200 A 
ATOM      7  C   LIG    1       -0.852  -2.546  -0.498  0.00  0.00    -0.110 A 
ATOM      8  C   LIG    1       -0.667  -1.595   0.514  0.00  0.00    +0.070 A 
ATOM      9  C   LIG    1        0.277  -2.733  -1.481  0.00  0.00    +0.100 C 
ATOM     10  C   LIG    1       -0.239  -3.196  -2.843  0.00  0.00    +0.020 C 
ATOM     11  C   LIG    1       -0.231  -4.725  -2.868  0.00  0.00    +0.020 C 
ATOM     12  C   LIG    1       -1.149  -5.261  -1.774  0.00  0.00    +0.030 C 
ATOM     13  C   LIG    1       -2.312  -4.280  -1.612  0.00  0.00    +0.110 C 
ATOM     14  C   LIG    1       -1.688  -1.419   1.491  0.00  0.00    -0.160 A 
ENDROOT
BRANCH   8  15
ATOM     15  C   LIG    1        0.567  -0.792   0.570  0.00  0.00    +0.000 A 
ATOM     16  C   LIG    1        0.652   0.557   0.404  0.00  0.00    -0.020 A 
ATOM     17  C   LIG    1        2.012   0.896   0.537  0.00  0.00    -0.050 A 
ATOM     18  C   LIG    1        2.684  -0.248   0.774  0.00  0.00    +0.190 A 
ATOM     19  O   LIG    1        1.809  -1.266   0.793  0.00  0.00    -0.160 OA
ENDBRANCH   8  15
BRANCH   1  20
ATOM     20  N   LIG    1       -0.722   0.381   2.917  0.00  0.00    -0.820 N 
ATOM     21  H   LIG    1        0.072   0.415   2.360  0.00  0.00    +0.400 HD
ATOM     22  H   LIG    1       -0.801   0.969   3.684  0.00  0.00    +0.420 HD
ENDBRANCH   1  20
BRANCH   2  23
ATOM     23  C   LIG    1       -3.162   0.167   4.503  0.00  0.00    +0.480 C 
ATOM     24  O   LIG    1       -2.419   1.080   4.819  0.00  0.00    -0.480 OA
BRANCH  23  25
ATOM     25  C   LIG    1       -4.359  -0.128   5.321  0.00  0.00    -0.150 A 
ATOM     26  C   LIG    1       -4.918   0.864   6.129  0.00  0.00    +0.090 A 
ATOM     27  C   LIG    1       -6.036   0.584   6.886  0.00  0.00    +0.020 A 
ATOM     28  C   LIG    1       -6.599  -0.681   6.853  0.00  0.00    -0.010 A 
ATOM     29  C   LIG    1       -6.046  -1.671   6.057  0.00  0.00    +0.030 A 
ATOM     30 CL   LIG    1       -8.003  -1.028   7.813  0.00  0.00    -0.060 Cl
ATOM     31  C   LIG    1       -4.931  -1.401   5.292  0.00  0.00    +0.080 A 
ENDBRANCH  23  25
ENDBRANCH   2  23
TORSDOF 4
