REMARK  Name = ZINCah0000004SJn.0
REMARK                            x       y       z     vdW  Elec       q    Type
REMARK                         _______ _______ _______ _____ _____    ______ ____
ROOT
ATOM      1  C   LIG    1       -0.013   1.086   0.008  0.00  0.00    -0.040 C 
ATOM      2  C   LIG    1       -0.744   1.595  -1.238  0.00  0.00    +0.010 C 
ATOM      3  C   LIG    1        0.028   1.159  -2.486  0.00  0.00    +0.200 C 
ATOM      4  O   LIG    1        1.364   1.661  -2.418  0.00  0.00    -0.380 OA
ATOM      5  C   LIG    1        2.111   1.181  -1.299  0.00  0.00    +0.200 C 
ATOM      6  C   LIG    1        1.424   1.618  -0.003  0.00  0.00    -0.010 C 
ENDROOT
BRANCH   1   8
ATOM      7  C   LIG    1       -2.168   1.052   1.271  0.00  0.00    +0.060 C 
ATOM      8  C   LIG    1       -0.732   1.581   1.264  0.00  0.00    +0.130 C 
ATOM      9  C   LIG    1        0.003   1.075   2.506  0.00  0.00    +0.010 C 
BRANCH   8  10
ATOM     10  O   LIG    1       -0.751   3.010   1.270  0.00  0.00    -0.560 OA
ATOM     11  H   LIG    1        0.127   3.415   1.266  0.00  0.00    +0.370 HD
ENDBRANCH   8  10
ENDBRANCH   1   8
TORSDOF 2
