REMARK  Name = ZINCqH0000051gqt.0
REMARK                            x       y       z     vdW  Elec       q    Type
REMARK                         _______ _______ _______ _____ _____    ______ ____
ROOT
ATOM      1  O   LIG    1       -4.135  -1.068   1.127  0.00  0.00    -0.540 OA
ATOM      2  C   LIG    1       -4.259   0.006   1.676  0.00  0.00    +0.540 C 
ATOM      3  N   LIG    1       -5.110   0.138   2.713  0.00  0.00    -0.720 N 
ATOM      4  H   LIG    1       -5.210   0.997   3.152  0.00  0.00    +0.400 HD
ENDROOT
BRANCH   3   5
ATOM      5  C   LIG    1       -5.885  -1.016   3.176  0.00  0.00    +0.240 C 
ATOM      6  C   LIG    1       -7.158  -1.145   2.337  0.00  0.00    +0.020 C 
ATOM      7  C   LIG    1       -7.967  -2.350   2.821  0.00  0.00    +0.010 C 
ATOM      8  C   LIG    1       -8.343  -2.155   4.291  0.00  0.00    +0.180 C 
ATOM      9  C   LIG    1       -7.070  -2.026   5.130  0.00  0.00    +0.060 C 
ATOM     10  C   LIG    1       -6.261  -0.821   4.646  0.00  0.00    +0.030 C 
BRANCH   8  11
ATOM     11  C   LIG    1       -9.140  -3.342   4.768  0.00  0.00    -0.160 A 
ATOM     12  C   LIG    1      -10.522  -3.347   4.664  0.00  0.00    +0.060 A 
ATOM     13  C   LIG    1      -11.214  -4.463   5.110  0.00  0.00    -0.030 A 
ATOM     14  C   LIG    1      -10.508  -5.521   5.650  0.00  0.00    +0.260 A 
ATOM     15  N   LIG    1       -9.193  -5.480   5.738  0.00  0.00    -0.480 NA
ATOM     16  C   LIG    1       -8.502  -4.438   5.319  0.00  0.00    +0.270 A 
ENDBRANCH   8  11
BRANCH   8  17
ATOM     17  O   LIG    1       -9.127  -0.969   4.430  0.00  0.00    -0.550 OA
ATOM     18  H   LIG    1       -9.951  -0.981   3.924  0.00  0.00    +0.370 HD
ENDBRANCH   8  17
ENDBRANCH   3   5
BRANCH   2  19
ATOM     19  C   LIG    1       -3.462   1.193   1.200  0.00  0.00    -0.050 C 
ATOM     20  C   LIG    1       -3.808   1.771  -0.174  0.00  0.00    +0.080 C 
ATOM     21  C   LIG    1       -2.514   0.979   0.019  0.00  0.00    +0.050 C 
BRANCH  21  22
ATOM     22  C   LIG    1       -1.219   1.750   0.017  0.00  0.00    -0.050 A 
ATOM     23  C   LIG    1       -0.013   1.076   0.008  0.00  0.00    +0.030 A 
ATOM     24  C   LIG    1        1.175   1.783   0.000  0.00  0.00    +0.030 A 
ATOM     25  C   LIG    1        1.156   3.166   0.008  0.00  0.00    -0.040 A 
ATOM     26  C   LIG    1       -0.052   3.841   0.023  0.00  0.00    +0.020 A 
ATOM     27 CL   LIG    1        2.647   4.055  -0.002  0.00  0.00    -0.070 Cl
ATOM     28  C   LIG    1       -1.239   3.133   0.031  0.00  0.00    +0.020 A 
ENDBRANCH  21  22
ENDBRANCH   2  19
TORSDOF 5
