REMARK  Name = ZINCvU00000004YR.0
REMARK                            x       y       z     vdW  Elec       q    Type
REMARK                         _______ _______ _______ _____ _____    ______ ____
ROOT
ATOM      1  N   LIG    1       -1.977   2.558   3.434  0.00  0.00    -0.400 N 
ATOM      2  C   LIG    1       -3.242   2.036   3.461  0.00  0.00    +0.160 A 
ATOM      3  N   LIG    1       -3.329   1.279   4.531  0.00  0.00    -0.290 NA
ATOM      4  N   LIG    1       -2.216   1.289   5.173  0.00  0.00    -0.260 NA
ATOM      5  C   LIG    1       -1.343   2.050   4.549  0.00  0.00    +0.270 A 
ENDROOT
BRANCH   1  11
ATOM      6  C   LIG    1       -0.789   2.904   1.351  0.00  0.00    +0.160 A 
ATOM      7  C   LIG    1       -0.262   3.763   0.400  0.00  0.00    -0.060 A 
ATOM      8  C   LIG    1       -0.373   5.131   0.567  0.00  0.00    +0.090 A 
ATOM      9  C   LIG    1       -1.009   5.646   1.681  0.00  0.00    -0.010 A 
ATOM     10  C   LIG    1       -1.538   4.796   2.634  0.00  0.00    +0.090 A 
ATOM     11  C   LIG    1       -1.435   3.423   2.471  0.00  0.00    +0.050 A 
BRANCH   6  13
ATOM     12  C   LIG    1       -0.011   1.099   0.013  0.00  0.00    +0.250 C 
ATOM     13  O   LIG    1       -0.681   1.559   1.188  0.00  0.00    -0.310 OA
ENDBRANCH   6  13
ENDBRANCH   1  11
BRANCH   5  14
ATOM     14  C   LIG    1        0.044   2.312   4.963  0.00  0.00    -0.130 A 
ATOM     15  C   LIG    1        0.556   2.053   6.186  0.00  0.00    +0.070 A 
ATOM     16  C   LIG    1        1.886   2.383   6.335  0.00  0.00    +0.010 A 
ATOM     17  C   LIG    1        2.462   2.917   5.254  0.00  0.00    -0.030 A 
ATOM     18  S   LIG    1        1.292   3.020   3.945  0.00  0.00    +0.140 S 
ENDBRANCH   5  14
BRANCH   2  19
ATOM     19  S   LIG    1       -4.517   2.325   2.280  0.00  0.00    +0.090 S 
BRANCH  19  20
ATOM     20  C   LIG    1       -5.841   1.318   2.993  0.00  0.00    +0.020 C 
ATOM     21  C   LIG    1       -5.435  -0.157   2.957  0.00  0.00    +0.080 C 
BRANCH  20  22
ATOM     22  C   LIG    1       -7.104   1.510   2.194  0.00  0.00    +0.530 C 
ATOM     23  N   LIG    1       -8.305   1.300   2.771  0.00  0.00    -0.650 N 
ATOM     24  H   LIG    1       -8.354   0.953   3.675  0.00  0.00    +0.420 HD
ATOM     25  O   LIG    1       -7.042   1.855   1.033  0.00  0.00    -0.450 OA
BRANCH  23  26
ATOM     26  C   LIG    1       -9.475   1.580   2.066  0.00  0.00    +0.360 A 
ATOM     27  C   LIG    1      -10.706   1.462   2.702  0.00  0.00    -0.040 A 
ATOM     28  C   LIG    1      -11.860   1.747   1.993  0.00  0.00    +0.110 A 
ATOM     29  C   LIG    1      -11.742   2.132   0.664  0.00  0.00    -0.120 A 
ATOM     30  C   LIG    1      -10.486   2.224   0.095  0.00  0.00    +0.320 A 
ATOM     31 CL   LIG    1      -13.158   2.495  -0.273  0.00  0.00    -0.050 Cl
ATOM     32  N   LIG    1       -9.404   1.950   0.798  0.00  0.00    -0.460 NA
ENDBRANCH  23  26
ENDBRANCH  20  22
ENDBRANCH  19  20
ENDBRANCH   2  19
TORSDOF 7
