REMARK  Name = ZINCkj000005hBMu.0
REMARK                            x       y       z     vdW  Elec       q    Type
REMARK                         _______ _______ _______ _____ _____    ______ ____
ROOT
ATOM      1  N   LIG    1        1.365   1.594  -0.002  0.00  0.00    -0.500 N 
ATOM      2  H   LIG    1        1.295   2.600   0.036  0.00  0.00    +0.430 HD
ATOM      3  H   LIG    1        1.873   1.324  -0.831  0.00  0.00    +0.420 HD
ENDROOT
BRANCH   1   7
ATOM      4  C   LIG    1       -2.890   1.317  -0.222  0.00  0.00    +0.030 C 
ATOM      5  C   LIG    1       -2.068   0.783  -1.397  0.00  0.00    +0.090 C 
ATOM      6  C   LIG    1       -0.665   1.391  -1.356  0.00  0.00    +0.040 C 
ATOM      7  C   LIG    1        0.018   1.010  -0.041  0.00  0.00    +0.160 C 
ATOM      8  C   LIG    1       -0.803   1.544   1.134  0.00  0.00    +0.060 C 
ATOM      9  C   LIG    1       -2.207   0.936   1.093  0.00  0.00    +0.070 C 
BRANCH   4  10
ATOM     10  C   LIG    1       -4.272   0.717  -0.262  0.00  0.00    +0.460 C 
ATOM     11  O   LIG    1       -4.569  -0.057  -1.140  0.00  0.00    -0.500 OA
BRANCH  10  13
ATOM     12  C   LIG    1       -6.484   0.429   0.577  0.00  0.00    +0.280 C 
ATOM     13  O   LIG    1       -5.173   1.044   0.678  0.00  0.00    -0.360 OA
ENDBRANCH  10  13
ENDBRANCH   4  10
ENDBRANCH   1   7
BRANCH   1  14
ATOM     14  C   LIG    1        2.076   1.108   1.188  0.00  0.00    +0.170 C 
ATOM     15  C   LIG    1        3.419   1.829   1.310  0.00  0.00    +0.040 C 
ATOM     16  C   LIG    1        4.159   1.323   2.550  0.00  0.00    +0.040 C 
ATOM     17  C   LIG    1        4.399  -0.183   2.421  0.00  0.00    +0.050 C 
ATOM     18  C   LIG    1        3.056  -0.905   2.298  0.00  0.00    +0.010 C 
ATOM     19  C   LIG    1        2.316  -0.398   1.058  0.00  0.00    +0.070 C 
BRANCH  18  20
ATOM     20  C   LIG    1        2.225  -0.632   3.525  0.00  0.00    +0.530 C 
ATOM     21  O   LIG    1        1.147  -0.086   3.419  0.00  0.00    -0.550 OA
ATOM     22  N   LIG    1        2.680  -0.995   4.741  0.00  0.00    -0.840 N 
ATOM     23  H   LIG    1        2.145  -0.819   5.531  0.00  0.00    +0.410 HD
ATOM     24  H   LIG    1        3.542  -1.431   4.826  0.00  0.00    +0.410 HD
ENDBRANCH  18  20
ENDBRANCH   1  14
TORSDOF 5
