REMARK  Name = ZINCrH000004r6jG.0
REMARK                            x       y       z     vdW  Elec       q    Type
REMARK                         _______ _______ _______ _____ _____    ______ ____
ROOT
ATOM      1  C   LIG    1        0.646   4.078   0.018  0.00  0.00    +0.510 C 
ATOM      2  N   LIG    1        1.599   3.124   0.004  0.00  0.00    -0.630 N 
ATOM      3  H   LIG    1        2.536   3.375  -0.004  0.00  0.00    +0.420 HD
ATOM      4  O   LIG    1       -0.525   3.765   0.028  0.00  0.00    -0.450 OA
ENDROOT
BRANCH   2   5
ATOM      5  C   LIG    1        1.236   1.774  -0.000  0.00  0.00    +0.450 A 
ATOM      6  N   LIG    1        2.067   0.759  -0.014  0.00  0.00    -0.330 NA
ATOM      7  N   LIG    1        1.284  -0.406  -0.012  0.00  0.00    -0.370 N 
ATOM      8  C   LIG    1        0.002  -0.004   0.002  0.00  0.00    +0.490 A 
ATOM      9  N   LIG    1       -0.016   1.304   0.009  0.00  0.00    -0.520 NA
BRANCH   7  10
ATOM     10  C   LIG    1        1.769  -1.789  -0.024  0.00  0.00    +0.380 C 
BRANCH  10  11
ATOM     11  C   LIG    1        2.693  -1.987  -1.198  0.00  0.00    -0.120 A 
ATOM     12  C   LIG    1        2.186  -2.405  -2.414  0.00  0.00    +0.020 A 
ATOM     13  C   LIG    1        3.033  -2.583  -3.492  0.00  0.00    +0.000 A 
ATOM     14  C   LIG    1        4.388  -2.352  -3.351  0.00  0.00    +0.010 A 
ATOM     15  C   LIG    1        4.896  -1.939  -2.134  0.00  0.00    +0.010 A 
ATOM     16  C   LIG    1        4.049  -1.757  -1.057  0.00  0.00    +0.040 A 
ENDBRANCH  10  11
ENDBRANCH   7  10
ENDBRANCH   2   5
BRANCH   1  17
ATOM     17  C   LIG    1        1.038   5.533   0.022  0.00  0.00    +0.250 C 
BRANCH  17  18
ATOM     18  O   LIG    1       -0.140   6.343   0.038  0.00  0.00    -0.290 OA
BRANCH  18  24
ATOM     19  C   LIG    1        2.889  10.171   0.031  0.00  0.00    +0.090 C 
ATOM     20  C   LIG    1        1.497   9.592   0.041  0.00  0.00    -0.050 A 
ATOM     21  C   LIG    1        0.400  10.433   0.056  0.00  0.00    -0.030 A 
ATOM     22  C   LIG    1       -0.878   9.905   0.065  0.00  0.00    +0.060 A 
ATOM     23  C   LIG    1       -1.062   8.536   0.060  0.00  0.00    -0.100 A 
ATOM     24  C   LIG    1        0.038   7.690   0.044  0.00  0.00    +0.130 A 
ATOM     25  C   LIG    1        1.319   8.222   0.040  0.00  0.00    -0.080 A 
BRANCH  23  26
ATOM     26  C   LIG    1       -2.455   7.962   0.071  0.00  0.00    +0.030 C 
ATOM     27  C   LIG    1       -3.214   8.441  -1.168  0.00  0.00    +0.020 C 
ATOM     28  C   LIG    1       -3.188   8.428   1.330  0.00  0.00    +0.020 C 
ENDBRANCH  23  26
ENDBRANCH  18  24
ENDBRANCH  17  18
ENDBRANCH   1  17
TORSDOF 7
