REMARK  Name = ZINCrH00000tj1mv.0
REMARK                            x       y       z     vdW  Elec       q    Type
REMARK                         _______ _______ _______ _____ _____    ______ ____
ROOT
ATOM      1  C   LIG    1       -0.765   1.598  -3.711  0.00  0.00    +0.520 C 
ATOM      2  N   LIG    1       -0.312   1.286  -4.941  0.00  0.00    -0.730 N 
ATOM      3  H   LIG    1        0.483   0.739  -5.041  0.00  0.00    +0.400 HD
ATOM      4  O   LIG    1       -1.760   2.282  -3.587  0.00  0.00    -0.530 OA
ENDROOT
BRANCH   1   5
ATOM      5  C   LIG    1       -0.037   1.099  -2.490  0.00  0.00    +0.060 C 
BRANCH   5   6
ATOM      6  C   LIG    1       -0.753   1.593  -1.232  0.00  0.00    +0.060 C 
BRANCH   6   7
ATOM      7  C   LIG    1       -0.013   1.086   0.008  0.00  0.00    +0.180 C 
BRANCH   7   8
ATOM      8  O   LIG    1       -0.682   1.547   1.184  0.00  0.00    -0.310 OA
BRANCH   8  14
ATOM      9  C   LIG    1       -0.853   1.670   6.060  0.00  0.00    +0.090 C 
ATOM     10  C   LIG    1       -0.203   1.222   4.776  0.00  0.00    -0.050 A 
ATOM     11  C   LIG    1        0.936   0.440   4.814  0.00  0.00    -0.040 A 
ATOM     12  C   LIG    1        1.534   0.028   3.637  0.00  0.00    +0.040 A 
ATOM     13  C   LIG    1        0.991   0.392   2.421  0.00  0.00    -0.090 A 
ATOM     14  C   LIG    1       -0.149   1.182   2.380  0.00  0.00    +0.130 A 
ATOM     15  C   LIG    1       -0.747   1.594   3.561  0.00  0.00    -0.020 A 
ENDBRANCH   8  14
ENDBRANCH   7   8
ENDBRANCH   6   7
ENDBRANCH   5   6
ENDBRANCH   1   5
BRANCH   2  16
ATOM     16  C   LIG    1       -1.021   1.771  -6.128  0.00  0.00    +0.380 C 
BRANCH  16  17
ATOM     17  C   LIG    1       -0.316   1.285  -7.368  0.00  0.00    +0.060 A 
ATOM     18  N   LIG    1        0.701   1.869  -7.951  0.00  0.00    -0.260 NA
ATOM     19  N   LIG    1        1.064   1.103  -9.067  0.00  0.00    -0.320 N 
ATOM     20  C   LIG    1        0.224   0.046  -9.137  0.00  0.00    +0.230 A 
ATOM     21  C   LIG    1       -0.638   0.136  -8.098  0.00  0.00    -0.080 A 
BRANCH  19  22
ATOM     22  C   LIG    1        2.111   1.386  -9.956  0.00  0.00    +0.120 A 
ATOM     23  C   LIG    1        2.363   0.539 -11.025  0.00  0.00    +0.030 A 
ATOM     24  C   LIG    1        3.392   0.823 -11.903  0.00  0.00    +0.040 A 
ATOM     25  C   LIG    1        4.178   1.944 -11.712  0.00  0.00    +0.040 A 
ATOM     26  C   LIG    1        3.934   2.789 -10.645  0.00  0.00    +0.020 A 
ATOM     27  C   LIG    1        2.902   2.514  -9.765  0.00  0.00    +0.100 A 
ATOM     28  F   LIG    1        2.664   3.339  -8.723  0.00  0.00    -0.110 F 
ENDBRANCH  19  22
ENDBRANCH  16  17
ENDBRANCH   2  16
TORSDOF 8
