REMARK  Name = ZINCah0000002s3N.0
REMARK                            x       y       z     vdW  Elec       q    Type
REMARK                         _______ _______ _______ _____ _____    ______ ____
ROOT
ATOM      1  N   LIG    1        1.356   2.033   0.000  0.00  0.00    -0.360 N 
ATOM      2  C   LIG    1        1.865   2.895  -0.892  0.00  0.00    +0.320 A 
ATOM      3  C   LIG    1        3.188   3.113  -0.547  0.00  0.00    -0.330 A 
ATOM      4  C   LIG    1        3.450   2.334   0.606  0.00  0.00    +0.280 A 
ATOM      5  N   LIG    1        2.354   1.704   0.923  0.00  0.00    -0.300 NA
ENDROOT
BRANCH   3   6
ATOM      6  C   LIG    1        4.138   3.987  -1.244  0.00  0.00    +0.430 C 
ATOM      7  O   LIG    1        3.786   4.604  -2.227  0.00  0.00    -0.480 OA
ATOM      8  C   LIG    1        5.552   4.117  -0.739  0.00  0.00    +0.080 C 
ENDBRANCH   3   6
BRANCH   1  10
ATOM      9  C   LIG    1        0.002  -0.004   0.002  0.00  0.00    +0.040 C 
ATOM     10  C   LIG    1       -0.019   1.526   0.010  0.00  0.00    +0.310 C 
ENDBRANCH   1  10
TORSDOF 2
