REMARK  Name = ZINCqH0000036ojt.1
REMARK                            x       y       z     vdW  Elec       q    Type
REMARK                         _______ _______ _______ _____ _____    ______ ____
ROOT
ATOM      1  C   LIG    1       -2.566   3.852  -0.006  0.00  0.00    +0.180 C 
ENDROOT
BRANCH   1   7
ATOM      2  C   LIG    1       -0.967   1.937   0.245  0.00  0.00    +0.130 A 
ATOM      3  C   LIG    1        0.312   1.439   0.447  0.00  0.00    -0.080 A 
ATOM      4  C   LIG    1        1.375   2.308   0.601  0.00  0.00    +0.040 A 
ATOM      5  C   LIG    1        1.163   3.674   0.559  0.00  0.00    -0.040 A 
ATOM      6  C   LIG    1       -0.112   4.173   0.363  0.00  0.00    +0.080 A 
ATOM      7  C   LIG    1       -1.177   3.308   0.208  0.00  0.00    -0.110 A 
BRANCH   2   9
ATOM      8  C   LIG    1       -1.722  -0.315   0.142  0.00  0.00    +0.250 C 
ATOM      9  O   LIG    1       -2.012   1.083   0.088  0.00  0.00    -0.320 OA
ENDBRANCH   2   9
ENDBRANCH   1   7
BRANCH   1  10
ATOM     10  N   LIG    1       -2.480   5.195  -0.594  0.00  0.00    -0.510 NA
ATOM     11  C   LIG    1       -1.827   5.152  -1.928  0.00  0.00    +0.170 C 
ATOM     12  C   LIG    1       -2.288   6.474  -2.591  0.00  0.00    +0.030 C 
ATOM     13  C   LIG    1       -3.747   6.617  -2.100  0.00  0.00    +0.010 C 
ATOM     14  C   LIG    1       -3.827   5.761  -0.823  0.00  0.00    +0.170 C 
ENDBRANCH   1  10
BRANCH   1  15
ATOM     15  C   LIG    1       -3.296   3.929   1.336  0.00  0.00    +0.300 C 
BRANCH  15  16
ATOM     16  N   LIG    1       -2.627   4.904   2.201  0.00  0.00    -0.720 N 
ATOM     17  H   LIG    1       -1.892   5.435   1.855  0.00  0.00    +0.400 HD
ATOM     18  C   LIG    1       -3.032   5.063   3.477  0.00  0.00    +0.700 C 
ATOM     19  N   LIG    1       -2.416   5.960   4.272  0.00  0.00    -0.690 N 
ATOM     20  H   LIG    1       -1.639   6.442   3.949  0.00  0.00    +0.410 HD
ATOM     21  O   LIG    1       -3.952   4.397   3.910  0.00  0.00    -0.580 OA
BRANCH  19  22
ATOM     22  C   LIG    1       -2.899   6.197   5.565  0.00  0.00    +0.160 A 
ATOM     23  C   LIG    1       -2.839   7.474   6.107  0.00  0.00    +0.020 A 
ATOM     24  C   LIG    1       -3.320   7.707   7.381  0.00  0.00    +0.010 A 
ATOM     25  C   LIG    1       -3.853   6.665   8.121  0.00  0.00    +0.080 A 
ATOM     26  C   LIG    1       -3.909   5.390   7.585  0.00  0.00    +0.010 A 
ATOM     27  F   LIG    1       -4.317   6.893   9.369  0.00  0.00    -0.140 F 
ATOM     28  C   LIG    1       -3.434   5.154   6.309  0.00  0.00    +0.060 A 
ENDBRANCH  19  22
ENDBRANCH  15  16
ENDBRANCH   1  15
TORSDOF 6
