REMARK  Name = ZINCrD0000073P4d.0
REMARK                            x       y       z     vdW  Elec       q    Type
REMARK                         _______ _______ _______ _____ _____    ______ ____
ROOT
ATOM      1  C   LIG    1        0.659   6.487   0.879  0.00  0.00    +0.220 A 
ATOM      2  N   LIG    1       -0.277   7.415   0.898  0.00  0.00    -0.480 NA
ATOM      3  C   LIG    1       -0.992   7.362  -0.223  0.00  0.00    +0.250 A 
ATOM      4  C   LIG    1       -0.484   6.347  -1.006  0.00  0.00    -0.080 A 
ATOM      5  N   LIG    1        0.575   5.797  -0.290  0.00  0.00    -0.370 N 
ENDROOT
BRANCH   4   6
ATOM      6  C   LIG    1       -0.961   5.933  -2.323  0.00  0.00    +0.610 C 
ATOM      7  N   LIG    1       -1.221   6.858  -3.268  0.00  0.00    -0.550 N 
ATOM      8  C   LIG    1       -0.928   8.281  -3.037  0.00  0.00    +0.340 C 
ATOM      9  C   LIG    1       -2.063   9.113  -3.566  0.00  0.00    +0.510 C 
ATOM     10  N   LIG    1       -2.814   8.680  -4.596  0.00  0.00    -0.660 N 
ATOM     11  H   LIG    1       -3.522   9.244  -4.944  0.00  0.00    +0.420 HD
ATOM     12  C   LIG    1       -2.585   7.424  -5.170  0.00  0.00    +0.130 A 
ATOM     13  C   LIG    1       -3.147   7.090  -6.391  0.00  0.00    +0.010 A 
ATOM     14  C   LIG    1       -2.916   5.840  -6.937  0.00  0.00    +0.030 A 
ATOM     15  C   LIG    1       -2.126   4.922  -6.270  0.00  0.00    +0.010 A 
ATOM     16  C   LIG    1       -1.559   5.247  -5.050  0.00  0.00    +0.060 A 
ATOM     17  O   LIG    1       -2.307  10.185  -3.055  0.00  0.00    -0.510 OA
ATOM     18  C   LIG    1       -1.785   6.496  -4.500  0.00  0.00    +0.110 A 
ATOM     19  O   LIG    1       -1.125   4.751  -2.567  0.00  0.00    -0.500 OA
ENDBRANCH   4   6
BRANCH   5  20
ATOM     20  C   LIG    1        1.394   4.733  -0.694  0.00  0.00    +0.080 A 
ATOM     21  C   LIG    1        2.733   4.958  -0.983  0.00  0.00    +0.070 A 
ATOM     22  C   LIG    1        3.539   3.909  -1.381  0.00  0.00    +0.010 A 
ATOM     23  C   LIG    1        3.011   2.633  -1.490  0.00  0.00    +0.120 A 
ATOM     24  C   LIG    1        1.675   2.408  -1.207  0.00  0.00    +0.010 A 
ATOM     25  F   LIG    1        3.801   1.608  -1.879  0.00  0.00    -0.130 F 
ATOM     26  C   LIG    1        0.867   3.454  -0.804  0.00  0.00    +0.100 A 
ENDBRANCH   5  20
BRANCH   1  28
ATOM     27  C   LIG    1        1.329   7.461   3.347  0.00  0.00    +0.160 C 
ATOM     28  S   LIG    1        1.831   6.190   2.161  0.00  0.00    +0.000 S 
ENDBRANCH   1  28
TORSDOF 3
