REMARK  Name = ZINCrD0000070Y11.0
REMARK                            x       y       z     vdW  Elec       q    Type
REMARK                         _______ _______ _______ _____ _____    ______ ____
ROOT
ATOM      1  C   LIG    1       -1.288   2.013   0.073  0.00  0.00    +0.030 C 
ATOM      2  C   LIG    1       -1.420   2.771   1.397  0.00  0.00    +0.070 C 
ATOM      3  C   LIG    1       -2.775   3.481   1.439  0.00  0.00    +0.200 C 
ATOM      4  N   LIG    1       -3.853   2.492   1.310  0.00  0.00    -0.500 N 
ATOM      5  C   LIG    1       -3.773   1.785   0.025  0.00  0.00    +0.200 C 
ATOM      6  C   LIG    1       -2.449   1.024  -0.059  0.00  0.00    +0.070 C 
ENDROOT
BRANCH   4   7
ATOM      7  C   LIG    1       -5.104   3.090   1.476  0.00  0.00    +0.190 A 
ATOM      8  C   LIG    1       -5.506   4.110   0.623  0.00  0.00    +0.010 A 
ATOM      9  C   LIG    1       -6.745   4.699   0.789  0.00  0.00    +0.150 A 
ATOM     10  C   LIG    1       -7.582   4.275   1.804  0.00  0.00    -0.190 A 
ATOM     11  C   LIG    1       -7.185   3.260   2.656  0.00  0.00    +0.170 A 
ATOM     12  C   LIG    1       -5.951   2.663   2.491  0.00  0.00    -0.030 A 
BRANCH  10  13
ATOM     13  C   LIG    1       -8.932   4.921   1.984  0.00  0.00    +0.520 C 
ATOM     14  F   LIG    1       -9.008   5.496   3.257  0.00  0.00    -0.170 F 
ATOM     15  F   LIG    1       -9.934   3.954   1.849  0.00  0.00    -0.170 F 
ATOM     16  F   LIG    1       -9.108   5.913   1.012  0.00  0.00    -0.170 F 
ENDBRANCH  10  13
BRANCH  12  17
ATOM     17  N   LIG    1       -5.528   1.573   3.398  0.00  0.00    +0.030 N 
ATOM     18  O   LIG    1       -4.403   1.113   3.316  0.00  0.00    -0.090 OA
ATOM     19  O   LIG    1       -6.305   1.135   4.228  0.00  0.00    -0.190 OA
ENDBRANCH  12  17
ENDBRANCH   4   7
BRANCH   1  20
ATOM     20  C   LIG    1        0.019   1.262   0.051  0.00  0.00    +0.470 C 
ATOM     21  O   LIG    1        0.023   0.059  -0.059  0.00  0.00    -0.500 OA
BRANCH  20  22
ATOM     22  O   LIG    1        1.179   1.931   0.148  0.00  0.00    -0.340 OA
BRANCH  22  23
ATOM     23  C   LIG    1        2.398   1.144   0.114  0.00  0.00    +0.150 C 
ATOM     24  C   LIG    1        2.782   0.736   1.538  0.00  0.00    +0.070 C 
BRANCH  23  26
ATOM     25  C   LIG    1        4.728   1.281  -1.055  0.00  0.00    +0.090 C 
ATOM     26  C   LIG    1        3.509   1.964  -0.491  0.00  0.00    +0.360 C 
ATOM     27  O   LIG    1        3.422   3.168  -0.523  0.00  0.00    -0.430 OA
ENDBRANCH  23  26
ENDBRANCH  22  23
ENDBRANCH  20  22
ENDBRANCH   1  20
TORSDOF 7
