REMARK  Name = ZINCvU00000008HQ.0
REMARK                            x       y       z     vdW  Elec       q    Type
REMARK                         _______ _______ _______ _____ _____    ______ ____
ROOT
ATOM      1  C   LIG    1       -6.659   1.795  -2.730  0.00  0.00    +0.470 C 
ATOM      2  O   LIG    1       -7.073   0.801  -2.181  0.00  0.00    -0.510 OA
ENDROOT
BRANCH   1   3
ATOM      3  O   LIG    1       -5.360   2.120  -2.639  0.00  0.00    -0.330 OA
BRANCH   3   4
ATOM      4  C   LIG    1       -4.510   1.231  -1.867  0.00  0.00    +0.250 C 
BRANCH   4   7
ATOM      5  N   LIG    1       -2.127   1.086  -1.221  0.00  0.00    -0.720 N 
ATOM      6  H   LIG    1       -2.339   0.270  -0.742  0.00  0.00    +0.400 HD
ATOM      7  C   LIG    1       -3.097   1.753  -1.878  0.00  0.00    +0.520 C 
ATOM      8  O   LIG    1       -2.831   2.773  -2.477  0.00  0.00    -0.510 OA
BRANCH   5  14
ATOM      9  C   LIG    1        1.402   3.145   0.006  0.00  0.00    +0.020 C 
ATOM     10  C   LIG    1        1.423   1.615  -0.003  0.00  0.00    +0.000 C 
ATOM     11  C   LIG    1        2.139   1.122  -1.262  0.00  0.00    +0.010 C 
ATOM     12  C   LIG    1        1.399   1.629  -2.501  0.00  0.00    +0.020 C 
ATOM     13  C   LIG    1       -0.037   1.099  -2.490  0.00  0.00    +0.000 C 
ATOM     14  C   LIG    1       -0.753   1.593  -1.232  0.00  0.00    +0.240 C 
ATOM     15  C   LIG    1       -0.013   1.086   0.008  0.00  0.00    -0.010 C 
ATOM     16  C   LIG    1       -0.729   1.579   1.267  0.00  0.00    +0.020 C 
ENDBRANCH   5  14
ENDBRANCH   4   7
ENDBRANCH   3   4
ENDBRANCH   1   3
BRANCH   1  17
ATOM     17  C   LIG    1       -7.602   2.670  -3.515  0.00  0.00    +0.090 C 
BRANCH  17  18
ATOM     18  C   LIG    1       -9.012   2.080  -3.459  0.00  0.00    +0.320 C 
BRANCH  18  19
ATOM     19  N   LIG    1       -9.929   2.930  -4.222  0.00  0.00    -0.580 N 
ATOM     20  C   LIG    1      -10.595   3.976  -3.572  0.00  0.00    +0.190 A 
ATOM     21  C   LIG    1      -11.059   3.810  -2.277  0.00  0.00    -0.020 A 
ATOM     22  C   LIG    1      -11.719   4.847  -1.641  0.00  0.00    +0.050 A 
ATOM     23  C   LIG    1      -11.919   6.051  -2.289  0.00  0.00    +0.000 A 
ATOM     24  C   LIG    1      -11.448   6.233  -3.589  0.00  0.00    +0.080 A 
ATOM     25  C   LIG    1      -10.792   5.197  -4.228  0.00  0.00    -0.150 A 
ATOM     26  S   LIG    1      -10.198   5.391  -5.878  0.00  0.00    +0.010 S 
ATOM     27  C   LIG    1      -10.273   3.735  -6.484  0.00  0.00    -0.150 A 
ATOM     28  C   LIG    1      -10.472   3.486  -7.829  0.00  0.00    +0.070 A 
ATOM     29  C   LIG    1      -10.522   2.179  -8.286  0.00  0.00    +0.000 A 
ATOM     30  C   LIG    1      -10.373   1.129  -7.400  0.00  0.00    +0.050 A 
ATOM     31  C   LIG    1      -10.175   1.373  -6.052  0.00  0.00    -0.020 A 
ATOM     32  C   LIG    1      -10.125   2.677  -5.584  0.00  0.00    +0.190 A 
ENDBRANCH  18  19
ENDBRANCH  17  18
ENDBRANCH   1  17
TORSDOF 7
