REMARK  Name = ZINCAx0000000ejt.0
REMARK                            x       y       z     vdW  Elec       q    Type
REMARK                         _______ _______ _______ _____ _____    ______ ____
ROOT
ATOM      1  C   LIG    1        1.601   3.192  -0.496  0.00  0.00    +0.240 C 
ENDROOT
BRANCH   1   5
ATOM      2  C   LIG    1        2.805   0.068   1.082  0.00  0.00    +0.270 C 
ATOM      3  C   LIG    1        2.039  -0.467  -0.145  0.00  0.00    +0.060 C 
ATOM      4  C   LIG    1        1.575   0.793  -0.908  0.00  0.00    +0.170 C 
ATOM      5  N   LIG    1        1.537   1.862   0.123  0.00  0.00    -0.480 NA
ATOM      6  C   LIG    1        2.739   1.605   0.959  0.00  0.00    +0.200 C 
BRANCH   2   9
ATOM      7  C   LIG    1        6.108  -1.309   1.554  0.00  0.00    -0.100 A 
ATOM      8  C   LIG    1        4.827  -1.117   1.992  0.00  0.00    +0.140 A 
ATOM      9  N   LIG    1        4.198  -0.386   1.050  0.00  0.00    -0.350 N 
ATOM     10  N   LIG    1        5.131  -0.147   0.031  0.00  0.00    -0.060 NA
ATOM     11  C   LIG    1        4.233  -1.624   3.280  0.00  0.00    +0.190 C 
ATOM     12  N   LIG    1        6.246  -0.700   0.363  0.00  0.00    -0.180 NA
BRANCH   7  13
ATOM     13  C   LIG    1        7.159  -2.056   2.267  0.00  0.00    +0.560 C 
ATOM     14  O   LIG    1        6.919  -2.566   3.343  0.00  0.00    -0.500 OA
BRANCH  13  16
ATOM     15  C   LIG    1        9.373  -2.923   2.483  0.00  0.00    +0.290 C 
ATOM     16  O   LIG    1        8.387  -2.173   1.725  0.00  0.00    -0.340 OA
ENDBRANCH  13  16
ENDBRANCH   7  13
ENDBRANCH   2   9
ENDBRANCH   1   5
BRANCH   1  17
ATOM     17  C   LIG    1        0.854   3.174  -1.804  0.00  0.00    +0.180 A 
ATOM     18  N   LIG    1       -0.355   2.711  -2.009  0.00  0.00    -0.280 NA
ATOM     19  N   LIG    1       -0.638   2.876  -3.255  0.00  0.00    -0.070 NA
ATOM     20  N   LIG    1        0.361   3.425  -3.852  0.00  0.00    -0.090 NA
ATOM     21  N   LIG    1        1.302   3.624  -2.991  0.00  0.00    -0.300 N 
BRANCH  21  22
ATOM     22  C   LIG    1        2.610   4.227  -3.256  0.00  0.00    +0.350 C 
BRANCH  22  23
ATOM     23  C   LIG    1        3.608   3.132  -3.639  0.00  0.00    -0.050 C 
ATOM     24  C   LIG    1        5.008   3.741  -3.895  0.00  0.00    +0.040 C 
ATOM     25  C   LIG    1        5.488   2.942  -5.134  0.00  0.00    +0.220 C 
ATOM     26  O   LIG    1        4.285   2.776  -5.913  0.00  0.00    -0.370 OA
ATOM     27  C   LIG    1        3.220   2.497  -4.988  0.00  0.00    +0.200 C 
ENDBRANCH  22  23
ENDBRANCH  21  22
ENDBRANCH   1  17
BRANCH   1  28
ATOM     28  C   LIG    1        0.964   4.221   0.441  0.00  0.00    +0.060 C 
BRANCH  28  29
ATOM     29  C   LIG    1        1.755   4.279   1.749  0.00  0.00    +0.040 C 
ATOM     30  C   LIG    1        3.181   4.762   1.465  0.00  0.00    +0.010 C 
ATOM     31  C   LIG    1        3.942   4.905   2.784  0.00  0.00    +0.000 C 
ATOM     32  C   LIG    1        3.277   5.973   3.654  0.00  0.00    +0.000 C 
ATOM     33  C   LIG    1        1.854   5.529   4.008  0.00  0.00    +0.050 C 
ATOM     34  C   LIG    1        1.082   5.261   2.713  0.00  0.00    -0.110 C 
ATOM     35  C   LIG    1       -0.445   5.255   2.783  0.00  0.00    +0.020 C 
ATOM     36  C   LIG    1        0.287   6.417   2.107  0.00  0.00    +0.000 C 
ENDBRANCH  28  29
ENDBRANCH   1  28
TORSDOF 9
