REMARK  Name = ZINCpk00000KfKkW.0
REMARK                            x       y       z     vdW  Elec       q    Type
REMARK                         _______ _______ _______ _____ _____    ______ ____
ROOT
ATOM      1  C   LIG    1       -0.428  -4.138   2.451  0.00  0.00    +0.330 C 
ATOM      2  N   LIG    1       -0.405  -4.891   1.386  0.00  0.00    -0.280 NA
ATOM      3  N   LIG    1        0.110  -6.191   1.438  0.00  0.00    -0.400 N 
ATOM      4  C   LIG    1        0.298  -6.811   2.620  0.00  0.00    +0.480 C 
ATOM      5  C   LIG    1       -0.066  -6.095   3.900  0.00  0.00    +0.340 C 
ATOM      6  O   LIG    1        0.757  -7.933   2.657  0.00  0.00    -0.500 OA
ATOM      7  N   LIG    1        0.049  -4.648   3.663  0.00  0.00    -0.740 N 
ATOM      8  H   LIG    1        0.445  -4.064   4.328  0.00  0.00    +0.420 HD
ENDROOT
BRANCH   3   9
ATOM      9  C   LIG    1        0.428  -6.858   0.250  0.00  0.00    +0.150 A 
ATOM     10  C   LIG    1        1.188  -6.222  -0.724  0.00  0.00    +0.020 A 
ATOM     11  C   LIG    1        1.504  -6.885  -1.893  0.00  0.00    +0.020 A 
ATOM     12  C   LIG    1        1.056  -8.176  -2.100  0.00  0.00    +0.010 A 
ATOM     13  C   LIG    1        0.294  -8.811  -1.136  0.00  0.00    +0.030 A 
ATOM     14  C   LIG    1       -0.021  -8.155   0.038  0.00  0.00    +0.030 A 
ENDBRANCH   3   9
BRANCH   1  16
ATOM     15  O   LIG    1       -0.982  -2.069   3.376  0.00  0.00    -0.510 OA
ATOM     16  C   LIG    1       -0.959  -2.765   2.379  0.00  0.00    +0.590 C 
ATOM     17  N   LIG    1       -1.417  -2.280   1.208  0.00  0.00    -0.700 N 
ATOM     18  H   LIG    1       -1.398  -2.834   0.412  0.00  0.00    +0.410 HD
BRANCH  17  19
ATOM     19  C   LIG    1       -1.944  -0.915   1.136  0.00  0.00    +0.280 C 
BRANCH  19  20
ATOM     20  C   LIG    1       -2.394  -0.616  -0.295  0.00  0.00    +0.090 C 
BRANCH  20  21
ATOM     21  C   LIG    1       -2.936   0.788  -0.369  0.00  0.00    -0.100 A 
ATOM     22  C   LIG    1       -4.281   1.022  -0.149  0.00  0.00    +0.050 A 
ATOM     23  C   LIG    1       -4.778   2.310  -0.211  0.00  0.00    -0.010 A 
ATOM     24  C   LIG    1       -3.931   3.365  -0.504  0.00  0.00    +0.100 A 
ATOM     25  C   LIG    1       -2.585   3.129  -0.730  0.00  0.00    -0.010 A 
ATOM     26  F   LIG    1       -4.417   4.624  -0.571  0.00  0.00    -0.140 F 
ATOM     27  C   LIG    1       -2.089   1.841  -0.662  0.00  0.00    +0.050 A 
ENDBRANCH  20  21
ENDBRANCH  19  20
ENDBRANCH  17  19
ENDBRANCH   1  16
TORSDOF 5
