REMARK  Name = ZINCrg00000SjSt1.0
REMARK                            x       y       z     vdW  Elec       q    Type
REMARK                         _______ _______ _______ _____ _____    ______ ____
ROOT
ATOM      1  C   LIG    1        1.309   3.004   2.530  0.00  0.00    +0.550 C 
ATOM      2  N   LIG    1        2.550   3.425   2.844  0.00  0.00    -0.630 N 
ATOM      3  C   LIG    1        3.464   3.035   3.971  0.00  0.00    +0.240 C 
ATOM      4  C   LIG    1        4.750   2.634   3.187  0.00  0.00    +0.040 C 
ATOM      5  C   LIG    1        4.739   3.576   1.967  0.00  0.00    +0.030 C 
ATOM      6  C   LIG    1        3.787   4.428   4.591  0.00  0.00    +0.240 C 
ATOM      7  C   LIG    1        3.774   5.378   3.368  0.00  0.00    +0.030 C 
ATOM      8  C   LIG    1        3.448   4.425   2.172  0.00  0.00    +0.240 C 
ATOM      9  O   LIG    1        0.759   2.170   3.218  0.00  0.00    -0.520 OA
ENDROOT
BRANCH   1  15
ATOM     10  N   LIG    1       -0.341   2.575   0.797  0.00  0.00    -0.510 NA
ATOM     11  C   LIG    1       -1.070   3.112  -0.362  0.00  0.00    +0.160 C 
ATOM     12  C   LIG    1       -1.820   4.379   0.056  0.00  0.00    +0.220 C 
ATOM     13  O   LIG    1       -0.889   5.322   0.595  0.00  0.00    -0.380 OA
ATOM     14  C   LIG    1       -0.162   4.833   1.725  0.00  0.00    +0.250 C 
ATOM     15  C   LIG    1        0.605   3.570   1.324  0.00  0.00    +0.100 C 
BRANCH  10  17
ATOM     16  C   LIG    1        1.432   1.609  -0.588  0.00  0.00    -0.010 C 
ATOM     17  C   LIG    1        0.347   1.324   0.453  0.00  0.00    +0.210 C 
ENDBRANCH  10  17
ENDBRANCH   1  15
BRANCH   6  18
ATOM     18  N   LIG    1        2.754   4.816   5.555  0.00  0.00    -0.730 N 
ATOM     19  H   LIG    1        1.859   4.450   5.480  0.00  0.00    +0.400 HD
ATOM     20  C   LIG    1        3.048   5.679   6.547  0.00  0.00    +0.520 C 
ATOM     21  O   LIG    1        4.168   6.136   6.641  0.00  0.00    -0.520 OA
BRANCH  20  22
ATOM     22  C   LIG    1        1.986   6.077   7.539  0.00  0.00    +0.060 C 
BRANCH  22  23
ATOM     23  C   LIG    1        2.577   7.060   8.552  0.00  0.00    -0.040 C 
ATOM     24  C   LIG    1        3.084   8.304   7.820  0.00  0.00    +0.030 C 
ATOM     25  C   LIG    1        3.740   6.393   9.290  0.00  0.00    +0.030 C 
BRANCH  23  26
ATOM     26  C   LIG    1        1.499   7.464   9.560  0.00  0.00    +0.170 C 
BRANCH  26  27
ATOM     27  O   LIG    1        2.051   8.382  10.506  0.00  0.00    -0.380 OA
ATOM     28  C   LIG    1        1.122   8.824  11.497  0.00  0.00    +0.200 C 
ENDBRANCH  26  27
ENDBRANCH  23  26
ENDBRANCH  22  23
ENDBRANCH  20  22
ENDBRANCH   6  18
TORSDOF 7
