REMARK  Name = ZINCvU0000000FQW.0
REMARK                            x       y       z     vdW  Elec       q    Type
REMARK                         _______ _______ _______ _____ _____    ______ ____
ROOT
ATOM      1  O   LIG    1        1.037   4.344   0.015  0.00  0.00    -0.490 OA
ATOM      2  C   LIG    1        1.984   3.586   0.002  0.00  0.00    +0.580 C 
ATOM      3  N   LIG    1        3.240   4.076  -0.007  0.00  0.00    -0.460 N 
ATOM      4  N   LIG    1        4.406   3.314  -0.016  0.00  0.00    -0.220 NA
ATOM      5  C   LIG    1        5.492   4.014  -0.029  0.00  0.00    +0.190 C 
ATOM      6  C   LIG    1        5.143   5.485  -0.018  0.00  0.00    +0.110 C 
ATOM      7  C   LIG    1        3.602   5.502  -0.003  0.00  0.00    +0.330 C 
ENDROOT
BRANCH   5   8
ATOM      8  C   LIG    1        6.851   3.466  -0.044  0.00  0.00    +0.020 A 
ATOM      9  C   LIG    1        7.183   2.142  -0.054  0.00  0.00    +0.030 A 
ATOM     10  C   LIG    1        8.588   2.077  -0.067  0.00  0.00    -0.060 A 
ATOM     11  C   LIG    1        9.044   3.346  -0.064  0.00  0.00    +0.200 A 
ATOM     12  O   LIG    1        7.994   4.183  -0.056  0.00  0.00    -0.160 OA
ENDBRANCH   5   8
BRANCH   7  13
ATOM     13  C   LIG    1        3.091   6.175   1.245  0.00  0.00    -0.030 A 
ATOM     14  C   LIG    1        2.575   7.415   1.315  0.00  0.00    -0.030 A 
ATOM     15  C   LIG    1        2.227   7.638   2.667  0.00  0.00    -0.060 A 
ATOM     16  C   LIG    1        2.550   6.521   3.342  0.00  0.00    +0.170 A 
ATOM     17  O   LIG    1        3.068   5.636   2.475  0.00  0.00    -0.170 OA
ENDBRANCH   7  13
BRANCH   2  18
ATOM     18  C   LIG    1        1.756   2.096  -0.004  0.00  0.00    +0.130 C 
BRANCH  18  19
ATOM     19  S   LIG    1       -0.022   1.758   0.012  0.00  0.00    +0.060 S 
BRANCH  19  20
ATOM     20  C   LIG    1        0.002  -0.004   0.002  0.00  0.00    +0.180 A 
ATOM     21  N   LIG    1        1.077  -0.758  -0.012  0.00  0.00    -0.480 NA
ATOM     22  C   LIG    1        0.714  -2.051  -0.015  0.00  0.00    +0.170 A 
ATOM     23  C   LIG    1       -0.629  -2.115  -0.003  0.00  0.00    +0.140 A 
ATOM     24  N   LIG    1       -1.093  -0.817   0.014  0.00  0.00    -0.400 N 
BRANCH  24  25
ATOM     25  C   LIG    1       -2.434  -0.411   0.035  0.00  0.00    +0.130 A 
ATOM     26  C   LIG    1       -2.864   0.521   0.970  0.00  0.00    +0.030 A 
ATOM     27  C   LIG    1       -4.185   0.924   0.986  0.00  0.00    +0.070 A 
ATOM     28  C   LIG    1       -5.082   0.393   0.079  0.00  0.00    +0.040 A 
ATOM     29  C   LIG    1       -4.659  -0.540  -0.851  0.00  0.00    -0.020 A 
ATOM     30 CL   LIG    1       -5.789  -1.205  -1.989  0.00  0.00    -0.050 Cl
ATOM     31  C   LIG    1       -3.337  -0.943  -0.875  0.00  0.00    +0.040 A 
ENDBRANCH  24  25
ENDBRANCH  19  20
ENDBRANCH  18  19
ENDBRANCH   2  18
TORSDOF 6
