REMARK  Name = ZINCvU0000000DrP.0
REMARK                            x       y       z     vdW  Elec       q    Type
REMARK                         _______ _______ _______ _____ _____    ______ ____
ROOT
ATOM      1  C   LIG    1        1.177   1.781   0.000  0.00  0.00    -0.120 A 
ATOM      2  C   LIG    1        1.165   3.161   0.007  0.00  0.00    +0.070 A 
ATOM      3  C   LIG    1       -0.050   3.844   0.022  0.00  0.00    -0.010 A 
ATOM      4  C   LIG    1       -1.246   3.129   0.030  0.00  0.00    +0.070 A 
ATOM      5  C   LIG    1       -1.221   1.748   0.017  0.00  0.00    +0.010 A 
ATOM      6  C   LIG    1       -0.013   1.076   0.008  0.00  0.00    +0.050 A 
ENDROOT
BRANCH   3   7
ATOM      7  C   LIG    1       -0.070   5.328   0.029  0.00  0.00    +0.260 A 
ATOM      8  N   LIG    1        0.988   6.109   0.023  0.00  0.00    -0.300 NA
ATOM      9  N   LIG    1        0.514   7.431   0.034  0.00  0.00    -0.350 N 
ATOM     10  C   LIG    1       -0.829   7.356   0.047  0.00  0.00    +0.300 A 
ATOM     11  N   LIG    1       -1.169   6.094   0.038  0.00  0.00    -0.530 NA
BRANCH  10  12
ATOM     12  C   LIG    1       -1.778   8.526   0.062  0.00  0.00    +0.070 C 
ATOM     13  C   LIG    1       -3.025   8.296   0.933  0.00  0.00    +0.110 C 
ATOM     14  C   LIG    1       -3.826   8.996  -0.172  0.00  0.00    -0.090 C 
ATOM     15  C   LIG    1       -5.283   8.623  -0.429  0.00  0.00    +0.140 C 
ATOM     16  S   LIG    1       -5.813   9.971   0.664  0.00  0.00    -0.290 S 
ATOM     17  C   LIG    1       -4.214  10.465  -0.037  0.00  0.00    +0.150 C 
ATOM     18  C   LIG    1       -2.726   8.566  -1.150  0.00  0.00    +0.080 C 
ENDBRANCH  10  12
BRANCH   9  19
ATOM     19  C   LIG    1        1.323   8.652   0.032  0.00  0.00    +0.220 C 
ATOM     20  C   LIG    1        2.830   8.500  -0.187  0.00  0.00    +0.060 C 
ATOM     21  C   LIG    1        2.291   8.860   1.199  0.00  0.00    +0.040 C 
ENDBRANCH   9  19
ENDBRANCH   3   7
BRANCH   1  22
ATOM     22  C   LIG    1        2.490   1.041  -0.016  0.00  0.00    +0.370 C 
BRANCH  22  30
ATOM     23  C   LIG    1        4.933   2.946  -4.283  0.00  0.00    +0.000 A 
ATOM     24  C   LIG    1        4.768   3.591  -3.066  0.00  0.00    +0.030 A 
ATOM     25  C   LIG    1        4.104   2.969  -2.030  0.00  0.00    +0.010 A 
ATOM     26  C   LIG    1        3.597   1.689  -2.208  0.00  0.00    +0.050 A 
ATOM     27  C   LIG    1        3.764   1.037  -3.442  0.00  0.00    +0.040 A 
ATOM     28  N   LIG    1        3.175  -0.182  -3.327  0.00  0.00    -0.500 NA
ATOM     29  C   LIG    1        2.677  -0.316  -2.133  0.00  0.00    +0.470 A 
ATOM     30  N   LIG    1        2.902   0.809  -1.403  0.00  0.00    -0.490 N 
ATOM     31  C   LIG    1        4.440   1.687  -4.477  0.00  0.00    +0.070 A 
ENDBRANCH  22  30
ENDBRANCH   1  22
TORSDOF 5
