REMARK  Name = ZINCvU0000000BNB.0
REMARK                            x       y       z     vdW  Elec       q    Type
REMARK                         _______ _______ _______ _____ _____    ______ ____
ROOT
ATOM      1  C   LIG    1       -2.169   7.619  -0.349  0.00  0.00    +0.150 C 
ATOM      2  C   LIG    1       -1.641   6.214  -0.222  0.00  0.00    -0.200 A 
ATOM      3  C   LIG    1       -0.364   5.890  -0.289  0.00  0.00    -0.040 A 
ATOM      4  C   LIG    1       -0.086   4.473  -0.140  0.00  0.00    -0.230 A 
ATOM      5  C   LIG    1       -1.248   3.729   0.048  0.00  0.00    +0.080 A 
ATOM      6  N   LIG    1       -1.167   2.392   0.199  0.00  0.00    -0.510 NA
ATOM      7  C   LIG    1       -0.014   1.768   0.184  0.00  0.00    +0.370 A 
ATOM      8  N   LIG    1        1.160   2.440   0.004  0.00  0.00    -0.510 N 
ATOM      9  C   LIG    1        1.159   3.777  -0.159  0.00  0.00    +0.570 A 
ATOM     10  O   LIG    1        2.205   4.383  -0.319  0.00  0.00    -0.500 OA
ATOM     11  C   LIG    1        0.722   6.912  -0.503  0.00  0.00    +0.120 C 
ATOM     12  S   LIG    1       -2.644   4.799   0.034  0.00  0.00    +0.200 S 
ENDROOT
BRANCH   8  13
ATOM     13  C   LIG    1        2.427   1.704  -0.012  0.00  0.00    +0.230 C 
ATOM     14  C   LIG    1        3.341   2.201   1.126  0.00  0.00    +0.030 C 
ATOM     15  C   LIG    1        4.764   2.164   0.514  0.00  0.00    +0.020 C 
ATOM     16  C   LIG    1        4.521   2.627  -0.944  0.00  0.00    +0.030 C 
ATOM     17  C   LIG    1        3.177   1.975  -1.329  0.00  0.00    +0.030 C 
ENDBRANCH   8  13
BRANCH   7  18
ATOM     18  S   LIG    1        0.020   0.019   0.394  0.00  0.00    +0.050 S 
BRANCH  18  19
ATOM     19  C   LIG    1       -1.750  -0.310   0.582  0.00  0.00    +0.270 C 
BRANCH  19  20
ATOM     20  C   LIG    1       -1.968  -1.788   0.780  0.00  0.00    +0.160 A 
ATOM     21  N   LIG    1       -1.987  -2.417   1.922  0.00  0.00    -0.250 NA
ATOM     22  N   LIG    1       -2.202  -3.669   1.719  0.00  0.00    -0.270 NA
ATOM     23  C   LIG    1       -2.318  -3.885   0.430  0.00  0.00    +0.230 A 
ATOM     24  O   LIG    1       -2.172  -2.697  -0.189  0.00  0.00    -0.210 OA
BRANCH  23  25
ATOM     25  C   LIG    1       -2.563  -5.189  -0.222  0.00  0.00    -0.050 A 
ATOM     26  C   LIG    1       -2.670  -5.269  -1.611  0.00  0.00    +0.090 A 
ATOM     27  C   LIG    1       -2.894  -6.489  -2.214  0.00  0.00    +0.000 A 
ATOM     28  C   LIG    1       -3.024  -7.633  -1.443  0.00  0.00    +0.130 A 
ATOM     29  C   LIG    1       -2.923  -7.559  -0.062  0.00  0.00    +0.000 A 
ATOM     30  F   LIG    1       -3.249  -8.824  -2.038  0.00  0.00    -0.130 F 
ATOM     31  C   LIG    1       -2.694  -6.345   0.551  0.00  0.00    +0.120 A 
ENDBRANCH  23  25
ENDBRANCH  19  20
ENDBRANCH  18  19
ENDBRANCH   7  18
TORSDOF 5
