REMARK  Name = ZINCpk00000ebd03.0
REMARK                            x       y       z     vdW  Elec       q    Type
REMARK                         _______ _______ _______ _____ _____    ______ ____
ROOT
ATOM      1  C   LIG    1        6.981   2.268   3.459  0.00  0.00    +0.110 C 
ATOM      2  C   LIG    1        7.906   2.990   2.476  0.00  0.00    +0.040 C 
ATOM      3  C   LIG    1        7.456   2.699   1.043  0.00  0.00    +0.030 C 
ATOM      4  C   LIG    1        6.031   3.225   0.842  0.00  0.00    +0.270 C 
ATOM      5  N   LIG    1        5.163   2.646   1.876  0.00  0.00    -0.610 N 
ATOM      6  C   LIG    1        4.032   1.995   1.538  0.00  0.00    +0.500 C 
ATOM      7  O   LIG    1        3.324   1.521   2.401  0.00  0.00    -0.520 OA
ATOM      8  C   LIG    1        5.548   2.794   3.286  0.00  0.00    +0.300 C 
ENDROOT
BRANCH   1  13
ATOM      9  C   LIG    1        8.642   1.739   8.154  0.00  0.00    +0.200 C 
ATOM     10  C   LIG    1        8.145   2.320   6.855  0.00  0.00    +0.170 A 
ATOM     11  N   LIG    1        7.948   3.579   6.602  0.00  0.00    -0.380 NA
ATOM     12  O   LIG    1        7.545   3.721   5.466  0.00  0.00    +0.080 OA
ATOM     13  C   LIG    1        7.444   2.530   4.870  0.00  0.00    +0.190 A 
ATOM     14  N   LIG    1        7.819   1.631   5.748  0.00  0.00    -0.480 NA
ENDBRANCH   1  13
BRANCH   6  15
ATOM     15  C   LIG    1        3.647   1.857   0.088  0.00  0.00    +0.340 C 
BRANCH  15  16
ATOM     16  N   LIG    1        2.388   1.115  -0.015  0.00  0.00    -0.580 N 
ATOM     17  C   LIG    1        2.405  -0.345  -0.133  0.00  0.00    +0.310 C 
BRANCH  16  18
ATOM     18  C   LIG    1        1.181   1.795   0.000  0.00  0.00    +0.430 A 
ATOM     19  C   LIG    1       -0.013   1.076   0.008  0.00  0.00    -0.090 A 
ATOM     20  C   LIG    1       -1.204   1.751   0.017  0.00  0.00    +0.160 A 
ATOM     21  C   LIG    1       -1.178   3.154   0.030  0.00  0.00    -0.150 A 
ATOM     22  C   LIG    1        0.054   3.809   0.022  0.00  0.00    +0.380 A 
ATOM     23  N   LIG    1        1.177   3.121   0.008  0.00  0.00    -0.540 NA
BRANCH  21  24
ATOM     24  C   LIG    1       -2.399   3.902   0.045  0.00  0.00    +0.260 C 
ATOM     25  N   LIG    1       -3.367   4.496   0.057  0.00  0.00    -0.420 NA
ENDBRANCH  21  24
ENDBRANCH  16  18
ENDBRANCH  15  16
ENDBRANCH   6  15
TORSDOF 5
