REMARK  Name = ZINCrH000004jupi.0
REMARK                            x       y       z     vdW  Elec       q    Type
REMARK                         _______ _______ _______ _____ _____    ______ ____
ROOT
ATOM      1  C   LIG    1       -2.561   6.125  -0.511  0.00  0.00    +0.280 C 
ATOM      2  N   LIG    1       -1.393   6.113   0.373  0.00  0.00    -0.600 N 
ATOM      3  C   LIG    1       -1.307   6.996   1.387  0.00  0.00    +0.530 C 
ATOM      4  O   LIG    1       -0.340   6.986   2.120  0.00  0.00    -0.520 OA
ENDROOT
BRANCH   2   5
ATOM      5  C   LIG    1       -0.319   5.141   0.155  0.00  0.00    +0.350 C 
BRANCH   5   6
ATOM      6  C   LIG    1       -0.247   4.199   1.329  0.00  0.00    +0.130 A 
ATOM      7  C   LIG    1        0.942   3.558   1.619  0.00  0.00    -0.030 A 
ATOM      8  C   LIG    1        0.997   2.693   2.702  0.00  0.00    +0.060 A 
ATOM      9  C   LIG    1       -0.151   2.506   3.455  0.00  0.00    -0.040 A 
ATOM     10  C   LIG    1       -1.306   3.177   3.102  0.00  0.00    +0.250 A 
ATOM     11  N   LIG    1       -1.321   3.996   2.069  0.00  0.00    -0.470 NA
ENDBRANCH   5   6
BRANCH   5  12
ATOM     12  C   LIG    1       -0.598   4.357  -1.101  0.00  0.00    -0.100 A 
ATOM     13  C   LIG    1       -1.786   3.661  -1.232  0.00  0.00    +0.040 A 
ATOM     14  C   LIG    1       -2.044   2.946  -2.386  0.00  0.00    +0.000 A 
ATOM     15  C   LIG    1       -1.111   2.918  -3.406  0.00  0.00    +0.010 A 
ATOM     16  C   LIG    1        0.079   3.609  -3.273  0.00  0.00    +0.010 A 
ATOM     17  C   LIG    1        0.335   4.328  -2.120  0.00  0.00    +0.030 A 
ENDBRANCH   5  12
ENDBRANCH   2   5
BRANCH   3  18
ATOM     18  C   LIG    1       -2.412   7.996   1.612  0.00  0.00    +0.210 C 
BRANCH  18  19
ATOM     19  N   LIG    1       -2.082   8.838   2.769  0.00  0.00    -0.510 NA
ATOM     20  C   LIG    1       -3.012   9.972   2.877  0.00  0.00    +0.240 C 
ATOM     21  C   LIG    1       -4.451   9.444   2.849  0.00  0.00    +0.080 C 
ATOM     22  C   LIG    1       -4.553   8.304   3.840  0.00  0.00    -0.190 A 
ATOM     23  C   LIG    1       -3.489   7.668   4.369  0.00  0.00    -0.130 A 
ATOM     24  C   LIG    1       -3.829   6.655   5.257  0.00  0.00    +0.020 A 
ATOM     25  C   LIG    1       -5.133   6.469   5.447  0.00  0.00    -0.050 A 
ATOM     26  S   LIG    1       -6.040   7.615   4.471  0.00  0.00    +0.100 S 
ATOM     27  C   LIG    1       -2.059   8.047   4.007  0.00  0.00    +0.310 C 
ENDBRANCH  18  19
ENDBRANCH   3  18
TORSDOF 5
