REMARK  Name = ZINCnE000001FO1n.0
REMARK                            x       y       z     vdW  Elec       q    Type
REMARK                         _______ _______ _______ _____ _____    ______ ____
ROOT
ATOM      1  N   LIG    1        9.626   0.720  -3.159  0.00  0.00    -0.490 N 
ATOM      2  C   LIG    1        9.481   0.726  -4.519  0.00  0.00    +0.190 A 
ATOM      3  C   LIG    1        8.177   0.710  -4.840  0.00  0.00    -0.090 A 
ATOM      4  C   LIG    1        7.426   0.692  -3.583  0.00  0.00    -0.060 A 
ATOM      5  C   LIG    1        6.066   0.671  -3.267  0.00  0.00    -0.050 A 
ATOM      6  C   LIG    1        5.672   0.658  -1.942  0.00  0.00    +0.260 A 
ATOM      7  C   LIG    1        6.627   0.671  -0.926  0.00  0.00    -0.110 A 
ATOM      8  C   LIG    1        7.971   0.686  -1.228  0.00  0.00    +0.010 A 
ATOM      9  C   LIG    1        8.386   0.699  -2.555  0.00  0.00    +0.020 A 
ENDROOT
BRANCH   1  10
ATOM     10  C   LIG    1       10.908   0.734  -2.449  0.00  0.00    +0.280 C 
BRANCH  10  12
ATOM     11  C   LIG    1       12.652  -0.686  -1.359  0.00  0.00    +0.020 C 
ATOM     12  C   LIG    1       11.313  -0.700  -2.100  0.00  0.00    +0.000 C 
ENDBRANCH  10  12
ENDBRANCH   1  10
BRANCH   6  13
ATOM     13  N   LIG    1        4.311   0.638  -1.619  0.00  0.00    -1.090 NA
BRANCH  13  14
ATOM     14  S   LIG    1        3.837   0.622  -0.032  0.00  0.00    +2.630 S 
ATOM     15  O   LIG    1        4.260  -0.625   0.501  0.00  0.00    -1.030 OA
ATOM     16  O   LIG    1        4.226   1.874   0.516  0.00  0.00    -1.030 OA
BRANCH  14  17
ATOM     17  C   LIG    1        2.075   0.599  -0.015  0.00  0.00    -0.730 A 
ATOM     18  C   LIG    1        1.255  -0.480  -0.013  0.00  0.00    +0.080 A 
ATOM     19  O   LIG    1        0.002  -0.004   0.002  0.00  0.00    +0.080 OA
ATOM     20  N   LIG    1       -0.014   1.205   0.009  0.00  0.00    -0.380 NA
ATOM     21  C   LIG    1        1.670  -1.928  -0.024  0.00  0.00    +0.210 C 
ATOM     22  C   LIG    1        1.189   1.701  -0.000  0.00  0.00    +0.100 A 
ATOM     23  C   LIG    1        1.565   3.160   0.003  0.00  0.00    +0.180 C 
ENDBRANCH  14  17
ENDBRANCH  13  14
ENDBRANCH   6  13
TORSDOF 5
