REMARK  Name = ZINCpe000000WC2x.0
REMARK                            x       y       z     vdW  Elec       q    Type
REMARK                         _______ _______ _______ _____ _____    ______ ____
ROOT
ATOM      1  N   LIG    1        2.523   1.269  -0.072  0.00  0.00    -0.490 N 
ATOM      2  C   LIG    1        3.200   1.481  -1.359  0.00  0.00    +0.210 C 
ATOM      3  C   LIG    1        4.563   0.786  -1.336  0.00  0.00    +0.200 C 
ATOM      4  N   LIG    1        4.376  -0.647  -1.072  0.00  0.00    -0.520 NA
ATOM      5  C   LIG    1        3.699  -0.859   0.215  0.00  0.00    +0.190 C 
ATOM      6  C   LIG    1        2.335  -0.164   0.192  0.00  0.00    +0.200 C 
ENDROOT
BRANCH   1  11
ATOM      7  C   LIG    1        0.017   3.955  -0.199  0.00  0.00    +0.100 A 
ATOM      8  C   LIG    1       -1.116   3.201   0.073  0.00  0.00    +0.150 A 
ATOM      9  N   LIG    1       -1.030   1.901   0.273  0.00  0.00    -0.430 NA
ATOM     10  C   LIG    1        0.124   1.266   0.236  0.00  0.00    +0.180 A 
ATOM     11  C   LIG    1        1.304   1.950  -0.029  0.00  0.00    +0.100 A 
ATOM     12  C   LIG    1        1.254   3.323  -0.252  0.00  0.00    +0.000 A 
BRANCH   7  14
ATOM     13  C   LIG    1       -1.388   5.868  -0.338  0.00  0.00    +0.250 C 
ATOM     14  O   LIG    1       -0.081   5.294  -0.410  0.00  0.00    -0.310 OA
ENDBRANCH   7  14
ENDBRANCH   1  11
BRANCH   4  15
ATOM     15  C   LIG    1        5.658  -1.363  -1.117  0.00  0.00    +0.210 C 
BRANCH  15  16
ATOM     16  C   LIG    1        5.405  -2.848  -1.093  0.00  0.00    +0.520 C 
ATOM     17  N   LIG    1        6.440  -3.707  -1.000  0.00  0.00    -0.620 N 
ATOM     18  C   LIG    1        7.826  -3.217  -0.927  0.00  0.00    +0.250 C 
ATOM     19  C   LIG    1        8.512  -3.897   0.269  0.00  0.00    +0.140 C 
ATOM     20  O   LIG    1        8.344  -5.312   0.164  0.00  0.00    -0.370 OA
ATOM     21  C   LIG    1        6.983  -5.746   0.219  0.00  0.00    +0.190 C 
ATOM     22  C   LIG    1        6.345  -5.261   1.522  0.00  0.00    +0.020 C 
ATOM     23  C   LIG    1       10.004  -3.557   0.260  0.00  0.00    +0.060 C 
ATOM     24  C   LIG    1        6.218  -5.161  -0.974  0.00  0.00    +0.260 C 
ATOM     25  O   LIG    1        4.270  -3.271  -1.156  0.00  0.00    -0.510 OA
ENDBRANCH  15  16
ENDBRANCH   4  15
TORSDOF 4
