REMARK  Name = ZINCrH000004tOHt.0
REMARK                            x       y       z     vdW  Elec       q    Type
REMARK                         _______ _______ _______ _____ _____    ______ ____
ROOT
ATOM      1  O   LIG    1       -4.667   5.231   0.078  0.00  0.00    -0.520 OA
ATOM      2  C   LIG    1       -4.873   4.036   0.072  0.00  0.00    +0.520 C 
ATOM      3  N   LIG    1       -6.138   3.570   0.082  0.00  0.00    -0.610 N 
ATOM      4  C   LIG    1       -6.531   2.149   0.077  0.00  0.00    +0.250 C 
ATOM      5  C   LIG    1       -7.947   2.127   0.704  0.00  0.00    +0.040 C 
ATOM      6  C   LIG    1       -8.561   3.433   0.133  0.00  0.00    +0.050 C 
ATOM      7  C   LIG    1       -7.355   4.395   0.105  0.00  0.00    +0.270 C 
ENDROOT
BRANCH   7   8
ATOM      8  C   LIG    1       -7.416   5.253  -1.133  0.00  0.00    -0.080 A 
ATOM      9  C   LIG    1       -7.029   4.731  -2.352  0.00  0.00    +0.030 A 
ATOM     10  C   LIG    1       -7.088   5.511  -3.494  0.00  0.00    +0.010 A 
ATOM     11  C   LIG    1       -7.526   6.821  -3.408  0.00  0.00    +0.070 A 
ATOM     12  O   LIG    1       -7.584   7.603  -4.525  0.00  0.00    -0.320 OA
ATOM     13  C   LIG    1       -8.894   7.962  -4.969  0.00  0.00    +0.230 C 
ATOM     14  C   LIG    1       -9.400   9.186  -4.222  0.00  0.00    -0.020 C 
ATOM     15  C   LIG    1       -9.590   8.921  -2.736  0.00  0.00    +0.230 C 
ATOM     16  O   LIG    1       -8.338   8.641  -2.107  0.00  0.00    -0.320 OA
ATOM     17  C   LIG    1       -7.909   7.348  -2.182  0.00  0.00    +0.070 A 
ATOM     18  C   LIG    1       -7.854   6.563  -1.043  0.00  0.00    +0.030 A 
ENDBRANCH   7   8
BRANCH   2  19
ATOM     19  C   LIG    1       -3.716   3.072   0.055  0.00  0.00    +0.290 C 
BRANCH  19  20
ATOM     20  N   LIG    1       -2.457   3.821   0.048  0.00  0.00    -0.730 N 
ATOM     21  H   LIG    1       -2.469   4.790   0.054  0.00  0.00    +0.410 HD
BRANCH  20  22
ATOM     22  C   LIG    1       -1.238   3.138   0.031  0.00  0.00    +0.250 A 
ATOM     23  C   LIG    1       -1.219   1.749   0.017  0.00  0.00    -0.080 A 
ATOM     24  C   LIG    1       -0.013   1.076   0.008  0.00  0.00    +0.090 A 
ATOM     25  C   LIG    1        1.176   1.782   0.000  0.00  0.00    -0.080 A 
ATOM     26  C   LIG    1        1.161   3.167   0.008  0.00  0.00    +0.150 A 
ATOM     27  F   LIG    1        2.324   3.855   0.002  0.00  0.00    -0.140 F 
ATOM     28  C   LIG    1       -0.044   3.847   0.024  0.00  0.00    -0.100 A 
ENDBRANCH  20  22
ENDBRANCH  19  20
ENDBRANCH   2  19
TORSDOF 4
