REMARK  Name = ZINCtV000002HFSv.0
REMARK                            x       y       z     vdW  Elec       q    Type
REMARK                         _______ _______ _______ _____ _____    ______ ____
ROOT
ATOM      1  C   LIG    1       -0.016   1.355   0.009  0.00  0.00    +0.140 A 
ATOM      2  C   LIG    1       -1.226   2.033   0.019  0.00  0.00    -0.080 A 
ATOM      3  C   LIG    1       -1.242   3.414   0.031  0.00  0.00    +0.070 A 
ATOM      4  C   LIG    1       -0.054   4.121   0.024  0.00  0.00    -0.150 A 
ATOM      5  C   LIG    1        1.153   3.447   0.009  0.00  0.00    +0.070 A 
ATOM      6  C   LIG    1        1.175   2.066   0.002  0.00  0.00    -0.020 A 
ENDROOT
BRANCH   1   7
ATOM      7  O   LIG    1        0.002  -0.004   0.002  0.00  0.00    -0.310 OA
BRANCH   7   8
ATOM      8  C   LIG    1       -1.262  -0.670   0.011  0.00  0.00    +0.240 C 
BRANCH   8  13
ATOM      9  C   LIG    1       -0.429  -6.388  -0.028  0.00  0.00    +0.090 C 
ATOM     10  C   LIG    1       -0.646  -4.897  -0.018  0.00  0.00    -0.070 A 
ATOM     11  C   LIG    1       -0.734  -4.220   1.184  0.00  0.00    +0.010 A 
ATOM     12  C   LIG    1       -0.933  -2.852   1.193  0.00  0.00    +0.030 A 
ATOM     13  C   LIG    1       -1.044  -2.161   0.000  0.00  0.00    -0.110 A 
ATOM     14  C   LIG    1       -0.962  -2.840  -1.201  0.00  0.00    +0.030 A 
ATOM     15  C   LIG    1       -0.757  -4.207  -1.210  0.00  0.00    +0.010 A 
ENDBRANCH   8  13
ENDBRANCH   7   8
ENDBRANCH   1   7
BRANCH   4  16
ATOM     16  C   LIG    1       -0.074   5.628   0.031  0.00  0.00    +0.310 C 
BRANCH  16  17
ATOM     17  N   LIG    1       -0.094   6.122  -1.348  0.00  0.00    -0.740 N 
ATOM     18  H   LIG    1       -0.093   5.496  -2.088  0.00  0.00    +0.400 HD
BRANCH  17  19
ATOM     19  C   LIG    1       -0.115   7.497  -1.596  0.00  0.00    +0.220 A 
ATOM     20  C   LIG    1       -0.123   8.394  -0.535  0.00  0.00    -0.080 A 
ATOM     21  C   LIG    1       -0.138   9.751  -0.778  0.00  0.00    +0.060 A 
ATOM     22  C   LIG    1       -0.157  10.223  -2.090  0.00  0.00    -0.080 A 
ATOM     23  C   LIG    1       -0.155   9.322  -3.152  0.00  0.00    +0.090 A 
ATOM     24  C   LIG    1       -0.134   7.965  -2.905  0.00  0.00    -0.080 A 
BRANCH  22  25
ATOM     25  C   LIG    1       -0.181  11.683  -2.354  0.00  0.00    +0.040 A 
ATOM     26  C   LIG    1       -0.191  12.667  -1.422  0.00  0.00    +0.140 A 
ATOM     27  O   LIG    1       -0.209  13.838  -2.088  0.00  0.00    -0.200 OA
ATOM     28  C   LIG    1       -0.219  13.567  -3.400  0.00  0.00    +0.190 A 
ATOM     29  C   LIG    1       -0.245  14.592  -4.504  0.00  0.00    +0.220 C 
ATOM     30  N   LIG    1       -0.202  12.277  -3.568  0.00  0.00    -0.480 NA
ENDBRANCH  22  25
ENDBRANCH  17  19
ENDBRANCH  16  17
ENDBRANCH   4  16
TORSDOF 7
