REMARK  Name = ZINCrg00000Lxdn4.0
REMARK                            x       y       z     vdW  Elec       q    Type
REMARK                         _______ _______ _______ _____ _____    ______ ____
ROOT
ATOM      1  C   LIG    1       -0.729   1.992   1.269  0.00  0.00    +0.140 C 
ATOM      2  C   LIG    1       -0.754   3.523   1.276  0.00  0.00    +0.050 C 
ATOM      3  C   LIG    1       -1.502   4.016   2.517  0.00  0.00    +0.030 C 
ATOM      4  C   LIG    1       -0.771   3.538   3.775  0.00  0.00    +0.250 C 
ATOM      5  N   LIG    1       -0.615   2.078   3.705  0.00  0.00    -0.620 N 
ATOM      6  C   LIG    1       -1.039   1.293   4.715  0.00  0.00    +0.710 C 
ATOM      7  N   LIG    1       -1.515   1.850   5.847  0.00  0.00    -0.750 N 
ATOM      8  H   LIG    1       -1.620   2.812   5.907  0.00  0.00    +0.400 HD
ATOM      9  O   LIG    1       -0.992   0.083   4.606  0.00  0.00    -0.580 OA
ATOM     10  C   LIG    1        0.011   1.491   2.513  0.00  0.00    +0.280 C 
ENDROOT
BRANCH   1  11
ATOM     11  O   LIG    1       -2.068   1.494   1.277  0.00  0.00    -0.550 OA
ATOM     12  H   LIG    1       -2.129   0.529   1.274  0.00  0.00    +0.390 HD
ENDBRANCH   1  11
BRANCH   1  13
ATOM     13  C   LIG    1       -0.009   1.500   0.012  0.00  0.00    +0.040 C 
BRANCH  13  16
ATOM     14  C   LIG    1        0.628  -2.132  -1.018  0.00  0.00    +0.290 C 
ATOM     15  N   LIG    1        0.604  -0.667  -1.012  0.00  0.00    -0.620 N 
ATOM     16  C   LIG    1        0.017  -0.007   0.006  0.00  0.00    +0.510 C 
ATOM     17  O   LIG    1       -0.492  -0.626   0.917  0.00  0.00    -0.530 OA
ATOM     18  C   LIG    1        1.218   0.081  -2.112  0.00  0.00    +0.280 C 
ENDBRANCH  13  16
ENDBRANCH   1  13
BRANCH   7  19
ATOM     19  C   LIG    1       -1.873   1.001   6.986  0.00  0.00    +0.370 C 
BRANCH  19  20
ATOM     20  C   LIG    1       -2.374   1.863   8.116  0.00  0.00    -0.180 A 
ATOM     21  C   LIG    1       -1.502   2.359   9.072  0.00  0.00    +0.360 A 
ATOM     22  N   LIG    1       -1.978   3.117  10.046  0.00  0.00    -0.480 NA
ATOM     23  C   LIG    1       -3.264   3.391  10.121  0.00  0.00    +0.240 A 
ATOM     24  N   LIG    1       -4.124   2.932   9.234  0.00  0.00    -0.470 NA
ATOM     25  C   LIG    1       -3.721   2.173   8.229  0.00  0.00    +0.370 A 
BRANCH  23  26
ATOM     26  C   LIG    1       -3.766   4.253  11.251  0.00  0.00    +0.550 C 
ATOM     27  F   LIG    1       -5.061   4.697  10.960  0.00  0.00    -0.150 F 
ATOM     28  F   LIG    1       -2.920   5.356  11.408  0.00  0.00    -0.160 F 
ATOM     29  F   LIG    1       -3.784   3.507  12.434  0.00  0.00    -0.160 F 
ENDBRANCH  23  26
ENDBRANCH  19  20
ENDBRANCH   7  19
TORSDOF 6
