REMARK  Name = ZINCqH00000027lX.0
REMARK                            x       y       z     vdW  Elec       q    Type
REMARK                         _______ _______ _______ _____ _____    ______ ____
ROOT
ATOM      1  N   LIG    1       -2.852   1.610   0.036  0.00  0.00    -0.520 NA
ATOM      2  C   LIG    1       -2.207   1.109  -1.184  0.00  0.00    +0.180 C 
ATOM      3  C   LIG    1       -0.756   1.594  -1.230  0.00  0.00    +0.050 C 
ATOM      4  C   LIG    1       -0.013   1.086   0.008  0.00  0.00    +0.100 C 
ATOM      5  C   LIG    1       -0.732   1.581   1.266  0.00  0.00    +0.060 C 
ATOM      6  C   LIG    1       -2.185   1.096   1.239  0.00  0.00    +0.180 C 
ENDROOT
BRANCH   4   7
ATOM      7  C   LIG    1        1.401   1.609  -0.003  0.00  0.00    +0.260 A 
ATOM      8  N   LIG    1        1.727   2.866  -0.005  0.00  0.00    -0.470 NA
ATOM      9  C   LIG    1        3.084   2.967  -0.011  0.00  0.00    +0.020 A 
ATOM     10  C   LIG    1        3.973   4.043  -0.015  0.00  0.00    +0.080 A 
ATOM     11  C   LIG    1        5.330   3.808  -0.029  0.00  0.00    +0.020 A 
ATOM     12  C   LIG    1        5.817   2.510  -0.041  0.00  0.00    +0.050 A 
ATOM     13  C   LIG    1        4.950   1.437  -0.038  0.00  0.00    +0.050 A 
ATOM     14  C   LIG    1        3.581   1.655  -0.023  0.00  0.00    +0.010 A 
ATOM     15  O   LIG    1        2.502   0.842  -0.017  0.00  0.00    -0.220 OA
ENDBRANCH   4   7
BRANCH   1  16
ATOM     16  C   LIG    1       -4.284   1.280   0.048  0.00  0.00    +0.210 C 
BRANCH  16  19
ATOM     17  N   LIG    1       -6.282   1.861   1.384  0.00  0.00    -0.730 N 
ATOM     18  H   LIG    1       -6.800   1.281   0.804  0.00  0.00    +0.400 HD
ATOM     19  C   LIG    1       -4.959   2.012   1.179  0.00  0.00    +0.510 C 
ATOM     20  O   LIG    1       -4.311   2.736   1.904  0.00  0.00    -0.520 OA
BRANCH  17  25
ATOM     21  C   LIG    1       -9.588  -0.797   3.082  0.00  0.00    +0.000 C 
ATOM     22  C   LIG    1       -8.934   0.574   3.265  0.00  0.00    -0.020 C 
ATOM     23  C   LIG    1       -9.077   1.384   1.976  0.00  0.00    +0.010 C 
ATOM     24  C   LIG    1       -8.423   2.755   2.159  0.00  0.00    +0.020 C 
ATOM     25  C   LIG    1       -6.939   2.572   2.484  0.00  0.00    +0.240 C 
ATOM     26  C   LIG    1       -6.795   1.761   3.773  0.00  0.00    +0.010 C 
ATOM     27  C   LIG    1       -7.450   0.391   3.590  0.00  0.00    +0.010 C 
ENDBRANCH  17  25
ENDBRANCH  16  19
ENDBRANCH   1  16
TORSDOF 4
