REMARK  Name = ZINCpk00000K7UQ6.0
REMARK                            x       y       z     vdW  Elec       q    Type
REMARK                         _______ _______ _______ _____ _____    ______ ____
ROOT
ATOM      1  C   LIG    1        0.084   1.260   2.520  0.00  0.00    +0.050 C 
ATOM      2  C   LIG    1       -0.736   1.551   1.261  0.00  0.00    +0.210 C 
ATOM      3  C   LIG    1       -0.003   1.003   0.033  0.00  0.00    +0.020 C 
ATOM      4  C   LIG    1       -0.755   1.419  -1.234  0.00  0.00    +0.050 C 
ATOM      5  C   LIG    1       -0.788   2.945  -1.332  0.00  0.00    -0.030 C 
ATOM      6  C   LIG    1       -1.531   3.515  -0.119  0.00  0.00    +0.290 C 
ATOM      7  N   LIG    1       -0.900   3.003   1.105  0.00  0.00    -0.610 N 
ATOM      8  C   LIG    1       -0.481   3.848   2.067  0.00  0.00    +0.520 C 
ATOM      9  O   LIG    1       -0.059   3.411   3.117  0.00  0.00    -0.510 OA
ENDROOT
BRANCH   5  10
ATOM     10  C   LIG    1       -1.500   3.353  -2.596  0.00  0.00    +0.520 C 
ATOM     11  O   LIG    1       -1.938   2.506  -3.345  0.00  0.00    -0.530 OA
ATOM     12  N   LIG    1       -1.650   4.659  -2.894  0.00  0.00    -0.860 N 
ATOM     13  H   LIG    1       -2.108   4.921  -3.708  0.00  0.00    +0.400 HD
ATOM     14  H   LIG    1       -1.299   5.336  -2.295  0.00  0.00    +0.400 HD
ENDBRANCH   5  10
BRANCH   8  15
ATOM     15  C   LIG    1       -0.536   5.337   1.839  0.00  0.00    +0.100 C 
BRANCH  15  16
ATOM     16  C   LIG    1       -0.014   6.052   3.058  0.00  0.00    -0.090 A 
ATOM     17  C   LIG    1       -0.883   6.414   4.071  0.00  0.00    +0.040 A 
ATOM     18  C   LIG    1       -0.406   7.065   5.192  0.00  0.00    -0.030 A 
ATOM     19  C   LIG    1        0.946   7.366   5.296  0.00  0.00    +0.170 A 
ATOM     20  C   LIG    1        1.815   7.006   4.274  0.00  0.00    +0.000 A 
ATOM     21  C   LIG    1        1.333   6.351   3.158  0.00  0.00    +0.050 A 
BRANCH  19  22
ATOM     22  N   LIG    1        1.431   8.031   6.427  0.00  0.00    -0.560 N 
ATOM     23  C   LIG    1        0.620   8.359   7.606  0.00  0.00    +0.260 C 
ATOM     24  C   LIG    1        1.637   8.667   8.730  0.00  0.00    +0.060 C 
ATOM     25  C   LIG    1        2.872   9.122   7.919  0.00  0.00    +0.070 C 
ATOM     26  C   LIG    1        2.698   8.456   6.572  0.00  0.00    +0.510 C 
ATOM     27  O   LIG    1        3.574   8.325   5.744  0.00  0.00    -0.510 OA
ENDBRANCH  19  22
ENDBRANCH  15  16
ENDBRANCH   8  15
TORSDOF 4
