REMARK  Name = ZINCrH000004rDWD.0
REMARK                            x       y       z     vdW  Elec       q    Type
REMARK                         _______ _______ _______ _____ _____    ______ ____
ROOT
ATOM      1  C   LIG    1       -1.274   3.387   6.976  0.00  0.00    +0.590 C 
ATOM      2  N   LIG    1       -2.418   3.753   7.587  0.00  0.00    -0.720 N 
ATOM      3  H   LIG    1       -3.256   3.739   7.096  0.00  0.00    +0.400 HD
ATOM      4  O   LIG    1       -0.224   3.404   7.590  0.00  0.00    -0.520 OA
ENDROOT
BRANCH   1  12
ATOM      5  C   LIG    1       -0.013   1.086   0.008  0.00  0.00    +0.100 C 
ATOM      6  C   LIG    1       -0.718   1.572   1.248  0.00  0.00    -0.110 A 
ATOM      7  C   LIG    1       -2.090   1.788   1.219  0.00  0.00    +0.050 A 
ATOM      8  C   LIG    1       -2.755   2.227   2.342  0.00  0.00    -0.010 A 
ATOM      9  C   LIG    1       -2.047   2.468   3.516  0.00  0.00    +0.110 A 
ATOM     10  N   LIG    1       -2.418   2.904   4.766  0.00  0.00    -0.580 N 
ATOM     11  H   LIG    1       -3.320   3.131   5.040  0.00  0.00    +0.420 HD
ATOM     12  C   LIG    1       -1.294   2.966   5.567  0.00  0.00    +0.010 A 
ATOM     13  C   LIG    1       -0.211   2.575   4.846  0.00  0.00    +0.060 A 
ATOM     14  C   LIG    1       -0.655   2.253   3.541  0.00  0.00    -0.120 A 
ATOM     15  C   LIG    1       -0.002   1.801   2.387  0.00  0.00    +0.070 A 
ENDBRANCH   1  12
BRANCH   2  16
ATOM     16  C   LIG    1       -2.398   4.172   8.990  0.00  0.00    +0.300 C 
BRANCH  16  17
ATOM     17  C   LIG    1       -3.817   4.532   9.435  0.00  0.00    +0.160 C 
ATOM     18  C   LIG    1       -3.796   4.976  10.900  0.00  0.00    +0.180 C 
ATOM     19  N   LIG    1       -5.148   5.393  11.300  0.00  0.00    -0.490 N 
ATOM     20  C   LIG    1       -5.627   6.491  10.448  0.00  0.00    +0.180 C 
ATOM     21  C   LIG    1       -5.630   6.033   8.987  0.00  0.00    +0.230 C 
ATOM     22  O   LIG    1       -4.315   5.601   8.626  0.00  0.00    -0.380 OA
BRANCH  19  23
ATOM     23  C   LIG    1       -5.182   5.755  12.649  0.00  0.00    +0.110 A 
ATOM     24  C   LIG    1       -4.029   5.677  13.420  0.00  0.00    -0.020 A 
ATOM     25  C   LIG    1       -4.064   6.042  14.751  0.00  0.00    +0.060 A 
ATOM     26  C   LIG    1       -5.249   6.472  15.321  0.00  0.00    -0.060 A 
ATOM     27  C   LIG    1       -6.401   6.545  14.557  0.00  0.00    +0.060 A 
ATOM     28 CL   LIG    1       -5.292   6.922  16.997  0.00  0.00    -0.070 Cl
ATOM     29  C   LIG    1       -6.370   6.188  13.224  0.00  0.00    +0.000 A 
ENDBRANCH  19  23
ENDBRANCH  16  17
ENDBRANCH   2  16
TORSDOF 4
