REMARK  Name = ZINCrD00000l3DO6.0
REMARK                            x       y       z     vdW  Elec       q    Type
REMARK                         _______ _______ _______ _____ _____    ______ ____
ROOT
ATOM      1  C   LIG    1        4.383   4.676  -1.266  0.00  0.00    +0.400 C 
ENDROOT
BRANCH   1   2
ATOM      2  C   LIG    1        4.996   5.261   0.008  0.00  0.00    -0.010 C 
ATOM      3  C   LIG    1        5.552   4.128   0.876  0.00  0.00    -0.010 C 
ATOM      4  C   LIG    1        6.090   4.714   2.184  0.00  0.00    +0.210 C 
ATOM      5  O   LIG    1        5.047   5.426   2.851  0.00  0.00    -0.380 OA
ATOM      6  C   LIG    1        4.522   6.527   2.106  0.00  0.00    +0.210 C 
ATOM      7  C   LIG    1        3.920   6.014   0.796  0.00  0.00    +0.030 C 
ENDBRANCH   1   2
BRANCH   1  11
ATOM      8  C   LIG    1        6.901   3.356  -3.459  0.00  0.00    +0.180 A 
ATOM      9  N   LIG    1        6.784   2.422  -2.563  0.00  0.00    -0.370 NA
ATOM     10  O   LIG    1        5.952   2.734  -1.738  0.00  0.00    +0.080 OA
ATOM     11  C   LIG    1        5.443   3.933  -2.038  0.00  0.00    +0.170 A 
ATOM     12  N   LIG    1        6.037   4.335  -3.135  0.00  0.00    -0.460 NA
BRANCH   8  14
ATOM     13  C   LIG    1        9.276   3.239  -4.161  0.00  0.00    +0.040 C 
ATOM     14  C   LIG    1        7.829   3.343  -4.646  0.00  0.00    +0.090 C 
ATOM     15  C   LIG    1        7.502   2.142  -5.536  0.00  0.00    +0.040 C 
ENDBRANCH   8  14
ENDBRANCH   1  11
BRANCH   1  16
ATOM     16  N   LIG    1        3.301   3.755  -0.909  0.00  0.00    -0.720 N 
ATOM     17  H   LIG    1        3.479   2.804  -0.836  0.00  0.00    +0.400 HD
ATOM     18  C   LIG    1        2.060   4.229  -0.684  0.00  0.00    +0.580 C 
ATOM     19  O   LIG    1        1.838   5.420  -0.776  0.00  0.00    -0.510 OA
BRANCH  18  20
ATOM     20  C   LIG    1        0.968   3.299  -0.324  0.00  0.00    -0.190 A 
ATOM     21  C   LIG    1        1.180   1.915  -0.334  0.00  0.00    +0.100 A 
ATOM     22  C   LIG    1        0.125   1.088   0.011  0.00  0.00    -0.050 A 
ATOM     23  C   LIG    1       -1.094   1.649   0.345  0.00  0.00    +0.300 A 
ATOM     24  N   LIG    1       -1.263   2.958   0.351  0.00  0.00    -0.480 NA
ATOM     25  C   LIG    1       -0.290   3.786   0.031  0.00  0.00    +0.230 A 
BRANCH  25  26
ATOM     26  C   LIG    1       -0.539   5.272   0.047  0.00  0.00    +0.020 C 
ATOM     27  C   LIG    1       -1.949   5.749   0.403  0.00  0.00    +0.040 C 
ATOM     28  C   LIG    1       -1.449   5.848  -1.039  0.00  0.00    +0.040 C 
ENDBRANCH  25  26
ENDBRANCH  18  20
ENDBRANCH   1  16
TORSDOF 6
