REMARK  Name = ZINCrD000000BTEA.0
REMARK                            x       y       z     vdW  Elec       q    Type
REMARK                         _______ _______ _______ _____ _____    ______ ____
ROOT
ATOM      1  C   LIG    1        1.450   3.604   0.034  0.00  0.00    +0.170 A 
ATOM      2  C   LIG    1        2.753   3.611  -0.381  0.00  0.00    -0.070 A 
ATOM      3  O   LIG    1        3.257   2.358  -0.309  0.00  0.00    -0.170 OA
ATOM      4  C   LIG    1        2.332   1.491   0.146  0.00  0.00    +0.080 A 
ATOM      5  C   LIG    1        2.354   0.123   0.393  0.00  0.00    +0.020 A 
ATOM      6  C   LIG    1        1.224  -0.507   0.870  0.00  0.00    +0.070 A 
ATOM      7  C   LIG    1        0.060   0.210   1.106  0.00  0.00    -0.020 A 
ATOM      8  C   LIG    1        0.016   1.556   0.871  0.00  0.00    +0.120 A 
ATOM      9  C   LIG    1        1.149   2.211   0.389  0.00  0.00    -0.140 A 
ENDROOT
BRANCH   2  10
ATOM     10  C   LIG    1        3.488   4.791  -0.833  0.00  0.00    +0.610 C 
ATOM     11  N   LIG    1        4.811   4.708  -1.077  0.00  0.00    -0.600 N 
ATOM     12  C   LIG    1        5.564   3.482  -0.767  0.00  0.00    +0.250 C 
ATOM     13  C   LIG    1        6.370   3.086  -2.014  0.00  0.00    +0.220 C 
ATOM     14  O   LIG    1        7.139   4.209  -2.451  0.00  0.00    -0.380 OA
ATOM     15  C   LIG    1        6.355   5.334  -2.856  0.00  0.00    +0.220 C 
ATOM     16  C   LIG    1        5.547   5.843  -1.657  0.00  0.00    +0.270 C 
ATOM     17  O   LIG    1        2.905   5.848  -0.989  0.00  0.00    -0.520 OA
ENDBRANCH   2  10
BRANCH   1  20
ATOM     18  O   LIG    1       -1.179   3.404  -0.280  0.00  0.00    -0.500 OA
ATOM     19  C   LIG    1       -0.731   4.520  -0.108  0.00  0.00    +0.570 C 
ATOM     20  N   LIG    1        0.589   4.691   0.106  0.00  0.00    -0.630 N 
ATOM     21  H   LIG    1        0.937   5.573   0.311  0.00  0.00    +0.420 HD
BRANCH  19  22
ATOM     22  C   LIG    1       -1.633   5.691  -0.134  0.00  0.00    -0.190 A 
ATOM     23  C   LIG    1       -1.131   6.978   0.068  0.00  0.00    +0.330 A 
ATOM     24  N   LIG    1       -1.933   8.022   0.039  0.00  0.00    -0.470 NA
ATOM     25  C   LIG    1       -3.230   7.899  -0.167  0.00  0.00    +0.340 A 
ATOM     26  C   LIG    1       -3.807   6.656  -0.370  0.00  0.00    -0.160 A 
ATOM     27 BR   LIG    1       -5.668   6.503  -0.663  0.00  0.00    -0.010 Br
ATOM     28  C   LIG    1       -3.006   5.527  -0.355  0.00  0.00    +0.180 A 
ENDBRANCH  19  22
ENDBRANCH   1  20
TORSDOF 3
