REMARK  Name = ZINCrm000000Gjed.1
REMARK                            x       y       z     vdW  Elec       q    Type
REMARK                         _______ _______ _______ _____ _____    ______ ____
ROOT
ATOM      1  C   LIG    1       -1.097   2.065  -1.006  0.00  0.00    +0.520 C 
ATOM      2  N   LIG    1       -1.018   3.380  -1.288  0.00  0.00    -0.700 N 
ATOM      3  H   LIG    1       -0.160   3.781  -1.497  0.00  0.00    +0.420 HD
ATOM      4  O   LIG    1       -2.171   1.564  -0.744  0.00  0.00    -0.500 OA
ENDROOT
BRANCH   1   9
ATOM      5  C   LIG    1        0.736  -2.181   0.228  0.00  0.00    +0.160 C 
ATOM      6  C   LIG    1       -0.771  -2.289  -0.123  0.00  0.00    +0.070 C 
ATOM      7  C   LIG    1       -1.169  -0.822  -0.387  0.00  0.00    +0.310 C 
ATOM      8  N   LIG    1        0.059  -0.092  -0.731  0.00  0.00    -0.590 N 
ATOM      9  C   LIG    1        0.138   1.224  -1.014  0.00  0.00    +0.530 C 
ATOM     10  O   LIG    1        1.211   1.724  -1.281  0.00  0.00    -0.500 OA
ATOM     11  C   LIG    1        1.192  -1.035  -0.710  0.00  0.00    +0.310 C 
BRANCH   5  12
ATOM     12  N   LIG    1        1.442  -3.430  -0.085  0.00  0.00    -0.380 N 
ATOM     13  H   LIG    1        1.266  -3.684  -1.046  0.00  0.00    +0.420 HD
BRANCH  12  15
ATOM     14  C   LIG    1        3.156  -2.911   1.584  0.00  0.00    +0.090 C 
ATOM     15  C   LIG    1        2.885  -3.242   0.115  0.00  0.00    +0.250 C 
ENDBRANCH  12  15
BRANCH  12  16
ATOM     16  C   LIG    1        0.960  -4.500   0.799  0.00  0.00    +0.240 C 
ATOM     17  C   LIG    1        1.610  -5.825   0.397  0.00  0.00    +0.080 C 
ENDBRANCH  12  16
ENDBRANCH   5  12
ENDBRANCH   1   9
BRANCH   2  18
ATOM     18  C   LIG    1       -2.229   4.205  -1.280  0.00  0.00    +0.310 C 
BRANCH  18  19
ATOM     19  C   LIG    1       -1.865   5.649  -1.631  0.00  0.00    -0.010 C 
ATOM     20  C   LIG    1       -0.970   6.232  -0.534  0.00  0.00    +0.040 C 
ATOM     21  C   LIG    1       -0.676   7.700  -0.855  0.00  0.00    +0.070 C 
ATOM     22  C   LIG    1       -1.997   8.461  -0.992  0.00  0.00    +0.260 C 
ATOM     23  N   LIG    1       -2.795   7.872  -2.074  0.00  0.00    -0.380 N 
ATOM     24  H   LIG    1       -2.261   7.887  -2.931  0.00  0.00    +0.420 HD
ATOM     25  C   LIG    1       -3.141   6.486  -1.740  0.00  0.00    +0.270 C 
BRANCH  23  26
ATOM     26  C   LIG    1       -4.027   8.653  -2.252  0.00  0.00    +0.160 C 
ATOM     27  C   LIG    1       -4.843   8.088  -3.433  0.00  0.00    +0.050 C 
ATOM     28  C   LIG    1       -5.447   9.343  -4.111  0.00  0.00    +0.040 C 
ATOM     29  C   LIG    1       -4.300  10.378  -4.000  0.00  0.00    +0.040 C 
ATOM     30  C   LIG    1       -3.681  10.108  -2.612  0.00  0.00    +0.050 C 
ENDBRANCH  23  26
ENDBRANCH  18  19
ENDBRANCH   2  18
TORSDOF 7
