REMARK  Name = ZINCrm000000Gjed.0
REMARK                            x       y       z     vdW  Elec       q    Type
REMARK                         _______ _______ _______ _____ _____    ______ ____
ROOT
ATOM      1  C   LIG    1       -3.954   7.304  -0.745  0.00  0.00    +0.520 C 
ATOM      2  N   LIG    1       -4.573   8.042  -1.688  0.00  0.00    -0.700 N 
ATOM      3  H   LIG    1       -4.709   7.679  -2.577  0.00  0.00    +0.420 HD
ATOM      4  O   LIG    1       -3.783   7.759   0.367  0.00  0.00    -0.500 OA
ENDROOT
BRANCH   1   9
ATOM      5  C   LIG    1       -1.231   3.668   0.760  0.00  0.00    +0.160 C 
ATOM      6  C   LIG    1       -1.839   4.457   1.950  0.00  0.00    +0.070 C 
ATOM      7  C   LIG    1       -2.587   5.613   1.253  0.00  0.00    +0.310 C 
ATOM      8  N   LIG    1       -2.858   5.187  -0.128  0.00  0.00    -0.590 N 
ATOM      9  C   LIG    1       -3.477   5.925  -1.070  0.00  0.00    +0.530 C 
ATOM     10  O   LIG    1       -3.648   5.471  -2.182  0.00  0.00    -0.500 OA
ATOM     11  C   LIG    1       -2.340   3.819  -0.311  0.00  0.00    +0.310 C 
BRANCH   5  12
ATOM     12  N   LIG    1       -1.029   2.256   1.113  0.00  0.00    -0.380 N 
ATOM     13  H   LIG    1       -1.915   1.840   1.358  0.00  0.00    +0.420 HD
BRANCH  12  15
ATOM     14  C   LIG    1        0.939   2.101  -0.337  0.00  0.00    +0.090 C 
ATOM     15  C   LIG    1       -0.453   1.543  -0.035  0.00  0.00    +0.250 C 
ENDBRANCH  12  15
BRANCH  12  16
ATOM     16  C   LIG    1       -0.111   2.164   2.257  0.00  0.00    +0.240 C 
ATOM     17  C   LIG    1        0.009   0.704   2.697  0.00  0.00    +0.080 C 
ENDBRANCH  12  16
ENDBRANCH   5  12
ENDBRANCH   1   9
BRANCH   2  18
ATOM     18  C   LIG    1       -5.040   9.394  -1.369  0.00  0.00    +0.270 C 
BRANCH  18  19
ATOM     19  C   LIG    1       -5.702  10.009  -2.604  0.00  0.00    +0.000 C 
ATOM     20  C   LIG    1       -4.657  10.191  -3.708  0.00  0.00    +0.040 C 
ATOM     21  C   LIG    1       -3.590  11.179  -3.228  0.00  0.00    +0.060 C 
ATOM     22  C   LIG    1       -4.261  12.499  -2.841  0.00  0.00    +0.250 C 
ATOM     23  N   LIG    1       -5.230  12.262  -1.765  0.00  0.00    -0.380 N 
ATOM     24  H   LIG    1       -4.762  11.833  -0.981  0.00  0.00    +0.420 HD
ATOM     25  C   LIG    1       -6.296  11.371  -2.241  0.00  0.00    +0.280 C 
BRANCH  23  26
ATOM     26  C   LIG    1       -5.815  13.542  -1.344  0.00  0.00    +0.160 C 
ATOM     27  C   LIG    1       -4.718  14.460  -0.766  0.00  0.00    +0.040 C 
ATOM     28  C   LIG    1       -5.417  15.196   0.404  0.00  0.00    +0.050 C 
ATOM     29  C   LIG    1       -6.321  14.095   1.010  0.00  0.00    +0.040 C 
ATOM     30  C   LIG    1       -6.834  13.310  -0.214  0.00  0.00    +0.040 C 
ENDBRANCH  23  26
ENDBRANCH  18  19
ENDBRANCH   2  18
TORSDOF 7
