REMARK  Name = ZINCpk00000KfKSH.0
REMARK                            x       y       z     vdW  Elec       q    Type
REMARK                         _______ _______ _______ _____ _____    ______ ____
ROOT
ATOM      1  N   LIG    1       -0.015   1.278   0.009  0.00  0.00    -0.340 N 
ATOM      2  N   LIG    1        0.002  -0.004   0.002  0.00  0.00    -0.220 NA
ATOM      3  C   LIG    1        1.113  -0.696  -0.014  0.00  0.00    +0.070 A 
ATOM      4  C   LIG    1        1.033  -2.202  -0.010  0.00  0.00    +0.150 C 
ATOM      5  C   LIG    1        2.371  -2.793  -0.452  0.00  0.00    +0.200 C 
ATOM      6  N   LIG    1        3.446  -2.182   0.345  0.00  0.00    -0.530 NA
ATOM      7  C   LIG    1        3.651  -0.787  -0.059  0.00  0.00    +0.260 C 
ATOM      8  C   LIG    1        2.348  -0.038  -0.029  0.00  0.00    -0.020 A 
ATOM      9  C   LIG    1        2.362   1.329  -0.019  0.00  0.00    -0.040 A 
ATOM     10  C   LIG    1        1.121   2.001   0.002  0.00  0.00    +0.480 A 
ATOM     11  O   LIG    1        1.078   3.221   0.014  0.00  0.00    -0.530 OA
ENDROOT
BRANCH   1  13
ATOM     12  C   LIG    1       -1.760   2.224  -1.420  0.00  0.00    +0.030 C 
ATOM     13  C   LIG    1       -1.304   1.974   0.019  0.00  0.00    +0.320 C 
ENDBRANCH   1  13
BRANCH   6  14
ATOM     14  C   LIG    1        4.691  -2.953   0.230  0.00  0.00    +0.310 C 
BRANCH  14  15
ATOM     15  C   LIG    1        5.697  -2.435   1.226  0.00  0.00    +0.010 A 
ATOM     16  N   LIG    1        6.518  -1.421   1.068  0.00  0.00    -0.280 NA
ATOM     17  N   LIG    1        7.219  -1.288   2.138  0.00  0.00    -0.100 N 
ATOM     18  N   LIG    1        6.897  -2.178   3.009  0.00  0.00    -0.290 NA
ATOM     19  C   LIG    1        5.942  -2.930   2.509  0.00  0.00    +0.200 A 
BRANCH  17  20
ATOM     20  C   LIG    1        8.202  -0.306   2.328  0.00  0.00    +0.140 A 
ATOM     21  C   LIG    1        8.479   0.606   1.319  0.00  0.00    +0.040 A 
ATOM     22  C   LIG    1        9.444   1.575   1.512  0.00  0.00    +0.040 A 
ATOM     23  C   LIG    1       10.142   1.630   2.704  0.00  0.00    +0.020 A 
ATOM     24  C   LIG    1        9.872   0.719   3.709  0.00  0.00    +0.040 A 
ATOM     25  C   LIG    1        8.905  -0.249   3.525  0.00  0.00    +0.040 A 
ENDBRANCH  17  20
ENDBRANCH  14  15
ENDBRANCH   6  14
TORSDOF 4
