REMARK  Name = ZINCrD0000074E8M.0
REMARK                            x       y       z     vdW  Elec       q    Type
REMARK                         _______ _______ _______ _____ _____    ______ ____
ROOT
ATOM      1  N   LIG    1        0.061  -2.853  -0.015  0.00  0.00    -0.720 N 
ATOM      2  H   LIG    1       -0.781  -2.372  -0.004  0.00  0.00    +0.400 HD
ATOM      3  C   LIG    1        1.226  -2.173  -0.022  0.00  0.00    +0.570 C 
ATOM      4  O   LIG    1        2.281  -2.776  -0.036  0.00  0.00    -0.530 OA
ENDROOT
BRANCH   3   5
ATOM      5  C   LIG    1        1.219  -0.697  -0.014  0.00  0.00    -0.140 A 
ATOM      6  C   LIG    1        0.002  -0.004   0.002  0.00  0.00    +0.050 A 
ATOM      7  C   LIG    1       -0.016   1.362   0.009  0.00  0.00    +0.020 A 
ATOM      8  C   LIG    1        1.175   2.076   0.002  0.00  0.00    +0.060 A 
ATOM      9  N   LIG    1        1.480   3.424   0.008  0.00  0.00    -0.620 N 
ATOM     10  H   LIG    1        0.845   4.157   0.018  0.00  0.00    +0.420 HD
ATOM     11  C   LIG    1        2.841   3.533  -0.005  0.00  0.00    +0.550 A 
ATOM     12  N   LIG    1        3.384   2.341  -0.018  0.00  0.00    -0.540 NA
ATOM     13  C   LIG    1        2.406   1.396  -0.014  0.00  0.00    +0.070 A 
ATOM     14  C   LIG    1        2.423   0.003  -0.022  0.00  0.00    +0.130 A 
BRANCH  11  15
ATOM     15  N   LIG    1        3.541   4.721  -0.004  0.00  0.00    -0.830 N 
ATOM     16  H   LIG    1        3.062   5.565   0.006  0.00  0.00    +0.410 HD
ATOM     17  H   LIG    1        4.511   4.713  -0.014  0.00  0.00    +0.430 HD
ENDBRANCH  11  15
ENDBRANCH   3   5
BRANCH   1  18
ATOM     18  C   LIG    1        0.068  -4.318  -0.023  0.00  0.00    +0.330 C 
BRANCH  18  23
ATOM     19  C   LIG    1       -5.374  -6.272   0.024  0.00  0.00    +0.100 C 
ATOM     20  C   LIG    1       -3.955  -5.762   0.009  0.00  0.00    -0.030 A 
ATOM     21  C   LIG    1       -3.220  -5.730   1.179  0.00  0.00    -0.020 A 
ATOM     22  C   LIG    1       -1.917  -5.267   1.167  0.00  0.00    +0.090 A 
ATOM     23  C   LIG    1       -1.350  -4.827  -0.012  0.00  0.00    -0.140 A 
ATOM     24  C   LIG    1       -2.086  -4.858  -1.188  0.00  0.00    +0.150 A 
ATOM     25  C   LIG    1       -3.391  -5.327  -1.175  0.00  0.00    -0.080 A 
BRANCH  24  26
ATOM     26  O   LIG    1       -1.528  -4.430  -2.352  0.00  0.00    -0.290 OA
BRANCH  26  27
ATOM     27  C   LIG    1       -2.344  -4.491  -3.523  0.00  0.00    +0.230 C 
BRANCH  27  28
ATOM     28  C   LIG    1       -1.552  -3.971  -4.724  0.00  0.00    +0.460 C 
ATOM     29  F   LIG    1       -1.168  -2.646  -4.492  0.00  0.00    -0.170 F 
ATOM     30  F   LIG    1       -2.350  -4.031  -5.871  0.00  0.00    -0.170 F 
ATOM     31  F   LIG    1       -0.412  -4.762  -4.908  0.00  0.00    -0.170 F 
ENDBRANCH  27  28
ENDBRANCH  26  27
ENDBRANCH  24  26
ENDBRANCH  18  23
ENDBRANCH   1  18
TORSDOF 7
