REMARK  Name = ZINCrH00000ak0fB.0
REMARK                            x       y       z     vdW  Elec       q    Type
REMARK                         _______ _______ _______ _____ _____    ______ ____
ROOT
ATOM      1  N   LIG    1       -4.339   5.371  -0.030  0.00  0.00    -0.360 N 
ATOM      2  N   LIG    1       -4.307   6.763  -0.213  0.00  0.00    -0.270 NA
ATOM      3  C   LIG    1       -3.067   7.150  -0.014  0.00  0.00    +0.290 A 
ATOM      4  N   LIG    1       -2.318   6.082   0.289  0.00  0.00    -0.510 NA
ATOM      5  C   LIG    1       -3.069   4.998   0.287  0.00  0.00    +0.370 A 
ENDROOT
BRANCH   5   6
ATOM      6  C   LIG    1       -2.613   3.626   0.572  0.00  0.00    -0.220 A 
ATOM      7  C   LIG    1       -1.543   2.951  -0.034  0.00  0.00    +0.100 A 
ATOM      8  N   LIG    1       -0.635   3.282  -1.001  0.00  0.00    -0.480 N 
ATOM      9  H   LIG    1       -0.668   4.160  -1.412  0.00  0.00    +0.430 HD
ATOM     10  C   LIG    1        0.303   2.401  -1.387  0.00  0.00    +0.320 A 
ATOM     11  C   LIG    1        0.381   1.159  -0.834  0.00  0.00    -0.050 A 
ATOM     12  C   LIG    1       -0.514   0.768   0.153  0.00  0.00    +0.190 A 
ATOM     13  C   LIG    1       -1.501   1.667   0.566  0.00  0.00    +0.020 A 
ATOM     14  N   LIG    1       -2.489   1.604   1.476  0.00  0.00    -0.500 NA
ATOM     15  C   LIG    1       -3.163   2.733   1.504  0.00  0.00    +0.310 A 
ENDBRANCH   5   6
BRANCH   3  16
ATOM     16  C   LIG    1       -2.575   8.547  -0.108  0.00  0.00    +0.310 A 
ATOM     17  N   LIG    1       -3.306   9.598  -0.410  0.00  0.00    -0.270 NA
ATOM     18  N   LIG    1       -2.447  10.708  -0.384  0.00  0.00    -0.480 N 
ATOM     19  H   LIG    1       -2.686  11.631  -0.561  0.00  0.00    +0.450 HD
ATOM     20  C   LIG    1       -1.226  10.240  -0.069  0.00  0.00    +0.500 A 
ATOM     21  N   LIG    1       -1.313   8.946   0.094  0.00  0.00    -0.510 NA
ENDBRANCH   3  16
BRANCH   1  23
ATOM     22  C   LIG    1       -6.500   4.810   0.966  0.00  0.00    +0.040 C 
ATOM     23  C   LIG    1       -5.507   4.496  -0.154  0.00  0.00    +0.270 C 
BRANCH  23  24
ATOM     24  C   LIG    1       -6.176   4.727  -1.510  0.00  0.00    +0.000 C 
ATOM     25  C   LIG    1       -7.396   3.813  -1.639  0.00  0.00    +0.030 C 
ATOM     26  C   LIG    1       -8.066   4.045  -2.995  0.00  0.00    +0.010 C 
ATOM     27  C   LIG    1       -7.072   3.731  -4.115  0.00  0.00    +0.000 C 
ATOM     28  C   LIG    1       -5.853   4.645  -3.986  0.00  0.00    +0.000 C 
ATOM     29  C   LIG    1       -5.183   4.413  -2.630  0.00  0.00    +0.000 C 
ENDBRANCH  23  24
ENDBRANCH   1  23
TORSDOF 4
