REMARK  Name = ZINCrH000004slBH.0
REMARK                            x       y       z     vdW  Elec       q    Type
REMARK                         _______ _______ _______ _____ _____    ______ ____
ROOT
ATOM      1  C   LIG    1       -0.134   1.874   2.698  0.00  0.00    +0.100 A 
ATOM      2  N   LIG    1        1.052   1.512   3.105  0.00  0.00    -0.470 NA
ATOM      3  C   LIG    1        2.045   2.319   2.847  0.00  0.00    +0.160 A 
ATOM      4  C   LIG    1        1.682   3.454   2.171  0.00  0.00    -0.340 A 
ATOM      5  C   LIG    1        3.466   2.029   3.258  0.00  0.00    +0.160 C 
ATOM      6  S   LIG    1       -0.057   3.383   1.899  0.00  0.00    +0.260 S 
ENDROOT
BRANCH   1  12
ATOM      7  C   LIG    1       -2.587  -2.143   4.423  0.00  0.00    +0.170 C 
ATOM      8  C   LIG    1       -2.566  -0.814   3.712  0.00  0.00    +0.060 A 
ATOM      9  N   LIG    1       -3.679  -0.319   3.247  0.00  0.00    -0.210 NA
ATOM     10  N   LIG    1       -3.755   0.802   2.630  0.00  0.00    -0.340 N 
ATOM     11  C   LIG    1       -2.668   1.570   2.416  0.00  0.00    +0.490 A 
ATOM     12  C   LIG    1       -1.367   1.091   2.899  0.00  0.00    -0.130 A 
ATOM     13  O   LIG    1       -2.763   2.636   1.832  0.00  0.00    -0.510 OA
ATOM     14  C   LIG    1       -5.060   1.263   2.149  0.00  0.00    +0.360 C 
ATOM     15  C   LIG    1       -1.352  -0.134   3.562  0.00  0.00    +0.030 A 
ATOM     16  C   LIG    1       -0.068  -0.710   4.101  0.00  0.00    +0.150 C 
ENDBRANCH   1  12
BRANCH   4  17
ATOM     17  C   LIG    1        2.579   4.533   1.750  0.00  0.00    +0.600 C 
ATOM     18  N   LIG    1        2.087   5.599   1.089  0.00  0.00    -0.720 N 
ATOM     19  H   LIG    1        1.139   5.652   0.892  0.00  0.00    +0.400 HD
ATOM     20  O   LIG    1        3.769   4.467   1.998  0.00  0.00    -0.520 OA
BRANCH  18  21
ATOM     21  C   LIG    1        2.984   6.678   0.668  0.00  0.00    +0.180 C 
ATOM     22  C   LIG    1        3.997   6.134  -0.341  0.00  0.00    +0.030 C 
ATOM     23  C   LIG    1        3.724   7.231   1.887  0.00  0.00    +0.020 C 
BRANCH  21  24
ATOM     24  C   LIG    1        2.167   7.796   0.018  0.00  0.00    +0.030 C 
BRANCH  24  25
ATOM     25  C   LIG    1        1.581   7.297  -1.305  0.00  0.00    -0.070 C 
ATOM     26  C   LIG    1        2.711   7.084  -2.314  0.00  0.00    +0.030 C 
ATOM     27  C   LIG    1        0.598   8.334  -1.851  0.00  0.00    +0.030 C 
ATOM     28  C   LIG    1        0.849   5.974  -1.071  0.00  0.00    +0.020 C 
ENDBRANCH  24  25
ENDBRANCH  21  24
ENDBRANCH  18  21
ENDBRANCH   4  17
TORSDOF 5
