REMARK  Name = ZINCrD000000fnhf.0
REMARK                            x       y       z     vdW  Elec       q    Type
REMARK                         _______ _______ _______ _____ _____    ______ ____
ROOT
ATOM      1  N   LIG    1       -0.010  -2.303   0.823  0.00  0.00    -0.570 N 
ATOM      2  C   LIG    1        0.992  -2.136  -0.058  0.00  0.00    +0.570 C 
ATOM      3  C   LIG    1        1.240  -0.685  -0.220  0.00  0.00    -0.110 A 
ATOM      4  C   LIG    1        2.128   0.062  -0.976  0.00  0.00    +0.100 A 
ATOM      5  C   LIG    1        2.106   1.445  -0.900  0.00  0.00    +0.080 A 
ATOM      6  C   LIG    1        1.194   2.089  -0.065  0.00  0.00    -0.110 A 
ATOM      7  C   LIG    1        0.294   1.342   0.702  0.00  0.00    +0.160 A 
ATOM      8  C   LIG    1        0.315  -0.040   0.626  0.00  0.00    -0.140 A 
ATOM      9  O   LIG    1        1.592  -3.026  -0.626  0.00  0.00    -0.450 OA
ATOM     10  C   LIG    1       -0.463  -1.118   1.272  0.00  0.00    +0.580 C 
ATOM     11  O   LIG    1       -1.361  -0.961   2.075  0.00  0.00    -0.450 OA
ENDROOT
BRANCH   6  12
ATOM     12  C   LIG    1        1.177   3.567   0.010  0.00  0.00    +0.560 C 
ATOM     13  N   LIG    1        2.335   4.250   0.104  0.00  0.00    -0.540 N 
ATOM     14  C   LIG    1        3.623   3.542   0.096  0.00  0.00    +0.280 C 
ATOM     15  C   LIG    1        4.500   4.141   1.197  0.00  0.00    +0.020 C 
ATOM     16  C   LIG    1        4.769   5.610   0.874  0.00  0.00    +0.080 C 
ATOM     17  C   LIG    1        3.478   6.332   0.588  0.00  0.00    -0.110 A 
ATOM     18  C   LIG    1        3.444   7.712   0.696  0.00  0.00    +0.030 A 
ATOM     19  C   LIG    1        2.276   8.403   0.436  0.00  0.00    -0.100 A 
ATOM     20  C   LIG    1        1.133   7.720   0.064  0.00  0.00    +0.030 A 
ATOM     21  C   LIG    1        1.158   6.343  -0.045  0.00  0.00    +0.020 A 
ATOM     22  C   LIG    1        2.249   9.905   0.556  0.00  0.00    +0.100 C 
ATOM     23  C   LIG    1        2.331   5.646   0.218  0.00  0.00    +0.140 A 
ATOM     24  O   LIG    1        0.119   4.165  -0.013  0.00  0.00    -0.500 OA
ENDBRANCH   6  12
BRANCH   1  25
ATOM     25  C   LIG    1       -0.539  -3.604   1.240  0.00  0.00    +0.350 C 
BRANCH  25  27
ATOM     26  C   LIG    1       -1.620  -5.160  -0.299  0.00  0.00    +0.060 C 
ATOM     27  C   LIG    1       -1.663  -4.007   0.321  0.00  0.00    -0.070 C 
ENDBRANCH  25  27
ENDBRANCH   1  25
TORSDOF 3
