REMARK  Name = ZINCrD000000fD6s.1
REMARK                            x       y       z     vdW  Elec       q    Type
REMARK                         _______ _______ _______ _____ _____    ______ ____
ROOT
ATOM      1  S   LIG    1       -2.538   5.016  -0.065  0.00  0.00    +2.690 S 
ATOM      2  O   LIG    1       -1.888   6.204   0.367  0.00  0.00    -0.940 OA
ATOM      3  O   LIG    1       -3.563   4.376   0.681  0.00  0.00    -0.950 OA
ENDROOT
BRANCH   1  10
ATOM      4  C   LIG    1        3.681  -0.367  -1.355  0.00  0.00    +0.120 C 
ATOM      5  C   LIG    1        2.895   0.890  -1.085  0.00  0.00    +0.520 C 
ATOM      6  N   LIG    1        1.572   0.817  -0.837  0.00  0.00    -0.560 N 
ATOM      7  C   LIG    1        0.724   1.917  -0.678  0.00  0.00    +0.210 A 
ATOM      8  C   LIG    1        1.022   3.280  -0.735  0.00  0.00    +0.000 A 
ATOM      9  C   LIG    1        0.029   4.217  -0.547  0.00  0.00    +0.160 A 
ATOM     10  C   LIG    1       -1.271   3.815  -0.303  0.00  0.00    -0.700 A 
ATOM     11  C   LIG    1       -1.574   2.467  -0.242  0.00  0.00    +0.170 A 
ATOM     12  C   LIG    1       -0.582   1.524  -0.433  0.00  0.00    -0.160 A 
ATOM     13  C   LIG    1       -0.636   0.013  -0.422  0.00  0.00    +0.120 C 
ATOM     14  C   LIG    1        0.812  -0.428  -0.694  0.00  0.00    +0.220 C 
ATOM     15  C   LIG    1        1.347  -1.244   0.484  0.00  0.00    +0.050 C 
ATOM     16  O   LIG    1        3.452   1.967  -1.090  0.00  0.00    -0.510 OA
ENDBRANCH   1  10
BRANCH   1  17
ATOM     17  N   LIG    1       -3.182   5.351  -1.553  0.00  0.00    -1.040 N 
ATOM     18  H   LIG    1       -3.151   6.255  -1.903  0.00  0.00    +0.430 HD
BRANCH  17  19
ATOM     19  C   LIG    1       -3.770   4.333  -2.303  0.00  0.00    +0.190 A 
ATOM     20  C   LIG    1       -4.475   3.328  -1.678  0.00  0.00    +0.000 A 
ATOM     21  C   LIG    1       -5.070   2.309  -2.415  0.00  0.00    +0.060 A 
ATOM     22  C   LIG    1       -4.965   2.272  -3.772  0.00  0.00    +0.020 A 
ATOM     23  C   LIG    1       -4.250   3.275  -4.447  0.00  0.00    -0.080 A 
ATOM     24  C   LIG    1       -4.121   3.265  -5.848  0.00  0.00    +0.080 A 
ATOM     25  C   LIG    1       -3.411   4.272  -6.438  0.00  0.00    -0.030 A 
ATOM     26  C   LIG    1       -2.839   5.270  -5.654  0.00  0.00    +0.290 A 
ATOM     27  N   LIG    1       -2.961   5.276  -4.348  0.00  0.00    -0.470 NA
ATOM     28  C   LIG    1       -3.642   4.321  -3.710  0.00  0.00    +0.110 A 
ENDBRANCH  17  19
ENDBRANCH   1  17
TORSDOF 3
