REMARK  Name = ZINCqH0000007irp.0
REMARK                            x       y       z     vdW  Elec       q    Type
REMARK                         _______ _______ _______ _____ _____    ______ ____
ROOT
ATOM      1  C   LIG    1       -0.009   1.091   0.008  0.00  0.00    +0.060 C 
ENDROOT
BRANCH   1   4
ATOM      2  N   LIG    1       -0.288   1.272  -2.443  0.00  0.00    -0.670 N 
ATOM      3  H   LIG    1        0.546   0.789  -2.544  0.00  0.00    +0.410 HD
ATOM      4  C   LIG    1       -0.743   1.583  -1.213  0.00  0.00    +0.520 C 
ATOM      5  O   LIG    1       -1.742   2.260  -1.088  0.00  0.00    -0.520 OA
BRANCH   2   9
ATOM      6  C   LIG    1       -2.473   2.389  -5.816  0.00  0.00    +0.130 A 
ATOM      7  C   LIG    1       -2.446   3.215  -4.702  0.00  0.00    -0.040 A 
ATOM      8  C   LIG    1       -1.723   2.845  -3.585  0.00  0.00    +0.080 A 
ATOM      9  C   LIG    1       -1.022   1.647  -3.576  0.00  0.00    +0.110 A 
ATOM     10  C   LIG    1       -1.045   0.822  -4.693  0.00  0.00    +0.040 A 
ATOM     11  C   LIG    1       -1.773   1.190  -5.808  0.00  0.00    -0.050 A 
ATOM     12 CL   LIG    1       -1.807   0.156  -7.203  0.00  0.00    -0.050 Cl
BRANCH   6  14
ATOM     13  C   LIG    1       -3.881   4.000  -6.854  0.00  0.00    +0.240 C 
ATOM     14  O   LIG    1       -3.185   2.754  -6.915  0.00  0.00    -0.300 OA
ENDBRANCH   6  14
ENDBRANCH   2   9
ENDBRANCH   1   4
BRANCH   1  15
ATOM     15  C   LIG    1       -0.727   1.581   1.267  0.00  0.00    +0.330 C 
BRANCH  15  16
ATOM     16  N   LIG    1       -0.014   1.103   2.454  0.00  0.00    -0.540 N 
ATOM     17  C   LIG    1       -0.348  -0.091   3.007  0.00  0.00    +0.590 A 
ATOM     18  N   LIG    1        0.261  -0.556   4.056  0.00  0.00    -0.500 NA
ATOM     19  C   LIG    1        1.255   0.129   4.661  0.00  0.00    +0.070 A 
ATOM     20  C   LIG    1        1.648   1.363   4.151  0.00  0.00    -0.220 A 
ATOM     21  C   LIG    1        2.723   1.956   4.921  0.00  0.00    -0.040 A 
ATOM     22  C   LIG    1        3.132   1.234   5.949  0.00  0.00    -0.200 A 
ATOM     23  C   LIG    1        4.234   1.644   6.891  0.00  0.00    +0.150 C 
ATOM     24  C   LIG    1        3.329   3.291   4.575  0.00  0.00    +0.120 C 
ATOM     25  S   LIG    1        2.226  -0.262   6.075  0.00  0.00    +0.200 S 
ATOM     26  C   LIG    1        0.968   1.853   2.993  0.00  0.00    +0.560 A 
ATOM     27  O   LIG    1        1.269   2.927   2.503  0.00  0.00    -0.510 OA
ENDBRANCH  15  16
ENDBRANCH   1  15
TORSDOF 5
