REMARK  Name = ZINCqH00000032xG.0
REMARK                            x       y       z     vdW  Elec       q    Type
REMARK                         _______ _______ _______ _____ _____    ______ ____
ROOT
ATOM      1  C   LIG    1        3.107   0.708   1.736  0.00  0.00    -0.660 A 
ATOM      2  C   LIG    1        4.484   0.658   1.634  0.00  0.00    +0.140 A 
ATOM      3  C   LIG    1        5.151  -0.543   1.841  0.00  0.00    +0.120 A 
ATOM      4  C   LIG    1        4.430  -1.692   2.139  0.00  0.00    +0.060 A 
ATOM      5  C   LIG    1        3.053  -1.636   2.234  0.00  0.00    +0.020 A 
ATOM      6  C   LIG    1        2.392  -0.438   2.033  0.00  0.00    +0.010 A 
ATOM      7  C   LIG    1        0.890  -0.381   2.138  0.00  0.00    +0.090 C 
ENDROOT
BRANCH   3   8
ATOM      8  N   LIG    1        6.545  -0.596   1.744  0.00  0.00    -0.670 N 
ATOM      9  H   LIG    1        6.979  -1.400   1.418  0.00  0.00    +0.420 HD
ATOM     10  C   LIG    1        7.287   0.471   2.103  0.00  0.00    +0.530 C 
ATOM     11  O   LIG    1        6.755   1.435   2.611  0.00  0.00    -0.490 OA
BRANCH  10  12
ATOM     12  C   LIG    1        8.776   0.465   1.873  0.00  0.00    +0.080 C 
BRANCH  12  13
ATOM     13  S   LIG    1        9.484   2.029   2.458  0.00  0.00    -0.020 S 
BRANCH  13  14
ATOM     14  C   LIG    1       11.202   1.841   2.112  0.00  0.00    -0.100 A 
ATOM     15  C   LIG    1       11.670   0.670   1.528  0.00  0.00    -0.020 A 
ATOM     16  C   LIG    1       13.016   0.527   1.255  0.00  0.00    +0.030 A 
ATOM     17  C   LIG    1       13.899   1.544   1.570  0.00  0.00    +0.010 A 
ATOM     18  C   LIG    1       13.437   2.709   2.156  0.00  0.00    +0.030 A 
ATOM     19  C   LIG    1       12.092   2.860   2.428  0.00  0.00    +0.030 A 
ENDBRANCH  13  14
ENDBRANCH  12  13
ENDBRANCH  10  12
ENDBRANCH   3   8
BRANCH   1  20
ATOM     20  S   LIG    1        2.261   2.232   1.480  0.00  0.00    +2.690 S 
ATOM     21  O   LIG    1        1.262   2.311   2.488  0.00  0.00    -0.950 OA
ATOM     22  O   LIG    1        3.263   3.222   1.300  0.00  0.00    -0.950 OA
BRANCH  20  23
ATOM     23  N   LIG    1        1.459   2.110   0.036  0.00  0.00    -0.990 NA
BRANCH  23  25
ATOM     24  C   LIG    1       -0.013   0.340  -0.789  0.00  0.00    +0.020 C 
ATOM     25  C   LIG    1        0.070   1.644   0.006  0.00  0.00    +0.280 C 
ENDBRANCH  23  25
BRANCH  23  26
ATOM     26  C   LIG    1        2.138   2.469  -1.212  0.00  0.00    +0.280 C 
ATOM     27  C   LIG    1        1.813   3.920  -1.571  0.00  0.00    +0.020 C 
ENDBRANCH  23  26
ENDBRANCH  20  23
ENDBRANCH   1  20
TORSDOF 8
