REMARK  Name = ZINCrH00000tj1mm.0
REMARK                            x       y       z     vdW  Elec       q    Type
REMARK                         _______ _______ _______ _____ _____    ______ ____
ROOT
ATOM      1  C   LIG    1        1.299   2.078  -0.051  0.00  0.00    +0.060 C 
ENDROOT
BRANCH   1   3
ATOM      2  O   LIG    1       -0.236   0.435  -0.767  0.00  0.00    -0.520 OA
ATOM      3  C   LIG    1        0.002   1.316   0.031  0.00  0.00    +0.550 C 
ATOM      4  N   LIG    1       -0.892   1.609   0.997  0.00  0.00    -0.600 N 
ATOM      5  C   LIG    1       -0.685   2.567   2.093  0.00  0.00    +0.230 C 
ATOM      6  C   LIG    1       -1.962   2.554   2.959  0.00  0.00    +0.030 C 
ATOM      7  C   LIG    1       -2.587   1.172   2.633  0.00  0.00    +0.040 C 
ATOM      8  C   LIG    1       -2.236   1.019   1.132  0.00  0.00    +0.260 C 
ENDBRANCH   1   3
BRANCH   1   9
ATOM      9  C   LIG    1        2.315   1.442   0.862  0.00  0.00    -0.080 A 
ATOM     10  C   LIG    1        2.759   0.156   0.613  0.00  0.00    +0.030 A 
ATOM     11  C   LIG    1        3.694  -0.426   1.448  0.00  0.00    +0.020 A 
ATOM     12  C   LIG    1        4.179   0.274   2.537  0.00  0.00    +0.030 A 
ATOM     13  C   LIG    1        3.731   1.558   2.789  0.00  0.00    +0.010 A 
ATOM     14  C   LIG    1        2.799   2.142   1.951  0.00  0.00    +0.040 A 
ENDBRANCH   1   9
BRANCH   1  15
ATOM     15  S   LIG    1        1.912   2.043  -1.754  0.00  0.00    +0.120 S 
BRANCH  15  16
ATOM     16  C   LIG    1        0.639   2.958  -2.557  0.00  0.00    +0.210 A 
ATOM     17  N   LIG    1       -0.425   3.482  -1.988  0.00  0.00    -0.330 NA
ATOM     18  N   LIG    1       -1.151   4.085  -2.860  0.00  0.00    -0.020 NA
ATOM     19  N   LIG    1       -0.617   3.993  -4.030  0.00  0.00    -0.070 NA
ATOM     20  N   LIG    1        0.573   3.260  -3.878  0.00  0.00    -0.320 N 
BRANCH  20  21
ATOM     21  C   LIG    1        1.492   2.912  -4.879  0.00  0.00    +0.130 A 
ATOM     22  C   LIG    1        2.850   2.868  -4.590  0.00  0.00    +0.050 A 
ATOM     23  C   LIG    1        3.753   2.522  -5.576  0.00  0.00    +0.070 A 
ATOM     24  C   LIG    1        3.307   2.229  -6.853  0.00  0.00    -0.020 A 
ATOM     25  C   LIG    1        1.955   2.277  -7.144  0.00  0.00    +0.060 A 
ATOM     26 CL   LIG    1        4.446   1.800  -8.091  0.00  0.00    -0.050 Cl
ATOM     27  C   LIG    1        1.048   2.618  -6.160  0.00  0.00    +0.070 A 
ENDBRANCH  20  21
ENDBRANCH  15  16
ENDBRANCH   1  15
TORSDOF 5
