REMARK  Name = ZINCrH00000No550.0
REMARK                            x       y       z     vdW  Elec       q    Type
REMARK                         _______ _______ _______ _____ _____    ______ ____
ROOT
ATOM      1  C   LIG    1        1.525  -2.027  -0.023  0.00  0.00    +0.230 A 
ATOM      2  C   LIG    1        2.882  -2.121  -0.036  0.00  0.00    +0.050 A 
ATOM      3  N   LIG    1        3.394  -0.887  -0.035  0.00  0.00    -0.410 NA
ATOM      4  C   LIG    1        2.405  -0.007  -0.021  0.00  0.00    +0.160 A 
ATOM      5  C   LIG    1        2.378   1.401  -0.014  0.00  0.00    +0.200 A 
ATOM      6  C   LIG    1        1.176   2.040   0.002  0.00  0.00    -0.010 A 
ATOM      7  C   LIG    1       -0.016   1.302   0.009  0.00  0.00    +0.140 A 
ATOM      8  N   LIG    1        0.002  -0.004   0.002  0.00  0.00    -0.230 NA
ATOM      9  I   LIG    1       -1.853   2.309   0.023  0.00  0.00    +0.090 I 
ATOM     10  N   LIG    1        1.215  -0.700  -0.013  0.00  0.00    -0.290 N 
ENDROOT
BRANCH   2  11
ATOM     11  C   LIG    1        3.675  -3.402  -0.051  0.00  0.00    +0.080 C 
ATOM     12  C   LIG    1        4.634  -3.652   1.115  0.00  0.00    +0.090 C 
ATOM     13  C   LIG    1        5.186  -3.296  -0.268  0.00  0.00    +0.210 C 
ATOM     14  F   LIG    1        5.725  -2.016  -0.437  0.00  0.00    -0.140 F 
ATOM     15  F   LIG    1        5.807  -4.315  -0.998  0.00  0.00    -0.160 F 
ENDBRANCH   2  11
BRANCH   1  16
ATOM     16  N   LIG    1        0.618  -3.094  -0.021  0.00  0.00    -0.580 N 
ATOM     17  H   LIG    1        0.777  -3.706  -0.807  0.00  0.00    +0.370 HD
BRANCH  16  18
ATOM     18  C   LIG    1       -0.768  -2.606  -0.005  0.00  0.00    +0.210 C 
BRANCH  18  19
ATOM     19  C   LIG    1       -1.728  -3.797  -0.003  0.00  0.00    +0.040 C 
BRANCH  19  20
ATOM     20  C   LIG    1       -3.171  -3.289   0.013  0.00  0.00    +0.280 C 
BRANCH  20  22
ATOM     21  C   LIG    1       -5.422  -4.222   0.028  0.00  0.00    +0.650 C 
ATOM     22  N   LIG    1       -4.090  -4.430   0.015  0.00  0.00    -0.710 N 
ATOM     23  H   LIG    1       -3.740  -5.335   0.007  0.00  0.00    +0.410 HD
ATOM     24  O   LIG    1       -5.860  -3.089   0.038  0.00  0.00    -0.560 OA
BRANCH  21  25
ATOM     25  O   LIG    1       -6.267  -5.271   0.030  0.00  0.00    -0.370 OA
BRANCH  25  27
ATOM     26  C   LIG    1       -8.050  -4.154  -1.197  0.00  0.00    +0.040 C 
ATOM     27  C   LIG    1       -7.688  -4.972   0.045  0.00  0.00    +0.140 C 
ATOM     28  C   LIG    1       -8.027  -4.168   1.301  0.00  0.00    +0.040 C 
ATOM     29  C   LIG    1       -8.483  -6.279   0.045  0.00  0.00    +0.080 C 
ENDBRANCH  25  27
ENDBRANCH  21  25
ENDBRANCH  20  22
ENDBRANCH  19  20
ENDBRANCH  18  19
ENDBRANCH  16  18
ENDBRANCH   1  16
TORSDOF 8
