REMARK  Name = ZINCpe000000SzaN.0
REMARK                            x       y       z     vdW  Elec       q    Type
REMARK                         _______ _______ _______ _____ _____    ______ ____
ROOT
ATOM      1  C   LIG    1       -3.280   3.834  -0.990  0.00  0.00    -0.020 C 
ATOM      2  C   LIG    1       -2.366   4.239   0.170  0.00  0.00    +0.060 C 
ATOM      3  C   LIG    1       -1.012   3.544   0.012  0.00  0.00    +0.230 C 
ATOM      4  N   LIG    1       -1.205   2.088   0.002  0.00  0.00    -0.470 N 
ATOM      5  C   LIG    1       -2.041   1.671  -1.131  0.00  0.00    +0.200 C 
ATOM      6  C   LIG    1       -3.426   2.310  -1.007  0.00  0.00    +0.060 C 
ENDROOT
BRANCH   1  14
ATOM      7  C   LIG    1       -9.166   5.809  -4.738  0.00  0.00    +0.100 C 
ATOM      8  C   LIG    1       -7.927   4.972  -4.920  0.00  0.00    +0.510 C 
ATOM      9  N   LIG    1       -7.222   4.569  -3.844  0.00  0.00    -0.620 N 
ATOM     10  C   LIG    1       -7.705   4.851  -2.485  0.00  0.00    +0.270 C 
ATOM     11  C   LIG    1       -6.606   5.599  -1.719  0.00  0.00    +0.280 C 
ATOM     12  N   LIG    1       -5.340   4.871  -1.884  0.00  0.00    -0.620 N 
ATOM     13  C   LIG    1       -4.854   4.595  -3.243  0.00  0.00    +0.270 C 
ATOM     14  C   LIG    1       -4.635   4.470  -0.808  0.00  0.00    +0.520 C 
ATOM     15  O   LIG    1       -5.090   4.619   0.306  0.00  0.00    -0.530 OA
ATOM     16  C   LIG    1       -5.955   3.842  -4.009  0.00  0.00    +0.280 C 
ATOM     17  O   LIG    1       -7.564   4.660  -6.034  0.00  0.00    -0.540 OA
ENDBRANCH   1  14
BRANCH   4  18
ATOM     18  C   LIG    1        0.012   1.425  -0.009  0.00  0.00    +0.340 A 
ATOM     19  C   LIG    1        0.035   0.032  -0.020  0.00  0.00    -0.040 A 
ATOM     20  C   LIG    1        1.240  -0.619  -0.036  0.00  0.00    +0.150 A 
ATOM     21  C   LIG    1        2.415   0.147  -0.041  0.00  0.00    -0.110 A 
ATOM     22  C   LIG    1        2.317   1.539  -0.030  0.00  0.00    +0.360 A 
ATOM     23  N   LIG    1        1.138   2.126  -0.014  0.00  0.00    -0.520 NA
BRANCH  21  24
ATOM     24  C   LIG    1        3.697  -0.491  -0.059  0.00  0.00    +0.260 C 
ATOM     25  N   LIG    1        4.715  -0.996  -0.072  0.00  0.00    -0.410 NA
ENDBRANCH  21  24
ENDBRANCH   4  18
TORSDOF 3
