REMARK  Name = ZINCqH0000051ahK.0
REMARK                            x       y       z     vdW  Elec       q    Type
REMARK                         _______ _______ _______ _____ _____    ______ ____
ROOT
ATOM      1  O   LIG    1       -5.663   4.018  -3.914  0.00  0.00    -0.330 OA
ENDROOT
BRANCH   1   2
ATOM      2  C   LIG    1       -6.854   4.613  -4.080  0.00  0.00    +0.470 C 
ATOM      3  O   LIG    1       -7.466   5.018  -3.120  0.00  0.00    -0.500 OA
BRANCH   2   4
ATOM      4  C   LIG    1       -7.429   4.776  -5.464  0.00  0.00    +0.120 C 
BRANCH   4   5
ATOM      5  C   LIG    1       -8.784   5.479  -5.374  0.00  0.00    +0.170 C 
BRANCH   5   6
ATOM      6  C   LIG    1       -9.358   5.642  -6.758  0.00  0.00    +0.090 A 
ATOM      7  N   LIG    1      -10.109   4.780  -7.331  0.00  0.00    -0.460 NA
ATOM      8  C   LIG    1      -10.555   5.059  -8.571  0.00  0.00    +0.080 A 
ATOM      9  C   LIG    1      -11.386   4.302  -9.421  0.00  0.00    +0.080 A 
ATOM     10  C   LIG    1      -11.718   4.769 -10.656  0.00  0.00    +0.030 A 
ATOM     11  C   LIG    1      -11.247   5.996 -11.102  0.00  0.00    +0.040 A 
ATOM     12  C   LIG    1      -10.433   6.757 -10.293  0.00  0.00    +0.060 A 
ATOM     13  C   LIG    1      -10.083   6.295  -9.027  0.00  0.00    -0.180 A 
ATOM     14  S   LIG    1       -9.083   6.997  -7.758  0.00  0.00    +0.110 S 
ENDBRANCH   5   6
ENDBRANCH   4   5
ENDBRANCH   2   4
ENDBRANCH   1   2
BRANCH   1  15
ATOM     15  C   LIG    1       -5.171   3.895  -2.553  0.00  0.00    +0.250 C 
BRANCH  15  17
ATOM     16  O   LIG    1       -3.338   2.854  -3.613  0.00  0.00    -0.510 OA
ATOM     17  C   LIG    1       -3.831   3.207  -2.563  0.00  0.00    +0.510 C 
ATOM     18  N   LIG    1       -3.180   2.983  -1.404  0.00  0.00    -0.730 N 
ATOM     19  H   LIG    1       -3.574   3.265  -0.564  0.00  0.00    +0.400 HD
BRANCH  18  20
ATOM     20  C   LIG    1       -1.877   2.314  -1.414  0.00  0.00    +0.270 C 
BRANCH  20  21
ATOM     21  C   LIG    1       -1.359   2.185   0.020  0.00  0.00    +0.060 C 
BRANCH  21  22
ATOM     22  C   LIG    1       -0.018   1.496   0.010  0.00  0.00    -0.120 C 
ATOM     23  C   LIG    1        1.044   2.236   0.004  0.00  0.00    -0.050 C 
ATOM     24  C   LIG    1        2.444   1.697  -0.022  0.00  0.00    +0.050 C 
ATOM     25  C   LIG    1        2.448   0.221   0.383  0.00  0.00    +0.010 C 
ATOM     26  C   LIG    1        1.378  -0.510  -0.437  0.00  0.00    +0.020 C 
ATOM     27  C   LIG    1        0.002  -0.004   0.002  0.00  0.00    +0.060 C 
ENDBRANCH  21  22
ENDBRANCH  20  21
ENDBRANCH  18  20
ENDBRANCH  15  17
ENDBRANCH   1  15
TORSDOF 9
