REMARK  Name = ZINCpk00001AZiyA.0
REMARK                            x       y       z     vdW  Elec       q    Type
REMARK                         _______ _______ _______ _____ _____    ______ ____
ROOT
ATOM      1  O   LIG    1       -0.104   2.579   2.086  0.00  0.00    -0.490 OA
ATOM      2  C   LIG    1       -0.718   1.948   1.252  0.00  0.00    +0.550 C 
ATOM      3  N   LIG    1       -2.029   1.690   1.432  0.00  0.00    -0.630 N 
ATOM      4  C   LIG    1       -3.063   0.919   0.726  0.00  0.00    +0.290 C 
ATOM      5  C   LIG    1       -3.778   0.748   2.073  0.00  0.00    +0.070 C 
ATOM      6  C   LIG    1       -3.052   2.051   2.424  0.00  0.00    +0.330 C 
ENDROOT
BRANCH   6   7
ATOM      7  C   LIG    1       -2.532   2.084   3.838  0.00  0.00    +0.160 A 
ATOM      8  N   LIG    1       -1.763   1.191   4.403  0.00  0.00    -0.260 NA
ATOM      9  N   LIG    1       -1.508   1.543   5.615  0.00  0.00    -0.290 NA
ATOM     10  C   LIG    1       -2.099   2.675   5.874  0.00  0.00    +0.190 A 
ATOM     11  C   LIG    1       -2.051   3.452   7.164  0.00  0.00    +0.150 C 
ATOM     12  C   LIG    1       -3.472   3.881   7.542  0.00  0.00    +0.030 C 
ATOM     13  C   LIG    1       -3.792   5.223   6.891  0.00  0.00    +0.020 C 
ATOM     14  C   LIG    1       -3.100   5.338   5.534  0.00  0.00    +0.030 C 
ATOM     15  C   LIG    1       -3.606   4.235   4.600  0.00  0.00    +0.280 C 
ATOM     16  N   LIG    1       -2.768   3.046   4.758  0.00  0.00    -0.460 N 
ENDBRANCH   6   7
BRANCH   2  17
ATOM     17  C   LIG    1       -0.016   1.452   0.014  0.00  0.00    +0.260 C 
ATOM     18  C   LIG    1       -0.166   2.483  -1.110  0.00  0.00    +0.050 C 
ATOM     19  C   LIG    1        0.750   2.103  -2.278  0.00  0.00    +0.060 C 
ATOM     20  C   LIG    1        2.213   2.301  -1.859  0.00  0.00    +0.170 C 
ATOM     21  C   LIG    1        2.413   1.639  -0.517  0.00  0.00    +0.280 A 
ATOM     22  N   LIG    1        3.538   1.323   0.059  0.00  0.00    -0.540 NA
ATOM     23  C   LIG    1        3.294   0.750   1.240  0.00  0.00    +0.410 A 
ATOM     24  N   LIG    1        1.999   0.695   1.427  0.00  0.00    -0.290 NA
ATOM     25  N   LIG    1        1.407   1.268   0.298  0.00  0.00    -0.370 N 
ENDBRANCH   2  17
TORSDOF 2
