REMARK  Name = ZINCrg00000fRnza.0
REMARK                            x       y       z     vdW  Elec       q    Type
REMARK                         _______ _______ _______ _____ _____    ______ ____
ROOT
ATOM      1  C   LIG    1        0.867  -2.128  -0.017  0.00  0.00    -0.190 A 
ATOM      2  C   LIG    1       -0.475  -2.447  -0.007  0.00  0.00    +0.060 A 
ATOM      3  S   LIG    1       -1.424  -1.030   0.009  0.00  0.00    +0.360 S 
ATOM      4  C   LIG    1        0.002  -0.004   0.002  0.00  0.00    -0.330 A 
ATOM      5  C   LIG    1        1.118  -0.761  -0.018  0.00  0.00    +0.040 A 
ATOM      6  C   LIG    1        2.507  -0.179  -0.035  0.00  0.00    +0.130 C 
ENDROOT
BRANCH   4   7
ATOM      7  C   LIG    1       -0.018   1.460   0.010  0.00  0.00    +0.600 C 
ATOM      8  N   LIG    1       -1.194   2.118   0.019  0.00  0.00    -0.730 N 
ATOM      9  H   LIG    1       -2.027   1.622   0.021  0.00  0.00    +0.400 HD
ATOM     10  C   LIG    1       -1.214   3.583   0.027  0.00  0.00    +0.290 C 
ATOM     11  O   LIG    1        1.028   2.083   0.003  0.00  0.00    -0.520 OA
ENDBRANCH   4   7
BRANCH   2  12
ATOM     12  N   LIG    1       -0.979  -3.733  -0.009  0.00  0.00    -0.620 N 
ATOM     13  H   LIG    1       -0.374  -4.491  -0.019  0.00  0.00    +0.420 HD
ATOM     14  C   LIG    1       -2.312  -3.935   0.002  0.00  0.00    +0.510 C 
ATOM     15  O   LIG    1       -3.068  -2.987   0.014  0.00  0.00    -0.470 OA
BRANCH  14  16
ATOM     16  C   LIG    1       -2.862  -5.338  -0.001  0.00  0.00    +0.290 C 
BRANCH  16  17
ATOM     17  O   LIG    1       -4.313  -5.289   0.012  0.00  0.00    -0.330 OA
BRANCH  17  18
ATOM     18  C   LIG    1       -4.962  -6.464   0.011  0.00  0.00    +0.480 C 
ATOM     19  O   LIG    1       -4.339  -7.499  -0.000  0.00  0.00    -0.490 OA
BRANCH  18  20
ATOM     20  C   LIG    1       -6.469  -6.492   0.025  0.00  0.00    +0.040 C 
ATOM     21  C   LIG    1       -7.077  -6.291   1.424  0.00  0.00    +0.050 C 
ATOM     22  C   LIG    1       -8.077  -7.369   1.047  0.00  0.00    +0.360 C 
ATOM     23  O   LIG    1       -9.198  -7.665   1.385  0.00  0.00    -0.410 OA
ATOM     24  C   LIG    1       -7.059  -7.912   0.064  0.00  0.00    +0.070 C 
ENDBRANCH  18  20
ENDBRANCH  17  18
ENDBRANCH  16  17
ENDBRANCH  14  16
ENDBRANCH   2  12
BRANCH   1  25
ATOM     25  C   LIG    1        1.931  -3.138  -0.032  0.00  0.00    +0.540 C 
ATOM     26  O   LIG    1        2.363  -3.550  -1.091  0.00  0.00    -0.490 OA
BRANCH  25  27
ATOM     27  O   LIG    1        2.430  -3.608   1.129  0.00  0.00    -0.350 OA
BRANCH  27  29
ATOM     28  C   LIG    1        3.918  -5.016   2.446  0.00  0.00    +0.070 C 
ATOM     29  C   LIG    1        3.481  -4.606   1.038  0.00  0.00    +0.200 C 
ENDBRANCH  27  29
ENDBRANCH  25  27
ENDBRANCH   1  25
TORSDOF 9
