REMARK  Name = ZINCvU0000000893.0
REMARK                            x       y       z     vdW  Elec       q    Type
REMARK                         _______ _______ _______ _____ _____    ______ ____
ROOT
ATOM      1  C   LIG    1       -0.635  -2.373  -0.196  0.00  0.00    +0.150 A 
ATOM      2  N   LIG    1        0.656  -2.270   0.022  0.00  0.00    -0.290 NA
ATOM      3  N   LIG    1        0.997  -1.032   0.089  0.00  0.00    -0.260 NA
ATOM      4  C   LIG    1       -0.056  -0.267  -0.083  0.00  0.00    +0.230 A 
ATOM      5  N   LIG    1       -1.137  -1.102  -0.266  0.00  0.00    -0.410 N 
ENDROOT
BRANCH   4   6
ATOM      6  C   LIG    1       -0.079   1.211  -0.074  0.00  0.00    -0.020 A 
ATOM      7  C   LIG    1       -1.149   1.899  -0.649  0.00  0.00    +0.050 A 
ATOM      8  C   LIG    1       -1.167   3.278  -0.634  0.00  0.00    +0.030 A 
ATOM      9  C   LIG    1       -0.121   3.980  -0.060  0.00  0.00    -0.020 A 
ATOM     10  C   LIG    1        0.947   3.304   0.507  0.00  0.00    +0.030 A 
ATOM     11 CL   LIG    1       -0.147   5.716  -0.051  0.00  0.00    -0.060 Cl
ATOM     12  C   LIG    1        0.973   1.925   0.503  0.00  0.00    +0.090 A 
ENDBRANCH   4   6
BRANCH   5  13
ATOM     13  C   LIG    1       -2.470  -0.727  -0.482  0.00  0.00    +0.090 A 
ATOM     14  C   LIG    1       -3.204  -0.146   0.544  0.00  0.00    +0.040 A 
ATOM     15  C   LIG    1       -4.517   0.225   0.327  0.00  0.00    +0.040 A 
ATOM     16  C   LIG    1       -5.103   0.011  -0.907  0.00  0.00    +0.040 A 
ATOM     17  C   LIG    1       -4.376  -0.572  -1.929  0.00  0.00    +0.040 A 
ATOM     18  C   LIG    1       -3.061  -0.941  -1.720  0.00  0.00    +0.030 A 
ENDBRANCH   5  13
BRANCH   1  19
ATOM     19  S   LIG    1       -1.552  -3.869  -0.362  0.00  0.00    +0.100 S 
BRANCH  19  20
ATOM     20  C   LIG    1       -0.222  -5.077  -0.147  0.00  0.00    +0.110 C 
BRANCH  20  23
ATOM     21  N   LIG    1        0.025  -7.539  -0.124  0.00  0.00    -0.660 N 
ATOM     22  H   LIG    1        0.956  -7.414   0.118  0.00  0.00    +0.410 HD
ATOM     23  C   LIG    1       -0.787  -6.470  -0.253  0.00  0.00    +0.530 C 
ATOM     24  O   LIG    1       -1.972  -6.630  -0.454  0.00  0.00    -0.500 OA
BRANCH  21  28
ATOM     25  C   LIG    1       -1.466 -11.379  -0.767  0.00  0.00    +0.120 A 
ATOM     26  C   LIG    1       -1.945 -10.315  -1.517  0.00  0.00    +0.010 A 
ATOM     27  C   LIG    1       -1.452  -9.043  -1.304  0.00  0.00    +0.060 A 
ATOM     28  C   LIG    1       -0.476  -8.829  -0.340  0.00  0.00    +0.100 A 
ATOM     29  C   LIG    1        0.007  -9.896   0.406  0.00  0.00    +0.030 A 
ATOM     30  C   LIG    1       -0.491 -11.166   0.196  0.00  0.00    -0.060 A 
BRANCH  25  32
ATOM     31  C   LIG    1       -1.413 -13.681  -0.170  0.00  0.00    +0.250 C 
ATOM     32  O   LIG    1       -1.952 -12.632  -0.977  0.00  0.00    -0.320 OA
ENDBRANCH  25  32
ENDBRANCH  21  28
ENDBRANCH  20  23
ENDBRANCH  19  20
ENDBRANCH   1  19
TORSDOF 7
