REMARK  Name = ZINCrD0000074pbw.0
REMARK                            x       y       z     vdW  Elec       q    Type
REMARK                         _______ _______ _______ _____ _____    ______ ____
ROOT
ATOM      1  C   LIG    1       -3.122   1.313   3.907  0.00  0.00    +0.450 C 
ATOM      2  O   LIG    1       -3.742   0.276   3.798  0.00  0.00    -0.460 OA
ENDROOT
BRANCH   1   6
ATOM      3  C   LIG    1        0.623   3.731   1.439  0.00  0.00    +0.120 C 
ATOM      4  C   LIG    1       -0.424   2.731   1.856  0.00  0.00    +0.000 A 
ATOM      5  C   LIG    1       -1.238   2.853   2.918  0.00  0.00    +0.000 A 
ATOM      6  C   LIG    1       -2.079   1.648   2.935  0.00  0.00    -0.270 A 
ATOM      7  C   LIG    1       -1.683   0.895   1.845  0.00  0.00    +0.140 A 
ATOM      8  C   LIG    1       -2.255  -0.438   1.437  0.00  0.00    +0.160 C 
ATOM      9  N   LIG    1       -0.698   1.558   1.213  0.00  0.00    -0.430 N 
BRANCH   9  10
ATOM     10  C   LIG    1       -0.013   1.086   0.008  0.00  0.00    +0.310 C 
BRANCH  10  11
ATOM     11  C   LIG    1       -0.753   1.593  -1.232  0.00  0.00    +0.140 C 
ATOM     12  C   LIG    1        0.007   1.180  -2.518  0.00  0.00    +0.020 C 
ATOM     13  C   LIG    1       -1.149   1.185  -3.556  0.00  0.00    +0.010 C 
ATOM     14  C   LIG    1       -2.352   0.714  -2.711  0.00  0.00    +0.190 C 
ATOM     15  O   LIG    1       -2.040   0.964  -1.336  0.00  0.00    -0.370 OA
ENDBRANCH  10  11
ENDBRANCH   9  10
ENDBRANCH   1   6
BRANCH   1  16
ATOM     16  C   LIG    1       -3.425   2.257   5.042  0.00  0.00    +0.100 C 
BRANCH  16  17
ATOM     17  S   LIG    1       -4.752   1.568   6.062  0.00  0.00    +0.080 S 
BRANCH  17  18
ATOM     18  C   LIG    1       -4.897   2.838   7.274  0.00  0.00    +0.200 A 
ATOM     19  N   LIG    1       -4.190   3.945   7.335  0.00  0.00    -0.340 NA
ATOM     20  N   LIG    1       -4.549   4.654   8.344  0.00  0.00    -0.030 NA
ATOM     21  N   LIG    1       -5.495   4.064   8.992  0.00  0.00    -0.080 NA
ATOM     22  N   LIG    1       -5.762   2.861   8.316  0.00  0.00    -0.350 N 
BRANCH  22  23
ATOM     23  C   LIG    1       -6.760   1.847   8.666  0.00  0.00    +0.260 C 
ATOM     24  C   LIG    1       -8.165   2.484   8.715  0.00  0.00    +0.030 C 
ATOM     25  C   LIG    1       -8.866   1.767   9.895  0.00  0.00    +0.040 C 
ATOM     26  C   LIG    1       -7.722   1.614  10.929  0.00  0.00    +0.030 C 
ATOM     27  C   LIG    1       -6.479   1.294  10.074  0.00  0.00    +0.040 C 
ENDBRANCH  22  23
ENDBRANCH  17  18
ENDBRANCH  16  17
ENDBRANCH   1  16
TORSDOF 7
