REMARK  Name = ZINCpe000000YTPB.0
REMARK                            x       y       z     vdW  Elec       q    Type
REMARK                         _______ _______ _______ _____ _____    ______ ____
ROOT
ATOM      1  O   LIG    1        6.970  -0.265  -4.924  0.00  0.00    -0.520 OA
ATOM      2  C   LIG    1        7.156  -0.337  -3.721  0.00  0.00    +0.550 A 
ATOM      3  N   LIG    1        8.331  -0.784  -3.230  0.00  0.00    -0.620 N 
ATOM      4  H   LIG    1        9.041  -1.053  -3.834  0.00  0.00    +0.420 HD
ATOM      5  C   LIG    1        8.517  -0.856  -1.897  0.00  0.00    +0.440 A 
ATOM      6  N   LIG    1        7.582  -0.502  -1.057  0.00  0.00    -0.520 NA
ATOM      7  C   LIG    1        6.395  -0.051  -1.478  0.00  0.00    +0.170 A 
ATOM      8  C   LIG    1        5.178   0.410  -0.717  0.00  0.00    +0.350 C 
ATOM      9  N   LIG    1        4.160   0.798  -1.701  0.00  0.00    -0.620 N 
ATOM     10  C   LIG    1        2.924   1.267  -1.440  0.00  0.00    +0.520 C 
ATOM     11  O   LIG    1        2.178   1.551  -2.353  0.00  0.00    -0.510 OA
ATOM     12  C   LIG    1        4.752   0.569  -3.024  0.00  0.00    +0.360 C 
ATOM     13  C   LIG    1        6.148   0.045  -2.811  0.00  0.00    -0.280 A 
ENDROOT
BRANCH   5  14
ATOM     14  C   LIG    1        9.834  -1.357  -1.363  0.00  0.00    -0.010 C 
ATOM     15  C   LIG    1        9.794  -2.345  -0.196  0.00  0.00    +0.080 C 
ATOM     16  C   LIG    1       10.248  -0.902   0.038  0.00  0.00    +0.080 C 
ENDBRANCH   5  14
BRANCH  10  17
ATOM     17  C   LIG    1        2.468   1.438  -0.014  0.00  0.00    +0.380 C 
BRANCH  17  18
ATOM     18  N   LIG    1        1.098   1.957   0.002  0.00  0.00    -0.620 N 
ATOM     19  C   LIG    1        0.727   3.380   0.013  0.00  0.00    +0.270 C 
ATOM     20  C   LIG    1       -0.814   3.359   0.028  0.00  0.00    +0.270 C 
ATOM     21  N   LIG    1       -1.147   1.927   0.018  0.00  0.00    -0.610 N 
ATOM     22  C   LIG    1       -0.014   1.212   0.009  0.00  0.00    +0.710 C 
ATOM     23  O   LIG    1        0.002  -0.004   0.002  0.00  0.00    -0.580 OA
BRANCH  21  24
ATOM     24  C   LIG    1       -2.502   1.370   0.021  0.00  0.00    +0.230 C 
ATOM     25  C   LIG    1       -2.645  -0.140   0.217  0.00  0.00    +0.040 C 
ATOM     26  C   LIG    1       -2.903   0.480  -1.157  0.00  0.00    +0.000 C 
ENDBRANCH  21  24
ENDBRANCH  17  18
ENDBRANCH  10  17
TORSDOF 4
