REMARK  Name = ZINCbw0000000HcS.0
REMARK                            x       y       z     vdW  Elec       q    Type
REMARK                         _______ _______ _______ _____ _____    ______ ____
ROOT
ATOM      1  C   LIG    1       -1.523  -0.479   2.511  0.00  0.00    -0.030 C 
ATOM      2  C   LIG    1       -2.182   0.028   1.224  0.00  0.00    +0.040 C 
ATOM      3  C   LIG    1       -1.433  -0.534   0.015  0.00  0.00    +0.020 C 
ATOM      4  C   LIG    1        0.002  -0.004   0.002  0.00  0.00    -0.010 C 
ATOM      5  C   LIG    1        0.743  -0.512   1.243  0.00  0.00    +0.020 C 
ATOM      6  C   LIG    1       -0.019   1.526   0.010  0.00  0.00    +0.020 C 
ATOM      7  C   LIG    1       -0.053  -0.126   2.470  0.00  0.00    +0.370 C 
ATOM      8  O   LIG    1        0.472   0.449   3.393  0.00  0.00    -0.450 OA
ENDROOT
BRANCH   1  10
ATOM      9  C   LIG    1       -3.666  -0.170   3.760  0.00  0.00    +0.020 C 
ATOM     10  C   LIG    1       -2.179   0.189   3.722  0.00  0.00    -0.010 C 
ATOM     11  C   LIG    1       -1.502  -0.301   5.003  0.00  0.00    +0.010 C 
ENDBRANCH   1  10
TORSDOF 1
