REMARK  Name = ZINCkj000005gwu8.1
REMARK                            x       y       z     vdW  Elec       q    Type
REMARK                         _______ _______ _______ _____ _____    ______ ____
ROOT
ATOM      1  N   LIG    1        2.936   0.883  -0.057  0.00  0.00    -0.380 N 
ATOM      2  C   LIG    1        2.097   1.508  -1.087  0.00  0.00    +0.260 C 
ATOM      3  C   LIG    1        0.620   1.301  -0.736  0.00  0.00    +0.310 C 
ATOM      4  N   LIG    1        0.382  -0.139  -0.550  0.00  0.00    -0.630 N 
ATOM      5  C   LIG    1        1.284  -0.881   0.344  0.00  0.00    +0.330 C 
ATOM      6  C   LIG    1       -0.634  -0.761  -1.182  0.00  0.00    +0.570 C 
ATOM      7  O   LIG    1       -0.762  -1.966  -1.086  0.00  0.00    -0.490 OA
ATOM      8  C   LIG    1        2.730  -0.571  -0.058  0.00  0.00    +0.260 C 
ATOM      9  H   LIG    1        2.688   1.256   0.848  0.00  0.00    +0.430 HD
ENDROOT
BRANCH   6  10
ATOM     10  C   LIG    1       -1.591   0.022  -1.990  0.00  0.00    -0.190 A 
ATOM     11  C   LIG    1       -1.849   1.357  -1.673  0.00  0.00    +0.070 A 
ATOM     12  C   LIG    1       -2.744   2.083  -2.431  0.00  0.00    +0.010 A 
ATOM     13  C   LIG    1       -3.387   1.491  -3.505  0.00  0.00    +0.100 A 
ATOM     14  C   LIG    1       -3.138   0.170  -3.826  0.00  0.00    +0.000 A 
ATOM     15  C   LIG    1       -2.238  -0.568  -3.079  0.00  0.00    +0.160 A 
ATOM     16  F   LIG    1       -1.991  -1.858  -3.397  0.00  0.00    -0.110 F 
ENDBRANCH   6  10
BRANCH   1  17
ATOM     17  C   LIG    1        4.349   1.175  -0.334  0.00  0.00    +0.230 C 
BRANCH  17  18
ATOM     18  C   LIG    1        5.211   0.668   0.823  0.00  0.00    +0.200 C 
BRANCH  18  20
ATOM     19  C   LIG    1        7.555   0.375   1.638  0.00  0.00    +0.040 C 
ATOM     20  C   LIG    1        6.681   0.991   0.544  0.00  0.00    +0.010 C 
ENDBRANCH  18  20
BRANCH  18  21
ATOM     21  O   LIG    1        4.806   1.307   2.035  0.00  0.00    -0.550 OA
ATOM     22  H   LIG    1        4.888   2.271   2.019  0.00  0.00    +0.390 HD
ENDBRANCH  18  21
ENDBRANCH  17  18
ENDBRANCH   1  17
TORSDOF 5
