REMARK  Name = ZINCqH0000003Ox3.0
REMARK                            x       y       z     vdW  Elec       q    Type
REMARK                         _______ _______ _______ _____ _____    ______ ____
ROOT
ATOM      1  C   LIG    1        2.375   4.401   1.460  0.00  0.00    +0.600 C 
ATOM      2  N   LIG    1        1.221   4.840   0.920  0.00  0.00    -0.710 N 
ATOM      3  H   LIG    1        0.470   4.234   0.821  0.00  0.00    +0.420 HD
ATOM      4  O   LIG    1        3.317   5.161   1.585  0.00  0.00    -0.510 OA
ENDROOT
BRANCH   1  10
ATOM      5  C   LIG    1        3.342  -1.249   3.400  0.00  0.00    +0.110 A 
ATOM      6  C   LIG    1        2.027  -1.409   2.971  0.00  0.00    -0.020 A 
ATOM      7  C   LIG    1        1.332  -0.354   2.423  0.00  0.00    +0.070 A 
ATOM      8  C   LIG    1        1.942   0.888   2.292  0.00  0.00    +0.040 A 
ATOM      9  O   LIG    1        1.522   2.074   1.807  0.00  0.00    -0.180 OA
ATOM     10  C   LIG    1        2.496   3.003   1.897  0.00  0.00    -0.030 A 
ATOM     11  C   LIG    1        3.606   2.451   2.452  0.00  0.00    -0.080 A 
ATOM     12  C   LIG    1        4.917   3.139   2.731  0.00  0.00    +0.140 C 
ATOM     13  C   LIG    1        3.271   1.053   2.725  0.00  0.00    -0.100 A 
ATOM     14  C   LIG    1        3.967  -0.023   3.279  0.00  0.00    +0.040 A 
BRANCH   5  15
ATOM     15  O   LIG    1        4.014  -2.302   3.938  0.00  0.00    -0.310 OA
BRANCH  15  17
ATOM     16  C   LIG    1        4.218  -4.599   4.659  0.00  0.00    +0.070 C 
ATOM     17  C   LIG    1        3.308  -3.541   4.033  0.00  0.00    +0.170 C 
ENDBRANCH  15  17
ENDBRANCH   5  15
ENDBRANCH   1  10
BRANCH   2  18
ATOM     18  C   LIG    1        1.101   6.234   0.485  0.00  0.00    +0.300 C 
BRANCH  18  19
ATOM     19  C   LIG    1       -0.256   6.441  -0.193  0.00  0.00    +0.270 C 
BRANCH  19  20
ATOM     20  C   LIG    1       -0.435   7.901  -0.521  0.00  0.00    -0.050 A 
ATOM     21  C   LIG    1       -0.419   8.438  -1.754  0.00  0.00    -0.040 A 
ATOM     22  C   LIG    1       -0.625   9.828  -1.599  0.00  0.00    -0.060 A 
ATOM     23  C   LIG    1       -0.755  10.057  -0.280  0.00  0.00    +0.160 A 
ATOM     24  O   LIG    1       -0.646   8.886   0.368  0.00  0.00    -0.170 OA
ENDBRANCH  19  20
BRANCH  19  25
ATOM     25  N   LIG    1       -1.327   6.007   0.714  0.00  0.00    -0.530 NA
ATOM     26  C   LIG    1       -2.640   6.110   0.064  0.00  0.00    +0.190 C 
ATOM     27  C   LIG    1       -1.299   6.774   1.967  0.00  0.00    +0.200 C 
ENDBRANCH  19  25
ENDBRANCH  18  19
ENDBRANCH   2  18
TORSDOF 7
