REMARK  Name = ZINCrH00000No4RA.1
REMARK                            x       y       z     vdW  Elec       q    Type
REMARK                         _______ _______ _______ _____ _____    ______ ____
ROOT
ATOM      1  C   LIG    1       -1.532   3.123   1.153  0.00  0.00    +0.550 C 
ATOM      2  N   LIG    1       -1.064   1.859   1.105  0.00  0.00    -0.730 N 
ATOM      3  H   LIG    1       -1.101   1.298   1.895  0.00  0.00    +0.400 HD
ATOM      4  O   LIG    1       -1.486   3.826   0.162  0.00  0.00    -0.540 OA
ENDROOT
BRANCH   2   5
ATOM      5  C   LIG    1       -0.500   1.334  -0.141  0.00  0.00    +0.240 C 
ATOM      6  C   LIG    1        0.978   1.721  -0.237  0.00  0.00    +0.020 C 
ATOM      7  C   LIG    1        1.577   1.119  -1.510  0.00  0.00    +0.190 C 
ATOM      8  N   LIG    1        1.436  -0.343  -1.474  0.00  0.00    -0.530 NA
ATOM      9  C   LIG    1        0.023  -0.739  -1.430  0.00  0.00    +0.180 C 
ATOM     10  C   LIG    1       -0.622  -0.192  -0.155  0.00  0.00    +0.040 C 
BRANCH   8  11
ATOM     11  C   LIG    1        2.122  -0.966  -2.614  0.00  0.00    +0.250 C 
BRANCH  11  12
ATOM     12  C   LIG    1        3.607  -0.740  -2.491  0.00  0.00    +0.130 A 
ATOM     13  C   LIG    1        4.398  -1.707  -1.900  0.00  0.00    -0.020 A 
ATOM     14  C   LIG    1        5.764  -1.491  -1.796  0.00  0.00    +0.050 A 
ATOM     15  C   LIG    1        6.284  -0.302  -2.283  0.00  0.00    -0.040 A 
ATOM     16  C   LIG    1        5.430   0.621  -2.857  0.00  0.00    +0.260 A 
ATOM     17  N   LIG    1        4.136   0.380  -2.943  0.00  0.00    -0.480 NA
ENDBRANCH  11  12
ENDBRANCH   8  11
ENDBRANCH   2   5
BRANCH   1  20
ATOM     18  C   LIG    1       -2.416   5.800   1.256  0.00  0.00    +0.090 C 
ATOM     19  C   LIG    1       -2.463   4.926   2.482  0.00  0.00    -0.020 C 
ATOM     20  C   LIG    1       -2.098   3.650   2.404  0.00  0.00    -0.110 C 
BRANCH  19  21
ATOM     21  C   LIG    1       -2.924   5.498   3.798  0.00  0.00    +0.070 C 
BRANCH  21  22
ATOM     22  C   LIG    1       -1.744   6.172   4.503  0.00  0.00    +0.090 C 
BRANCH  22  23
ATOM     23  C   LIG    1       -2.205   6.744   5.819  0.00  0.00    -0.080 A 
ATOM     24  C   LIG    1       -2.677   8.042   5.880  0.00  0.00    +0.000 A 
ATOM     25  C   LIG    1       -3.104   8.565   7.087  0.00  0.00    +0.000 A 
ATOM     26  C   LIG    1       -3.050   7.794   8.233  0.00  0.00    +0.000 A 
ATOM     27  C   LIG    1       -2.573   6.498   8.172  0.00  0.00    +0.000 A 
ATOM     28  C   LIG    1       -2.151   5.973   6.965  0.00  0.00    +0.000 A 
ENDBRANCH  22  23
ENDBRANCH  21  22
ENDBRANCH  19  21
ENDBRANCH   1  20
TORSDOF 7
