REMARK  Name = ZINCrH00000No4Ra.0
REMARK                            x       y       z     vdW  Elec       q    Type
REMARK                         _______ _______ _______ _____ _____    ______ ____
ROOT
ATOM      1  C   LIG    1       -5.293   1.246   0.059  0.00  0.00    +0.590 C 
ATOM      2  N   LIG    1       -5.115  -0.088  -0.026  0.00  0.00    -0.620 N 
ATOM      3  C   LIG    1       -3.985  -1.060   0.009  0.00  0.00    +0.300 C 
ATOM      4  C   LIG    1       -4.736  -1.782  -1.070  0.00  0.00    -0.010 C 
ATOM      5  C   LIG    1       -4.894  -3.291  -1.135  0.00  0.00    +0.030 C 
ATOM      6  C   LIG    1       -6.202  -3.554  -1.903  0.00  0.00    +0.010 C 
ATOM      7  C   LIG    1       -7.405  -2.877  -1.257  0.00  0.00    +0.010 C 
ATOM      8  C   LIG    1       -7.166  -1.372  -1.055  0.00  0.00    +0.050 C 
ATOM      9  C   LIG    1       -5.920  -1.258  -0.200  0.00  0.00    +0.180 C 
ATOM     10  O   LIG    1       -6.414   1.714   0.015  0.00  0.00    -0.530 OA
ENDROOT
BRANCH   1  13
ATOM     11  C   LIG    1       -3.201   4.365   0.242  0.00  0.00    +0.090 A 
ATOM     12  C   LIG    1       -4.288   3.525   0.107  0.00  0.00    +0.040 A 
ATOM     13  C   LIG    1       -4.125   2.138   0.206  0.00  0.00    -0.110 A 
ATOM     14  C   LIG    1       -2.863   1.599   0.435  0.00  0.00    +0.100 A 
ATOM     15  C   LIG    1       -1.762   2.445   0.578  0.00  0.00    -0.190 A 
ATOM     16  C   LIG    1       -1.933   3.836   0.478  0.00  0.00    +0.160 A 
BRANCH  11  18
ATOM     17  C   LIG    1       -4.694   6.185  -0.097  0.00  0.00    +0.250 C 
ATOM     18  O   LIG    1       -3.368   5.711   0.146  0.00  0.00    -0.300 OA
ENDBRANCH  11  18
BRANCH  15  19
ATOM     19  C   LIG    1       -0.428   1.883   0.827  0.00  0.00    +0.510 C 
ATOM     20  O   LIG    1       -0.282   0.682   0.913  0.00  0.00    -0.450 OA
ENDBRANCH  15  19
BRANCH  16  21
ATOM     21  O   LIG    1       -0.868   4.663   0.611  0.00  0.00    -0.480 OA
ATOM     22  H   LIG    1       -0.415   4.858  -0.221  0.00  0.00    +0.400 HD
ENDBRANCH  16  21
ENDBRANCH   1  13
BRANCH   9  23
ATOM     23  C   LIG    1       -6.053  -2.048   1.076  0.00  0.00    -0.090 A 
ATOM     24  C   LIG    1       -6.286  -3.409   1.026  0.00  0.00    +0.030 A 
ATOM     25  C   LIG    1       -6.404  -4.135   2.197  0.00  0.00    +0.010 A 
ATOM     26  C   LIG    1       -6.296  -3.497   3.418  0.00  0.00    +0.000 A 
ATOM     27  C   LIG    1       -6.067  -2.134   3.469  0.00  0.00    +0.000 A 
ATOM     28  C   LIG    1       -5.946  -1.410   2.298  0.00  0.00    +0.010 A 
ENDBRANCH   9  23
TORSDOF 5
