REMARK  Name = ZINCpe000015zwNm.0
REMARK                            x       y       z     vdW  Elec       q    Type
REMARK                         _______ _______ _______ _____ _____    ______ ____
ROOT
ATOM      1  C   LIG    1       -0.018   1.461   0.010  0.00  0.00    +0.270 C 
ENDROOT
BRANCH   1   2
ATOM      2  N   LIG    1        0.002  -0.004   0.002  0.00  0.00    -0.700 N 
ATOM      3  H   LIG    1       -0.404  -0.499   0.731  0.00  0.00    +0.420 HD
ATOM      4  C   LIG    1        0.585  -0.664  -1.018  0.00  0.00    +0.580 C 
ATOM      5  O   LIG    1        1.094  -0.045  -1.931  0.00  0.00    -0.540 OA
BRANCH   4   6
ATOM      6  C   LIG    1        0.605  -2.146  -1.026  0.00  0.00    +0.130 A 
ATOM      7  C   LIG    1        1.200  -2.848  -2.079  0.00  0.00    +0.040 A 
ATOM      8  N   LIG    1        1.853  -2.489  -3.229  0.00  0.00    -0.560 N 
ATOM      9  H   LIG    1        2.008  -1.577  -3.520  0.00  0.00    +0.430 HD
ATOM     10  C   LIG    1        2.247  -3.607  -3.909  0.00  0.00    +0.280 A 
ATOM     11  C   LIG    1        1.877  -4.711  -3.233  0.00  0.00    -0.020 A 
ATOM     12  C   LIG    1        1.190  -4.262  -2.026  0.00  0.00    +0.130 A 
ATOM     13  N   LIG    1        0.613  -4.866  -0.992  0.00  0.00    -0.460 NA
ATOM     14  C   LIG    1        0.062  -4.158  -0.028  0.00  0.00    +0.480 A 
ATOM     15  N   LIG    1        0.052  -2.841  -0.033  0.00  0.00    -0.480 NA
ENDBRANCH   4   6
ENDBRANCH   1   2
BRANCH   1  16
ATOM     16  C   LIG    1       -0.734   1.954   1.269  0.00  0.00    +0.270 C 
BRANCH  16  19
ATOM     17  O   LIG    1       -1.845   3.461   3.208  0.00  0.00    -0.510 OA
ATOM     18  C   LIG    1       -1.337   4.080   2.297  0.00  0.00    +0.520 C 
ATOM     19  N   LIG    1       -0.754   3.419   1.277  0.00  0.00    -0.730 N 
ATOM     20  H   LIG    1       -0.347   3.914   0.548  0.00  0.00    +0.410 HD
BRANCH  18  21
ATOM     21  C   LIG    1       -1.357   5.586   2.305  0.00  0.00    +0.240 C 
BRANCH  21  22
ATOM     22  O   LIG    1       -2.026   6.047   3.481  0.00  0.00    -0.290 OA
BRANCH  22  23
ATOM     23  C   LIG    1       -2.132   7.392   3.643  0.00  0.00    +0.130 A 
ATOM     24  C   LIG    1       -1.598   8.251   2.694  0.00  0.00    -0.080 A 
ATOM     25  C   LIG    1       -1.711   9.618   2.858  0.00  0.00    +0.050 A 
ATOM     26  C   LIG    1       -2.347  10.130   3.974  0.00  0.00    -0.030 A 
ATOM     27  C   LIG    1       -2.876   9.277   4.925  0.00  0.00    +0.050 A 
ATOM     28  C   LIG    1       -2.769   7.909   4.762  0.00  0.00    -0.020 A 
ENDBRANCH  22  23
ENDBRANCH  21  22
ENDBRANCH  18  21
ENDBRANCH  16  19
ENDBRANCH   1  16
TORSDOF 7
