REMARK  Name = ZINCkj000005ew4M.0
REMARK                            x       y       z     vdW  Elec       q    Type
REMARK                         _______ _______ _______ _____ _____    ______ ____
ROOT
ATOM      1  N   LIG    1        4.097  -1.038  -1.617  0.00  0.00    -0.400 N 
ATOM      2  C   LIG    1        4.242   0.247  -2.312  0.00  0.00    +0.270 C 
ATOM      3  C   LIG    1        4.800   0.012  -3.717  0.00  0.00    +0.060 C 
ATOM      4  C   LIG    1        6.167  -0.669  -3.610  0.00  0.00    +0.060 C 
ATOM      5  C   LIG    1        6.017  -1.972  -2.819  0.00  0.00    +0.050 C 
ATOM      6  C   LIG    1        5.414  -1.663  -1.447  0.00  0.00    +0.220 C 
ATOM      7  H   LIG    1        3.504  -1.647  -2.161  0.00  0.00    +0.420 HD
ENDROOT
BRANCH   1   8
ATOM      8  C   LIG    1        3.489  -0.815  -0.299  0.00  0.00    +0.310 C 
BRANCH   8  12
ATOM      9  C   LIG    1       -0.469   0.728  -0.797  0.00  0.00    +0.060 A 
ATOM     10  C   LIG    1        0.617   1.600  -0.704  0.00  0.00    +0.040 A 
ATOM     11  C   LIG    1        1.891   1.096  -0.544  0.00  0.00    +0.050 A 
ATOM     12  C   LIG    1        2.094  -0.271  -0.475  0.00  0.00    -0.160 A 
ATOM     13  C   LIG    1        1.022  -1.141  -0.566  0.00  0.00    +0.070 A 
ATOM     14  C   LIG    1       -0.257  -0.650  -0.727  0.00  0.00    +0.040 A 
BRANCH   9  16
ATOM     15  C   LIG    1       -2.879   1.667  -1.111  0.00  0.00    +0.110 C 
ATOM     16  C   LIG    1       -1.793   1.244  -0.969  0.00  0.00    -0.190 C 
ENDBRANCH   9  16
ENDBRANCH   8  12
ENDBRANCH   1   8
BRANCH   6  17
ATOM     17  C   LIG    1        5.262  -2.962  -0.653  0.00  0.00    -0.320 C 
BRANCH  17  18
ATOM     18  S   LIG    1        4.203  -4.113  -1.573  0.00  0.00    +2.600 S 
ATOM     19  O   LIG    1        4.896  -4.639  -2.696  0.00  0.00    -0.930 OA
ATOM     20  O   LIG    1        2.890  -3.586  -1.704  0.00  0.00    -0.960 OA
BRANCH  18  21
ATOM     21  N   LIG    1        4.023  -5.410  -0.559  0.00  0.00    -1.240 NA
ATOM     22  H   LIG    1        3.487  -6.170  -0.834  0.00  0.00    +0.430 HD
ATOM     23  H   LIG    1        4.454  -5.409   0.310  0.00  0.00    +0.420 HD
ENDBRANCH  18  21
ENDBRANCH  17  18
ENDBRANCH   6  17
TORSDOF 6
