REMARK  Name = ZINCkj000005ew4M.1
REMARK                            x       y       z     vdW  Elec       q    Type
REMARK                         _______ _______ _______ _____ _____    ______ ____
ROOT
ATOM      1  N   LIG    1       -0.748   3.047   1.274  0.00  0.00    -0.400 N 
ATOM      2  C   LIG    1       -1.500   3.529   2.439  0.00  0.00    +0.260 C 
ATOM      3  C   LIG    1       -0.791   3.094   3.724  0.00  0.00    +0.060 C 
ATOM      4  C   LIG    1       -0.711   1.565   3.763  0.00  0.00    +0.050 C 
ATOM      5  C   LIG    1        0.009   1.069   2.506  0.00  0.00    +0.090 C 
ATOM      6  C   LIG    1       -0.729   1.579   1.267  0.00  0.00    +0.200 C 
ATOM      7  H   LIG    1       -1.189   3.381   0.430  0.00  0.00    +0.420 HD
ENDROOT
BRANCH   1   8
ATOM      8  C   LIG    1        0.629   3.553   1.340  0.00  0.00    +0.310 C 
BRANCH   8  12
ATOM      9  C   LIG    1        0.598   7.816   1.011  0.00  0.00    +0.060 A 
ATOM     10  C   LIG    1        0.512   7.210   2.265  0.00  0.00    +0.040 A 
ATOM     11  C   LIG    1        0.523   5.834   2.364  0.00  0.00    +0.050 A 
ATOM     12  C   LIG    1        0.618   5.056   1.224  0.00  0.00    -0.160 A 
ATOM     13  C   LIG    1        0.709   5.651  -0.021  0.00  0.00    +0.070 A 
ATOM     14  C   LIG    1        0.694   7.026  -0.135  0.00  0.00    +0.040 A 
BRANCH   9  16
ATOM     15  C   LIG    1        0.578  10.415   0.811  0.00  0.00    +0.110 C 
ATOM     16  C   LIG    1        0.587   9.244   0.901  0.00  0.00    -0.190 C 
ENDBRANCH   9  16
ENDBRANCH   8  12
ENDBRANCH   1   8
BRANCH   6  17
ATOM     17  C   LIG    1       -0.013   1.086   0.008  0.00  0.00    -0.320 C 
BRANCH  17  18
ATOM     18  S   LIG    1       -0.890   1.687  -1.462  0.00  0.00    +2.600 S 
ATOM     19  O   LIG    1       -0.758   3.097  -1.579  0.00  0.00    -0.960 OA
ATOM     20  O   LIG    1       -2.159   1.058  -1.577  0.00  0.00    -0.930 OA
BRANCH  18  21
ATOM     21  N   LIG    1       -0.020   1.087  -2.736  0.00  0.00    -1.240 NA
ATOM     22  H   LIG    1       -0.298   1.277  -3.646  0.00  0.00    +0.430 HD
ATOM     23  H   LIG    1        0.769   0.546  -2.574  0.00  0.00    +0.420 HD
ENDBRANCH  18  21
ENDBRANCH  17  18
ENDBRANCH   6  17
TORSDOF 6
