REMARK  Name = ZINC9u000000008k.0
REMARK                            x       y       z     vdW  Elec       q    Type
REMARK                         _______ _______ _______ _____ _____    ______ ____
ROOT
ATOM      1  C   LIG    1        2.381   1.409  -0.013  0.00  0.00    +0.150 A 
ATOM      2  C   LIG    1        2.397   0.022  -0.020  0.00  0.00    -0.070 A 
ATOM      3  C   LIG    1        1.207  -0.681  -0.013  0.00  0.00    +0.070 A 
ATOM      4  C   LIG    1        0.002  -0.004   0.002  0.00  0.00    -0.020 A 
ATOM      5  C   LIG    1       -0.017   1.379   0.010  0.00  0.00    +0.090 A 
ATOM      6  C   LIG    1        1.170   2.087   0.002  0.00  0.00    -0.130 A 
ATOM      7 BR   LIG    1        1.144   3.978   0.012  0.00  0.00    -0.040 Br
ENDROOT
BRANCH   1   9
ATOM      8  C   LIG    1        4.758   1.339  -0.036  0.00  0.00    +0.250 C 
ATOM      9  O   LIG    1        3.550   2.102  -0.021  0.00  0.00    -0.300 OA
ENDBRANCH   1   9
TORSDOF 1
