REMARK  Name = ZINCrD0000071B4F.0
REMARK                            x       y       z     vdW  Elec       q    Type
REMARK                         _______ _______ _______ _____ _____    ______ ____
ROOT
ATOM      1  N   LIG    1       11.683  -0.450  -0.107  0.00  0.00    -0.570 N 
ATOM      2  C   LIG    1       10.783  -1.450  -0.103  0.00  0.00    +0.570 C 
ATOM      3  C   LIG    1        9.425  -0.860  -0.088  0.00  0.00    -0.100 A 
ATOM      4  C   LIG    1        8.144  -1.389  -0.079  0.00  0.00    +0.100 A 
ATOM      5  C   LIG    1        7.048  -0.543  -0.059  0.00  0.00    +0.130 A 
ATOM      6  C   LIG    1        7.227   0.840  -0.059  0.00  0.00    -0.100 A 
ATOM      7  C   LIG    1        8.516   1.382  -0.068  0.00  0.00    +0.180 A 
ATOM      8  C   LIG    1        9.612   0.538  -0.082  0.00  0.00    -0.150 A 
ATOM      9  O   LIG    1       11.041  -2.636  -0.112  0.00  0.00    -0.450 OA
ATOM     10  C   LIG    1       11.075   0.750  -0.095  0.00  0.00    +0.580 C 
ATOM     11  O   LIG    1       11.635   1.828  -0.095  0.00  0.00    -0.450 OA
ENDROOT
BRANCH   6  12
ATOM     12  C   LIG    1        6.050   1.736  -0.044  0.00  0.00    +0.510 C 
ATOM     13  O   LIG    1        6.204   2.941  -0.040  0.00  0.00    -0.490 OA
BRANCH  12  14
ATOM     14  O   LIG    1        4.807   1.216  -0.036  0.00  0.00    -0.340 OA
BRANCH  14  15
ATOM     15  C   LIG    1        3.700   2.155  -0.021  0.00  0.00    +0.290 C 
BRANCH  15  16
ATOM     16  C   LIG    1        2.398   1.395  -0.013  0.00  0.00    -0.050 A 
ATOM     17  C   LIG    1        2.402   0.016  -0.020  0.00  0.00    +0.040 A 
ATOM     18  C   LIG    1        1.208  -0.683  -0.013  0.00  0.00    +0.050 A 
ATOM     19  C   LIG    1        0.002  -0.004   0.002  0.00  0.00    +0.020 A 
ATOM     20  C   LIG    1       -0.017   1.375   0.010  0.00  0.00    +0.080 A 
ATOM     21  C   LIG    1        1.185   2.087   0.002  0.00  0.00    -0.020 A 
BRANCH  21  22
ATOM     22  C   LIG    1        1.173   3.519   0.010  0.00  0.00    +0.240 C 
ATOM     23  N   LIG    1        1.164   4.655   0.017  0.00  0.00    -0.400 NA
ENDBRANCH  21  22
ENDBRANCH  15  16
ENDBRANCH  14  15
ENDBRANCH  12  14
ENDBRANCH   6  12
BRANCH   1  24
ATOM     24  C   LIG    1       13.135  -0.643  -0.121  0.00  0.00    +0.310 C 
BRANCH  24  25
ATOM     25  C   LIG    1       13.654  -0.717   1.316  0.00  0.00    +0.000 C 
BRANCH  25  27
ATOM     26  C   LIG    1       15.690  -0.993   2.739  0.00  0.00    +0.030 C 
ATOM     27  C   LIG    1       15.171  -0.919   1.301  0.00  0.00    +0.020 C 
ENDBRANCH  25  27
ENDBRANCH  24  25
ENDBRANCH   1  24
TORSDOF 8
