REMARK  Name = ZINCrg000000oJv4.0
REMARK                            x       y       z     vdW  Elec       q    Type
REMARK                         _______ _______ _______ _____ _____    ______ ____
ROOT
ATOM      1  C   LIG    1        6.366  -2.721  -0.200  0.00  0.00    -0.070 A 
ATOM      2  C   LIG    1        5.968  -2.808  -1.535  0.00  0.00    +0.030 A 
ATOM      3  C   LIG    1        5.651  -1.660  -2.232  0.00  0.00    +0.130 A 
ATOM      4  C   LIG    1        5.726  -0.426  -1.611  0.00  0.00    -0.660 A 
ATOM      5  C   LIG    1        6.126  -0.334  -0.289  0.00  0.00    +0.130 A 
ATOM      6  C   LIG    1        6.440  -1.474   0.421  0.00  0.00    +0.060 A 
ENDROOT
BRANCH   1   9
ATOM      7  C   LIG    1        4.927  -5.109  -0.639  0.00  0.00    +0.290 C 
ATOM      8  N   LIG    1        5.982  -5.070   0.377  0.00  0.00    -0.600 N 
ATOM      9  C   LIG    1        6.706  -3.947   0.554  0.00  0.00    +0.560 C 
ATOM     10  O   LIG    1        7.639  -3.942   1.333  0.00  0.00    -0.520 OA
BRANCH   8  11
ATOM     11  C   LIG    1        6.250  -6.252   1.200  0.00  0.00    +0.280 C 
ATOM     12  C   LIG    1        4.979  -6.643   1.973  0.00  0.00    +0.070 C 
ATOM     13  C   LIG    1        5.228  -8.060   2.550  0.00  0.00    -0.300 C 
ATOM     14  S   LIG    1        6.030  -8.924   1.147  0.00  0.00    +2.390 S 
ATOM     15  O   LIG    1        7.127  -9.689   1.627  0.00  0.00    -0.930 OA
ATOM     16  O   LIG    1        5.035  -9.541   0.343  0.00  0.00    -0.930 OA
ATOM     17  C   LIG    1        6.659  -7.432   0.296  0.00  0.00    -0.330 C 
ENDBRANCH   8  11
ENDBRANCH   1   9
BRANCH   4  18
ATOM     18  S   LIG    1        5.319   1.034  -2.508  0.00  0.00    +2.700 S 
ATOM     19  O   LIG    1        5.990   2.105  -1.858  0.00  0.00    -0.950 OA
ATOM     20  O   LIG    1        5.501   0.724  -3.883  0.00  0.00    -0.950 OA
BRANCH  18  21
ATOM     21  N   LIG    1        3.698   1.302  -2.300  0.00  0.00    -1.110 NA
ATOM     22  H   LIG    1        3.097   1.250  -3.059  0.00  0.00    +0.420 HD
BRANCH  21  23
ATOM     23  C   LIG    1        3.174   1.618  -0.969  0.00  0.00    +0.400 C 
BRANCH  23  24
ATOM     24  C   LIG    1        1.777   2.170  -1.098  0.00  0.00    -0.040 A 
ATOM     25  C   LIG    1        0.642   1.449  -1.086  0.00  0.00    -0.030 A 
ATOM     26  C   LIG    1       -0.426   2.363  -1.240  0.00  0.00    -0.070 A 
ATOM     27  C   LIG    1        0.121   3.589  -1.327  0.00  0.00    +0.190 A 
ATOM     28  O   LIG    1        1.456   3.466  -1.244  0.00  0.00    -0.170 OA
ENDBRANCH  23  24
ENDBRANCH  21  23
ENDBRANCH  18  21
ENDBRANCH   4  18
TORSDOF 6
