REMARK  Name = ZINCtj0000001pkI.1
REMARK                            x       y       z     vdW  Elec       q    Type
REMARK                         _______ _______ _______ _____ _____    ______ ____
ROOT
ATOM      1  C   LIG    1       -0.834   1.354  -3.611  0.00  0.00    +0.370 C 
ENDROOT
BRANCH   1   2
ATOM      2  N   LIG    1       -1.518   1.573  -4.888  0.00  0.00    -0.570 N 
ATOM      3  C   LIG    1       -1.114   2.446  -5.820  0.00  0.00    +0.710 C 
ATOM      4  N   LIG    1       -1.919   2.453  -6.901  0.00  0.00    -0.710 N 
ATOM      5  H   LIG    1       -1.823   3.001  -7.696  0.00  0.00    +0.450 HD
ATOM      6  C   LIG    1       -2.968   1.468  -6.635  0.00  0.00    +0.170 C 
ATOM      7  C   LIG    1       -4.360   2.113  -6.650  0.00  0.00    +0.080 C 
ATOM      8  C   LIG    1       -5.244   0.967  -7.192  0.00  0.00    +0.090 C 
ATOM      9  C   LIG    1       -4.310   0.094  -8.005  0.00  0.00    -0.070 A 
ATOM     10  C   LIG    1       -4.587  -0.876  -8.951  0.00  0.00    +0.020 A 
ATOM     11  C   LIG    1       -3.558  -1.559  -9.571  0.00  0.00    +0.040 A 
ATOM     12  C   LIG    1       -2.246  -1.271  -9.246  0.00  0.00    +0.010 A 
ATOM     13  C   LIG    1       -1.966  -0.302  -8.302  0.00  0.00    +0.040 A 
ATOM     14  C   LIG    1       -2.995   0.384  -7.678  0.00  0.00    -0.120 A 
ATOM     15  O   LIG    1       -0.131   3.152  -5.704  0.00  0.00    -0.530 OA
ATOM     16  C   LIG    1       -2.633   0.915  -5.274  0.00  0.00    +0.550 C 
ATOM     17  O   LIG    1       -3.236   0.063  -4.658  0.00  0.00    -0.450 OA
ENDBRANCH   1   2
BRANCH   1  20
ATOM     18  N   LIG    1       -0.916   2.267  -1.314  0.00  0.00    -0.750 N 
ATOM     19  H   LIG    1       -0.207   1.649  -1.077  0.00  0.00    +0.400 HD
ATOM     20  C   LIG    1       -1.397   2.290  -2.573  0.00  0.00    +0.510 C 
ATOM     21  O   LIG    1       -2.283   3.063  -2.869  0.00  0.00    -0.500 OA
BRANCH  18  22
ATOM     22  C   LIG    1       -1.463   3.176  -0.304  0.00  0.00    +0.320 C 
BRANCH  22  23
ATOM     23  C   LIG    1       -0.694   3.005   1.007  0.00  0.00    +0.290 C 
BRANCH  23  24
ATOM     24  C   LIG    1       -1.314   3.874   2.071  0.00  0.00    -0.110 A 
ATOM     25  C   LIG    1       -0.748   4.958   2.630  0.00  0.00    +0.040 A 
ATOM     26  C   LIG    1       -1.673   5.464   3.572  0.00  0.00    -0.040 A 
ATOM     27  C   LIG    1       -2.749   4.659   3.532  0.00  0.00    +0.230 A 
ATOM     28  O   LIG    1       -2.529   3.701   2.617  0.00  0.00    -0.180 OA
ENDBRANCH  23  24
BRANCH  23  30
ATOM     29  C   LIG    1       -0.086   1.449   2.729  0.00  0.00    +0.330 C 
ATOM     30  N   LIG    1       -0.752   1.599   1.429  0.00  0.00    -0.390 N 
ATOM     31  C   LIG    1       -2.155   1.180   1.546  0.00  0.00    +0.330 C 
ATOM     32  H   LIG    1       -0.286   1.023   0.744  0.00  0.00    +0.420 HD
ENDBRANCH  23  30
ENDBRANCH  22  23
ENDBRANCH  18  22
ENDBRANCH   1  20
TORSDOF 6
