REMARK  Name = ZINCrg000000qZjS.0
REMARK                            x       y       z     vdW  Elec       q    Type
REMARK                         _______ _______ _______ _____ _____    ______ ____
ROOT
ATOM      1  N   LIG    1        1.159   3.489   0.010  0.00  0.00    -0.560 N 
ATOM      2  C   LIG    1        1.162   4.156   1.181  0.00  0.00    +0.520 C 
ATOM      3  O   LIG    1        1.179   3.544   2.228  0.00  0.00    -0.480 OA
ENDROOT
BRANCH   1   9
ATOM      4  C   LIG    1        2.389   1.403  -0.013  0.00  0.00    +0.140 A 
ATOM      5  C   LIG    1        2.399   0.018  -0.020  0.00  0.00    -0.070 A 
ATOM      6  C   LIG    1        1.206  -0.682  -0.013  0.00  0.00    +0.060 A 
ATOM      7  C   LIG    1        0.002  -0.004   0.002  0.00  0.00    -0.020 A 
ATOM      8  C   LIG    1       -0.017   1.378   0.010  0.00  0.00    +0.060 A 
ATOM      9  C   LIG    1        1.175   2.087   0.002  0.00  0.00    +0.100 A 
BRANCH   4  11
ATOM     10  C   LIG    1        4.765   1.326  -0.037  0.00  0.00    +0.250 C 
ATOM     11  O   LIG    1        3.560   2.093  -0.021  0.00  0.00    -0.310 OA
ENDBRANCH   4  11
ENDBRANCH   1   9
BRANCH   2  12
ATOM     12  C   LIG    1        1.144   5.663   1.189  0.00  0.00    +0.230 C 
BRANCH  12  13
ATOM     13  O   LIG    1        1.151   6.132   2.539  0.00  0.00    -0.250 OA
BRANCH  13  14
ATOM     14  C   LIG    1        1.137   7.476   2.724  0.00  0.00    +0.190 A 
ATOM     15  C   LIG    1        1.117   8.329   1.631  0.00  0.00    -0.090 A 
ATOM     16  C   LIG    1        1.103   9.697   1.821  0.00  0.00    +0.080 A 
ATOM     17  C   LIG    1        1.108  10.227   3.101  0.00  0.00    -0.040 A 
ATOM     18  C   LIG    1        1.128   9.393   4.198  0.00  0.00    +0.080 A 
ATOM     19  C   LIG    1        1.137   8.008   4.021  0.00  0.00    -0.170 A 
BRANCH  19  20
ATOM     20  C   LIG    1        1.153   7.110   5.191  0.00  0.00    +0.560 C 
ATOM     21  O   LIG    1        1.166   5.904   5.032  0.00  0.00    -0.510 OA
ATOM     22  N   LIG    1        1.153   7.626   6.436  0.00  0.00    -0.860 N 
ATOM     23  H   LIG    1        1.163   7.035   7.206  0.00  0.00    +0.410 HD
ATOM     24  H   LIG    1        1.143   8.587   6.563  0.00  0.00    +0.400 HD
ENDBRANCH  19  20
ENDBRANCH  13  14
ENDBRANCH  12  13
ENDBRANCH   2  12
BRANCH   1  25
ATOM     25  C   LIG    1        1.138   4.228  -1.255  0.00  0.00    +0.320 C 
BRANCH  25  26
ATOM     26  C   LIG    1       -0.312   4.468  -1.681  0.00  0.00    +0.030 C 
BRANCH  26  27
ATOM     27  C   LIG    1       -0.333   5.229  -2.982  0.00  0.00    +0.520 C 
ATOM     28  O   LIG    1        0.709   5.547  -3.516  0.00  0.00    -0.540 OA
ATOM     29  N   LIG    1       -1.510   5.555  -3.553  0.00  0.00    -0.850 N 
ATOM     30  H   LIG    1       -1.523   6.045  -4.390  0.00  0.00    +0.400 HD
ATOM     31  H   LIG    1       -2.343   5.300  -3.126  0.00  0.00    +0.400 HD
ENDBRANCH  26  27
ENDBRANCH  25  26
ENDBRANCH   1  25
TORSDOF 9
