REMARK  Name = ZINCrH000004tUZs.1
REMARK                            x       y       z     vdW  Elec       q    Type
REMARK                         _______ _______ _______ _____ _____    ______ ____
ROOT
ATOM      1  O   LIG    1        0.841   4.381   2.394  0.00  0.00    -0.530 OA
ATOM      2  C   LIG    1        0.383   5.027   1.475  0.00  0.00    +0.510 C 
ATOM      3  N   LIG    1       -0.483   6.029   1.721  0.00  0.00    -0.720 N 
ATOM      4  H   LIG    1       -0.849   6.545   0.986  0.00  0.00    +0.410 HD
ENDROOT
BRANCH   3   5
ATOM      5  C   LIG    1       -0.872   6.340   3.099  0.00  0.00    +0.270 C 
BRANCH   5   6
ATOM      6  C   LIG    1       -1.857   7.510   3.100  0.00  0.00    +0.200 C 
BRANCH   6   7
ATOM      7  C   LIG    1       -2.351   7.750   4.503  0.00  0.00    -0.110 A 
ATOM      8  C   LIG    1       -2.559   9.041   4.951  0.00  0.00    +0.030 A 
ATOM      9  C   LIG    1       -3.018   9.262   6.237  0.00  0.00    +0.020 A 
ATOM     10  C   LIG    1       -3.258   8.192   7.078  0.00  0.00    +0.030 A 
ATOM     11  C   LIG    1       -3.044   6.900   6.632  0.00  0.00    -0.030 A 
ATOM     12 CL   LIG    1       -3.346   5.556   7.689  0.00  0.00    -0.060 Cl
ATOM     13  C   LIG    1       -2.591   6.679   5.344  0.00  0.00    +0.040 A 
ENDBRANCH   6   7
BRANCH   6  14
ATOM     14  N   LIG    1       -2.995   7.193   2.228  0.00  0.00    -0.500 NA
ATOM     15  C   LIG    1       -3.809   6.087   2.795  0.00  0.00    +0.160 C 
ATOM     16  C   LIG    1       -5.174   6.248   2.080  0.00  0.00    +0.020 C 
ATOM     17  C   LIG    1       -5.339   7.783   1.990  0.00  0.00    +0.010 C 
ATOM     18  C   LIG    1       -3.911   8.348   2.110  0.00  0.00    +0.160 C 
ENDBRANCH   6  14
ENDBRANCH   5   6
ENDBRANCH   3   5
BRANCH   2  19
ATOM     19  C   LIG    1        0.783   4.707   0.058  0.00  0.00    +0.140 C 
BRANCH  19  20
ATOM     20  C   LIG    1        1.753   3.554   0.057  0.00  0.00    -0.160 A 
ATOM     21  C   LIG    1        3.095   3.638   0.039  0.00  0.00    +0.250 A 
ATOM     22  N   LIG    1        3.641   2.385   0.045  0.00  0.00    -0.580 N 
ATOM     23  H   LIG    1        4.591   2.191   0.035  0.00  0.00    +0.420 HD
ATOM     24  C   LIG    1        2.642   1.439   0.067  0.00  0.00    +0.040 A 
ATOM     25  C   LIG    1        2.617   0.051   0.081  0.00  0.00    +0.260 A 
ATOM     26  N   LIG    1        1.468  -0.593   0.102  0.00  0.00    -0.470 NA
ATOM     27  C   LIG    1        0.302   0.032   0.110  0.00  0.00    +0.200 A 
ATOM     28  C   LIG    1        0.227   1.397   0.097  0.00  0.00    +0.010 A 
ATOM     29  C   LIG    1        1.415   2.134   0.075  0.00  0.00    -0.060 A 
ENDBRANCH  19  20
ENDBRANCH   2  19
TORSDOF 6
