REMARK  Name = ZINCAx000000096e.0
REMARK                            x       y       z     vdW  Elec       q    Type
REMARK                         _______ _______ _______ _____ _____    ______ ____
ROOT
ATOM      1  N   LIG    1        7.052   4.723   3.902  0.00  0.00    -0.660 N 
ATOM      2  H   LIG    1        7.131   4.197   4.713  0.00  0.00    +0.420 HD
ATOM      3  C   LIG    1        6.025   4.508   3.057  0.00  0.00    +0.500 C 
ATOM      4  O   LIG    1        5.870   5.231   2.095  0.00  0.00    -0.500 OA
ENDROOT
BRANCH   1  11
ATOM      5  C   LIG    1        8.492   5.885   6.064  0.00  0.00    +0.100 C 
ATOM      6  C   LIG    1        8.731   6.297   4.635  0.00  0.00    -0.060 A 
ATOM      7  C   LIG    1        9.676   7.261   4.342  0.00  0.00    +0.020 A 
ATOM      8  C   LIG    1        9.892   7.645   3.031  0.00  0.00    +0.110 A 
ATOM      9  C   LIG    1        9.167   7.061   2.009  0.00  0.00    -0.670 A 
ATOM     10  C   LIG    1        8.225   6.092   2.294  0.00  0.00    +0.130 A 
ATOM     11  C   LIG    1        8.006   5.704   3.610  0.00  0.00    +0.130 A 
BRANCH   9  12
ATOM     12  S   LIG    1        9.445   7.553   0.340  0.00  0.00    +2.690 S 
ATOM     13  O   LIG    1        9.020   6.469  -0.474  0.00  0.00    -0.950 OA
ATOM     14  O   LIG    1       10.760   8.091   0.294  0.00  0.00    -0.950 OA
BRANCH  12  15
ATOM     15  N   LIG    1        8.415   8.809   0.021  0.00  0.00    -1.000 NA
ATOM     16  C   LIG    1        7.067   8.566  -0.518  0.00  0.00    +0.280 C 
ATOM     17  C   LIG    1        6.057   9.332   0.351  0.00  0.00    +0.220 C 
ATOM     18  O   LIG    1        6.464  10.699   0.449  0.00  0.00    -0.380 OA
ATOM     19  C   LIG    1        7.728  10.889   1.090  0.00  0.00    +0.220 C 
ATOM     20  C   LIG    1        8.821  10.203   0.263  0.00  0.00    +0.280 C 
ENDBRANCH  12  15
ENDBRANCH   9  12
ENDBRANCH   1  11
BRANCH   3  21
ATOM     21  C   LIG    1        5.069   3.371   3.307  0.00  0.00    +0.370 C 
BRANCH  21  22
ATOM     22  N   LIG    1        4.049   3.350   2.255  0.00  0.00    -0.560 N 
ATOM     23  C   LIG    1        4.165   2.670   1.109  0.00  0.00    +0.710 C 
ATOM     24  N   LIG    1        3.090   2.818   0.313  0.00  0.00    -0.720 N 
ATOM     25  H   LIG    1        2.957   2.419  -0.561  0.00  0.00    +0.440 HD
ATOM     26  C   LIG    1        2.155   3.704   1.027  0.00  0.00    +0.170 C 
ATOM     27  C   LIG    1        1.908   4.984   0.225  0.00  0.00    +0.100 C 
ATOM     28  O   LIG    1        5.132   1.995   0.819  0.00  0.00    -0.530 OA
ATOM     29  C   LIG    1        2.878   4.015   2.323  0.00  0.00    +0.540 C 
ATOM     30  O   LIG    1        2.486   4.716   3.231  0.00  0.00    -0.440 OA
BRANCH  26  31
ATOM     31  C   LIG    1        0.856   2.993   1.302  0.00  0.00    -0.090 A 
ATOM     32  C   LIG    1        0.672   1.695   0.865  0.00  0.00    +0.070 A 
ATOM     33  C   LIG    1       -0.520   1.042   1.116  0.00  0.00    +0.050 A 
ATOM     34  C   LIG    1       -1.530   1.688   1.807  0.00  0.00    -0.010 A 
ATOM     35  C   LIG    1       -1.347   2.987   2.246  0.00  0.00    +0.050 A 
ATOM     36 CL   LIG    1       -3.027   0.868   2.123  0.00  0.00    -0.050 Cl
ATOM     37  C   LIG    1       -0.154   3.640   1.994  0.00  0.00    -0.010 A 
ATOM     38 CL   LIG    1        0.077   5.270   2.544  0.00  0.00    -0.020 Cl
ENDBRANCH  26  31
ENDBRANCH  21  22
ENDBRANCH   3  21
TORSDOF 6
