REMARK  Name = ZINCrH000004r5fO.0
REMARK                            x       y       z     vdW  Elec       q    Type
REMARK                         _______ _______ _______ _____ _____    ______ ____
ROOT
ATOM      1  C   LIG    1       -4.920   4.143   0.026  0.00  0.00    +0.100 C 
ATOM      2  C   LIG    1       -3.625   3.380   0.137  0.00  0.00    +0.050 A 
ATOM      3  C   LIG    1       -2.426   4.067   0.204  0.00  0.00    -0.010 A 
ATOM      4  C   LIG    1       -1.237   3.375   0.311  0.00  0.00    +0.100 A 
ATOM      5  C   LIG    1       -1.245   1.980   0.340  0.00  0.00    -0.160 A 
ATOM      6  C   LIG    1       -2.458   1.294   0.271  0.00  0.00    +0.200 A 
ATOM      7  C   LIG    1       -3.640   1.997   0.170  0.00  0.00    -0.690 A 
ENDROOT
BRANCH   5   8
ATOM      8  C   LIG    1        0.026   1.232   0.448  0.00  0.00    +0.560 C 
ATOM      9  N   LIG    1        1.197   1.898   0.508  0.00  0.00    -0.720 N 
ATOM     10  H   LIG    1        1.205   2.868   0.485  0.00  0.00    +0.400 HD
ATOM     11  O   LIG    1        0.016   0.017   0.477  0.00  0.00    -0.530 OA
BRANCH   9  12
ATOM     12  C   LIG    1        2.456   1.157   0.609  0.00  0.00    +0.240 C 
ATOM     13  C   LIG    1        2.737   0.826   2.076  0.00  0.00    +0.000 C 
ATOM     14  C   LIG    1        4.053   0.052   2.182  0.00  0.00    +0.020 C 
ATOM     15  C   LIG    1        5.193   0.906   1.625  0.00  0.00    +0.010 C 
ATOM     16  C   LIG    1        4.912   1.237   0.158  0.00  0.00    -0.010 C 
ATOM     17  C   LIG    1        6.053   2.091  -0.400  0.00  0.00    +0.020 C 
ATOM     18  C   LIG    1        3.597   2.011   0.052  0.00  0.00    -0.010 C 
ATOM     19  C   LIG    1        3.316   2.342  -1.415  0.00  0.00    +0.020 C 
ENDBRANCH   9  12
ENDBRANCH   5   8
BRANCH   7  20
ATOM     20  S   LIG    1       -5.173   1.133   0.083  0.00  0.00    +2.690 S 
ATOM     21  O   LIG    1       -4.854  -0.252   0.096  0.00  0.00    -0.950 OA
ATOM     22  O   LIG    1       -5.923   1.748  -0.955  0.00  0.00    -0.950 OA
BRANCH  20  23
ATOM     23  N   LIG    1       -5.988   1.438   1.492  0.00  0.00    -0.990 NA
ATOM     24  C   LIG    1       -5.722   0.642   2.698  0.00  0.00    +0.290 C 
ATOM     25  C   LIG    1       -5.386   1.600   3.852  0.00  0.00    +0.010 C 
ATOM     26  C   LIG    1       -6.519   2.618   4.008  0.00  0.00    +0.020 C 
ATOM     27  C   LIG    1       -6.650   3.438   2.723  0.00  0.00    +0.010 C 
ATOM     28  C   LIG    1       -6.996   2.505   1.558  0.00  0.00    +0.290 C 
ENDBRANCH  20  23
ENDBRANCH   7  20
TORSDOF 4
