REMARK  Name = ZINCpk000000nVoO.0
REMARK                            x       y       z     vdW  Elec       q    Type
REMARK                         _______ _______ _______ _____ _____    ______ ____
ROOT
ATOM      1  C   LIG    1       -1.166   2.108  -1.605  0.00  0.00    +0.070 C 
ATOM      2  C   LIG    1       -0.607   1.598  -0.275  0.00  0.00    -0.520 C 
ATOM      3  C   LIG    1        0.731   2.221  -0.032  0.00  0.00    +0.080 C 
ATOM      4  C   LIG    1        1.508   2.540  -1.338  0.00  0.00    +0.270 C 
ATOM      5  N   LIG    1        1.485   1.489  -2.369  0.00  0.00    -0.600 N 
ATOM      6  C   LIG    1        1.653   0.109  -2.038  0.00  0.00    +0.360 C 
ATOM      7  C   LIG    1        0.257  -0.523  -1.900  0.00  0.00    -0.390 C 
ATOM      8  C   LIG    1        1.303   1.837  -3.658  0.00  0.00    +0.560 C 
ATOM      9  O   LIG    1        1.357   0.992  -4.529  0.00  0.00    -0.510 OA
ATOM     10  C   LIG    1       -1.559   1.992   0.856  0.00  0.00    +0.090 C 
ATOM     11  S   LIG    1       -0.467  -0.225  -0.339  0.00  0.00    +2.460 S 
ATOM     12  O   LIG    1       -1.778  -0.773  -0.344  0.00  0.00    -0.940 OA
ATOM     13  O   LIG    1        0.449  -0.638   0.666  0.00  0.00    -0.940 OA
ENDROOT
BRANCH   8  14
ATOM     14  C   LIG    1        1.038   3.251  -4.013  0.00  0.00    -0.060 A 
ATOM     15  C   LIG    1        1.782   4.288  -3.439  0.00  0.00    -0.030 A 
ATOM     16  C   LIG    1        1.508   5.592  -3.800  0.00  0.00    +0.310 A 
ATOM     17  N   LIG    1        0.552   5.870  -4.664  0.00  0.00    -0.460 NA
ATOM     18  C   LIG    1       -0.181   4.924  -5.227  0.00  0.00    +0.370 A 
ATOM     19  C   LIG    1        0.034   3.585  -4.924  0.00  0.00    -0.010 A 
BRANCH  18  20
ATOM     20  N   LIG    1       -1.180   5.273  -6.135  0.00  0.00    -0.660 N 
ATOM     21  H   LIG    1       -1.770   4.592  -6.493  0.00  0.00    +0.420 HD
ATOM     22  C   LIG    1       -1.325   6.558  -6.515  0.00  0.00    +0.540 C 
ATOM     23  O   LIG    1       -0.648   7.423  -6.000  0.00  0.00    -0.470 OA
BRANCH  22  24
ATOM     24  C   LIG    1       -2.328   6.920  -7.580  0.00  0.00    -0.070 C 
ATOM     25  C   LIG    1       -1.786   7.403  -8.927  0.00  0.00    +0.060 C 
ATOM     26  C   LIG    1       -2.446   8.396  -7.967  0.00  0.00    +0.080 C 
ENDBRANCH  22  24
ENDBRANCH  18  20
ENDBRANCH   8  14
TORSDOF 3
