REMARK  Name = ZINCqH0000006ZO4.0
REMARK                            x       y       z     vdW  Elec       q    Type
REMARK                         _______ _______ _______ _____ _____    ______ ____
ROOT
ATOM      1  C   LIG    1       -1.780   2.853   1.279  0.00  0.00    +0.230 A 
ATOM      2  N   LIG    1       -1.785   3.279   2.521  0.00  0.00    -0.270 NA
ATOM      3  N   LIG    1       -1.078   2.497   3.256  0.00  0.00    -0.290 NA
ATOM      4  C   LIG    1       -0.584   1.520   2.529  0.00  0.00    +0.140 A 
ATOM      5  N   LIG    1       -1.008   1.715   1.245  0.00  0.00    -0.450 N 
ENDROOT
BRANCH   1   9
ATOM      6  C   LIG    1       -3.776   4.648  -2.015  0.00  0.00    +0.150 A 
ATOM      7  C   LIG    1       -2.579   3.974  -2.215  0.00  0.00    -0.010 A 
ATOM      8  C   LIG    1       -1.929   3.390  -1.149  0.00  0.00    +0.060 A 
ATOM      9  C   LIG    1       -2.474   3.478   0.133  0.00  0.00    -0.060 A 
ATOM     10  C   LIG    1       -3.681   4.153   0.329  0.00  0.00    +0.110 A 
ATOM     11  C   LIG    1       -4.323   4.739  -0.741  0.00  0.00    -0.070 A 
BRANCH   6  13
ATOM     12  C   LIG    1       -5.642   5.900  -2.792  0.00  0.00    +0.240 C 
ATOM     13  O   LIG    1       -4.415   5.222  -3.068  0.00  0.00    -0.310 OA
ENDBRANCH   6  13
ENDBRANCH   1   9
BRANCH   5  14
ATOM     14  C   LIG    1       -0.708   0.883   0.078  0.00  0.00    +0.240 C 
ATOM     15  C   LIG    1        0.789   0.955  -0.230  0.00  0.00    +0.070 C 
ATOM     16  C   LIG    1       -1.099  -0.567   0.371  0.00  0.00    +0.070 C 
ENDBRANCH   5  14
BRANCH   4  17
ATOM     17  S   LIG    1        0.438   0.204   3.104  0.00  0.00    +0.090 S 
BRANCH  17  18
ATOM     18  C   LIG    1        0.546   0.633   4.859  0.00  0.00    +0.100 C 
BRANCH  18  19
ATOM     19  C   LIG    1        1.397  -0.384   5.573  0.00  0.00    +0.540 C 
ATOM     20  N   LIG    1        1.619  -0.267   6.898  0.00  0.00    -0.720 N 
ATOM     21  H   LIG    1        1.230   0.472   7.391  0.00  0.00    +0.400 HD
ATOM     22  O   LIG    1        1.884  -1.308   4.957  0.00  0.00    -0.520 OA
BRANCH  20  23
ATOM     23  C   LIG    1        2.447  -1.256   7.592  0.00  0.00    +0.240 C 
ATOM     24  C   LIG    1        3.921  -0.869   7.460  0.00  0.00    +0.020 C 
BRANCH  23  25
ATOM     25  C   LIG    1        2.061  -1.296   9.072  0.00  0.00    -0.020 C 
ATOM     26  C   LIG    1        2.925  -2.329   9.797  0.00  0.00    +0.030 C 
ATOM     27  C   LIG    1        0.586  -1.683   9.204  0.00  0.00    +0.030 C 
ENDBRANCH  23  25
ENDBRANCH  20  23
ENDBRANCH  18  19
ENDBRANCH  17  18
ENDBRANCH   4  17
TORSDOF 8
