REMARK  Name = ZINCpk00000kOqgP.0
REMARK                            x       y       z     vdW  Elec       q    Type
REMARK                         _______ _______ _______ _____ _____    ______ ____
ROOT
ATOM      1  N   LIG    1        1.863  -2.326  -1.412  0.00  0.00    -0.740 N 
ATOM      2  H   LIG    1        1.665  -1.721  -2.144  0.00  0.00    +0.400 HD
ATOM      3  C   LIG    1        2.260  -3.588  -1.670  0.00  0.00    +0.710 C 
ATOM      4  N   LIG    1        2.382  -4.009  -2.945  0.00  0.00    -0.710 N 
ATOM      5  H   LIG    1        2.183  -3.404  -3.676  0.00  0.00    +0.400 HD
ATOM      6  O   LIG    1        2.509  -4.346  -0.753  0.00  0.00    -0.580 OA
ENDROOT
BRANCH   4   7
ATOM      7  C   LIG    1        2.813  -5.381  -3.225  0.00  0.00    +0.120 C 
ATOM      8  C   LIG    1        4.120  -5.967  -2.616  0.00  0.00    +0.030 C 
ATOM      9  C   LIG    1        3.461  -7.295  -3.066  0.00  0.00    +0.060 C 
ATOM     10  O   LIG    1        3.405  -7.186  -4.527  0.00  0.00    -0.310 OA
ATOM     11  C   LIG    1        3.947  -8.621  -2.478  0.00  0.00    +0.110 C 
ATOM     12  C   LIG    1        2.945  -5.841  -4.701  0.00  0.00    +0.060 C 
ATOM     13  C   LIG    1        3.734  -4.930  -5.624  0.00  0.00    +0.240 C 
ATOM     14  O   LIG    1        2.710  -5.248  -6.595  0.00  0.00    -0.370 OA
ATOM     15  C   LIG    1        1.736  -5.610  -5.590  0.00  0.00    +0.240 C 
ATOM     16  C   LIG    1        2.178  -6.591  -2.465  0.00  0.00    +0.060 C 
ENDBRANCH   4   7
BRANCH   1  17
ATOM     17  C   LIG    1        1.731  -1.868  -0.027  0.00  0.00    +0.390 C 
BRANCH  17  21
ATOM     18  C   LIG    1       -1.251   2.167   0.020  0.00  0.00    +0.170 C 
ATOM     19  C   LIG    1       -0.016   1.304   0.009  0.00  0.00    +0.210 A 
ATOM     20  N   LIG    1        0.002  -0.004   0.002  0.00  0.00    -0.480 NA
ATOM     21  C   LIG    1        1.276  -0.431  -0.014  0.00  0.00    -0.020 A 
ATOM     22  C   LIG    1        2.070   0.647  -0.017  0.00  0.00    +0.000 A 
ATOM     23  C   LIG    1        3.575   0.708  -0.034  0.00  0.00    +0.130 C 
ATOM     24  C   LIG    1        3.989   2.134  -0.425  0.00  0.00    +0.020 C 
ATOM     25  C   LIG    1        3.207   3.139   0.425  0.00  0.00    +0.030 C 
ATOM     26  C   LIG    1        1.732   3.132   0.007  0.00  0.00    +0.280 C 
ATOM     27  N   LIG    1        1.253   1.749  -0.001  0.00  0.00    -0.450 N 
ENDBRANCH  17  21
ENDBRANCH   1  17
TORSDOF 3
