REMARK  Name = ZINCpk00000DDos5.0
REMARK                            x       y       z     vdW  Elec       q    Type
REMARK                         _______ _______ _______ _____ _____    ______ ____
ROOT
ATOM      1  N   LIG    1        1.158   3.490   0.010  0.00  0.00    -0.230 N 
ATOM      2  C   LIG    1        2.249   4.303   0.004  0.00  0.00    +0.170 A 
ATOM      3  C   LIG    1        1.771   5.570   0.016  0.00  0.00    -0.040 A 
ATOM      4  N   LIG    1        0.437   5.474   0.029  0.00  0.00    -0.240 NA
ATOM      5  N   LIG    1        0.105   4.232   0.019  0.00  0.00    -0.070 NA
ENDROOT
BRANCH   1   9
ATOM      6  C   LIG    1        1.213  -0.682  -0.013  0.00  0.00    +0.140 A 
ATOM      7  C   LIG    1        0.002  -0.004   0.002  0.00  0.00    +0.020 A 
ATOM      8  C   LIG    1       -0.017   1.376   0.010  0.00  0.00    +0.090 A 
ATOM      9  C   LIG    1        1.176   2.087   0.002  0.00  0.00    +0.070 A 
ATOM     10  C   LIG    1        2.387   1.408  -0.012  0.00  0.00    +0.070 A 
ATOM     11  C   LIG    1        2.405   0.028  -0.020  0.00  0.00    -0.050 A 
BRANCH   6  13
ATOM     12  C   LIG    1        2.512  -2.672  -0.036  0.00  0.00    +0.250 C 
ATOM     13  O   LIG    1        1.231  -2.041  -0.021  0.00  0.00    -0.310 OA
ENDBRANCH   6  13
ENDBRANCH   1   9
BRANCH   3  14
ATOM     14  C   LIG    1        2.584   6.839   0.015  0.00  0.00    +0.390 C 
BRANCH  14  15
ATOM     15  N   LIG    1        2.732   7.323  -1.360  0.00  0.00    -0.720 N 
ATOM     16  H   LIG    1        2.330   6.831  -2.093  0.00  0.00    +0.410 HD
BRANCH  15  17
ATOM     17  C   LIG    1        3.454   8.500  -1.616  0.00  0.00    +0.270 A 
ATOM     18  C   LIG    1        4.065   9.296  -0.700  0.00  0.00    +0.060 A 
ATOM     19  N   LIG    1        4.637  10.310  -1.407  0.00  0.00    -0.280 N 
ATOM     20  N   LIG    1        4.374  10.129  -2.654  0.00  0.00    -0.060 NA
ATOM     21  N   LIG    1        3.673   9.062  -2.813  0.00  0.00    -0.300 NA
BRANCH  19  22
ATOM     22  C   LIG    1        5.412  11.419  -0.845  0.00  0.00    +0.240 C 
ATOM     23  C   LIG    1        4.473  12.554  -0.379  0.00  0.00    +0.020 C 
ATOM     24  C   LIG    1        4.738  12.662   1.139  0.00  0.00    +0.210 C 
ATOM     25  O   LIG    1        6.066  12.123   1.321  0.00  0.00    -0.360 OA
ATOM     26  C   LIG    1        6.133  10.975   0.447  0.00  0.00    +0.230 C 
ENDBRANCH  19  22
ENDBRANCH  15  17
ENDBRANCH  14  15
ENDBRANCH   3  14
TORSDOF 6
