REMARK  Name = ZINCrD0000071VoC.0
REMARK                            x       y       z     vdW  Elec       q    Type
REMARK                         _______ _______ _______ _____ _____    ______ ____
ROOT
ATOM      1  C   LIG    1        0.804   2.208   3.078  0.00  0.00    +0.550 C 
ATOM      2  O   LIG    1        1.104   3.185   2.420  0.00  0.00    -0.490 OA
ENDROOT
BRANCH   1   5
ATOM      3  C   LIG    1        1.999   1.927   6.528  0.00  0.00    -0.050 A 
ATOM      4  C   LIG    1        1.088   2.402   5.631  0.00  0.00    -0.010 A 
ATOM      5  C   LIG    1        1.486   1.943   4.356  0.00  0.00    -0.220 A 
ATOM      6  C   LIG    1        2.635   1.193   4.534  0.00  0.00    +0.130 A 
ATOM      7  C   LIG    1        3.412   0.499   3.446  0.00  0.00    +0.160 C 
ATOM      8  C   LIG    1       -0.115   3.255   5.942  0.00  0.00    +0.140 C 
ATOM      9  N   LIG    1        2.941   1.192   5.841  0.00  0.00    -0.510 N 
ATOM     10  H   LIG    1        3.702   0.742   6.239  0.00  0.00    +0.430 HD
BRANCH   3  11
ATOM     11  C   LIG    1        1.980   2.158   7.976  0.00  0.00    +0.540 C 
ATOM     12  O   LIG    1        1.094   2.826   8.474  0.00  0.00    -0.490 OA
BRANCH  11  13
ATOM     13  O   LIG    1        2.944   1.629   8.757  0.00  0.00    -0.360 OA
BRANCH  13  15
ATOM     14  C   LIG    1        4.032   1.222  10.897  0.00  0.00    +0.070 C 
ATOM     15  C   LIG    1        2.861   1.898  10.181  0.00  0.00    +0.210 C 
ENDBRANCH  13  15
ENDBRANCH  11  13
ENDBRANCH   3  11
ENDBRANCH   1   5
BRANCH   1  16
ATOM     16  O   LIG    1       -0.153   1.367   2.638  0.00  0.00    -0.320 OA
BRANCH  16  17
ATOM     17  C   LIG    1       -0.783   1.691   1.370  0.00  0.00    +0.190 C 
ATOM     18  C   LIG    1       -0.004   1.030   0.231  0.00  0.00    +0.070 C 
BRANCH  17  19
ATOM     19  C   LIG    1       -2.201   1.183   1.370  0.00  0.00    +0.520 C 
ATOM     20  N   LIG    1       -3.016   1.458   0.332  0.00  0.00    -0.670 N 
ATOM     21  H   LIG    1       -2.714   2.045  -0.379  0.00  0.00    +0.410 HD
ATOM     22  O   LIG    1       -2.611   0.526   2.304  0.00  0.00    -0.490 OA
BRANCH  20  23
ATOM     23  C   LIG    1       -4.296   0.895   0.279  0.00  0.00    +0.150 A 
ATOM     24  C   LIG    1       -4.520  -0.375   0.793  0.00  0.00    +0.000 A 
ATOM     25  C   LIG    1       -5.786  -0.925   0.745  0.00  0.00    +0.030 A 
ATOM     26  C   LIG    1       -6.827  -0.217   0.173  0.00  0.00    -0.010 A 
ATOM     27  C   LIG    1       -6.606   1.046  -0.346  0.00  0.00    -0.070 A 
ATOM     28  C   LIG    1       -7.744   1.813  -0.968  0.00  0.00    +0.090 C 
ATOM     29  C   LIG    1       -5.344   1.603  -0.295  0.00  0.00    -0.010 A 
ENDBRANCH  20  23
ENDBRANCH  17  19
ENDBRANCH  16  17
ENDBRANCH   1  16
TORSDOF 8
