REMARK  Name = ZINCrD00000752De.0
REMARK                            x       y       z     vdW  Elec       q    Type
REMARK                         _______ _______ _______ _____ _____    ______ ____
ROOT
ATOM      1  C   LIG    1       -3.309   3.383   5.692  0.00  0.00    +0.210 C 
ATOM      2  C   LIG    1       -2.415   2.389   4.999  0.00  0.00    +0.260 A 
ATOM      3  N   LIG    1       -2.067   2.437   3.737  0.00  0.00    -0.320 NA
ATOM      4  N   LIG    1       -1.236   1.334   3.496  0.00  0.00    -0.370 N 
ATOM      5  C   LIG    1       -0.581   0.866   2.391  0.00  0.00    +0.650 A 
ATOM      6  N   LIG    1        0.153  -0.217   2.408  0.00  0.00    -0.550 NA
ATOM      7  C   LIG    1        0.324  -0.950   3.535  0.00  0.00    +0.180 A 
ATOM      8  C   LIG    1       -0.316  -0.544   4.728  0.00  0.00    -0.120 A 
ATOM      9  C   LIG    1       -0.154  -1.290   5.894  0.00  0.00    +0.100 A 
ATOM     10  C   LIG    1        0.631  -2.422   5.875  0.00  0.00    +0.000 A 
ATOM     11  C   LIG    1        1.260  -2.824   4.704  0.00  0.00    +0.070 A 
ATOM     12  C   LIG    1        1.115  -2.102   3.541  0.00  0.00    +0.020 A 
ATOM     13  C   LIG    1       -1.139   0.669   4.689  0.00  0.00    +0.350 A 
ATOM     14  N   LIG    1       -1.858   1.326   5.574  0.00  0.00    -0.520 NA
ENDROOT
BRANCH   5  15
ATOM     15  N   LIG    1       -0.702   1.560   1.211  0.00  0.00    -0.690 N 
ATOM     16  H   LIG    1       -1.244   2.364   1.174  0.00  0.00    +0.420 HD
BRANCH  15  17
ATOM     17  C   LIG    1       -0.013   1.086   0.008  0.00  0.00    +0.260 C 
ATOM     18  C   LIG    1        1.424   1.618  -0.003  0.00  0.00    -0.000 C 
ATOM     19  C   LIG    1        2.111   1.181  -1.299  0.00  0.00    +0.230 C 
ATOM     20  O   LIG    1        1.364   1.661  -2.418  0.00  0.00    -0.370 OA
ATOM     21  C   LIG    1        0.028   1.159  -2.486  0.00  0.00    +0.220 C 
ATOM     22  C   LIG    1       -0.744   1.595  -1.238  0.00  0.00    +0.010 C 
BRANCH  21  23
ATOM     23  C   LIG    1       -0.653   1.707  -3.715  0.00  0.00    -0.040 A 
ATOM     24  C   LIG    1       -0.386   2.993  -4.160  0.00  0.00    -0.010 A 
ATOM     25  C   LIG    1       -1.025   3.459  -5.293  0.00  0.00    +0.260 A 
ATOM     26  N   LIG    1       -1.887   2.701  -5.941  0.00  0.00    -0.480 NA
ATOM     27  C   LIG    1       -2.170   1.476  -5.543  0.00  0.00    +0.260 A 
ATOM     28  C   LIG    1       -1.565   0.940  -4.422  0.00  0.00    -0.020 A 
ENDBRANCH  21  23
ENDBRANCH  15  17
ENDBRANCH   5  15
TORSDOF 3
