REMARK  Name = ZINCpe000027pH0D.0
REMARK                            x       y       z     vdW  Elec       q    Type
REMARK                         _______ _______ _______ _____ _____    ______ ____
ROOT
ATOM      1  N   LIG    1        1.169   2.345  -0.145  0.00  0.00    -0.590 N 
ATOM      2  C   LIG    1       -0.012   1.718  -0.080  0.00  0.00    +0.490 C 
ATOM      3  C   LIG    1       -0.123   0.224   0.045  0.00  0.00    +0.290 C 
ATOM      4  O   LIG    1        1.127  -0.384  -0.287  0.00  0.00    -0.360 OA
ATOM      5  C   LIG    1        2.237   0.209   0.397  0.00  0.00    +0.160 C 
ATOM      6  O   LIG    1       -1.028   2.378  -0.130  0.00  0.00    -0.530 OA
ATOM      7  C   LIG    1        2.442   1.627  -0.140  0.00  0.00    +0.320 C 
ENDROOT
BRANCH   7   8
ATOM      8  C   LIG    1        3.425   2.358   0.739  0.00  0.00    +0.170 A 
ATOM      9  N   LIG    1        3.192   2.784   1.950  0.00  0.00    -0.460 NA
ATOM     10  C   LIG    1        4.291   3.387   2.426  0.00  0.00    +0.140 A 
ATOM     11  C   LIG    1        5.241   3.333   1.473  0.00  0.00    +0.140 A 
ATOM     12  N   LIG    1        4.694   2.675   0.405  0.00  0.00    -0.450 N 
ATOM     13  C   LIG    1        5.360   2.375  -0.865  0.00  0.00    +0.330 C 
ENDBRANCH   7   8
BRANCH   1  15
ATOM     14  C   LIG    1        1.128   4.239  -1.692  0.00  0.00    +0.010 C 
ATOM     15  C   LIG    1        1.186   3.808  -0.225  0.00  0.00    +0.280 C 
ENDBRANCH   1  15
BRANCH   5  16
ATOM     16  C   LIG    1        3.497  -0.623   0.149  0.00  0.00    +0.320 C 
BRANCH  16  17
ATOM     17  N   LIG    1        3.289  -1.985   0.648  0.00  0.00    -0.710 N 
ATOM     18  H   LIG    1        2.445  -2.227   1.059  0.00  0.00    +0.410 HD
ATOM     19  C   LIG    1        4.271  -2.901   0.537  0.00  0.00    +0.640 C 
ATOM     20  O   LIG    1        5.330  -2.598   0.021  0.00  0.00    -0.520 OA
BRANCH  19  21
ATOM     21  C   LIG    1        4.068  -4.232   1.025  0.00  0.00    -0.230 C 
ATOM     22  C   LIG    1        3.901  -5.323   1.425  0.00  0.00    -0.050 C 
BRANCH  22  23
ATOM     23  C   LIG    1        3.692  -6.691   1.927  0.00  0.00    +0.030 C 
ATOM     24  C   LIG    1        2.508  -7.327   1.196  0.00  0.00    +0.050 C 
ATOM     25  C   LIG    1        3.399  -6.644   3.428  0.00  0.00    +0.050 C 
ATOM     26  C   LIG    1        4.952  -7.523   1.680  0.00  0.00    +0.050 C 
ENDBRANCH  22  23
ENDBRANCH  19  21
ENDBRANCH  16  17
ENDBRANCH   5  16
TORSDOF 6
