REMARK  Name = ZINCrH000004sqUM.0
REMARK                            x       y       z     vdW  Elec       q    Type
REMARK                         _______ _______ _______ _____ _____    ______ ____
ROOT
ATOM      1  N   LIG    1       -3.087   5.127   2.859  0.00  0.00    -1.100 NA
ATOM      2  H   LIG    1       -3.091   6.067   2.623  0.00  0.00    +0.430 HD
ENDROOT
BRANCH   1   3
ATOM      3  C   LIG    1       -1.941   4.555   3.571  0.00  0.00    +0.300 C 
ATOM      4  C   LIG    1       -0.898   5.665   3.811  0.00  0.00    +0.060 C 
ATOM      5  C   LIG    1       -1.623   6.927   4.197  0.00  0.00    +0.010 C 
ATOM      6  C   LIG    1       -1.731   7.097   5.725  0.00  0.00    +0.000 C 
ATOM      7  C   LIG    1       -2.071   5.781   6.450  0.00  0.00    +0.000 C 
ATOM      8  C   LIG    1       -3.118   4.979   5.726  0.00  0.00    +0.030 C 
ATOM      9  C   LIG    1       -2.408   3.958   4.813  0.00  0.00    +0.010 C 
BRANCH   3  13
ATOM     10  C   LIG    1        0.156   2.069  -0.237  0.00  0.00    +0.240 C 
ATOM     11  C   LIG    1       -0.437   2.442   1.098  0.00  0.00    +0.180 A 
ATOM     12  N   LIG    1       -0.895   3.619   1.447  0.00  0.00    -0.470 NA
ATOM     13  C   LIG    1       -1.322   3.480   2.715  0.00  0.00    +0.160 A 
ATOM     14  N   LIG    1       -1.099   2.250   3.068  0.00  0.00    -0.360 NA
ATOM     15  O   LIG    1       -0.591   1.636   2.153  0.00  0.00    +0.080 OA
ENDBRANCH   3  13
ENDBRANCH   1   3
BRANCH   1  16
ATOM     16  S   LIG    1       -4.375   4.166   2.458  0.00  0.00    +2.690 S 
ATOM     17  O   LIG    1       -3.831   2.952   1.961  0.00  0.00    -0.950 OA
ATOM     18  O   LIG    1       -5.266   4.982   1.710  0.00  0.00    -0.950 OA
BRANCH  16  19
ATOM     19  C   LIG    1       -5.210   3.761   3.956  0.00  0.00    -0.680 A 
ATOM     20  C   LIG    1       -6.081   4.667   4.531  0.00  0.00    +0.120 A 
ATOM     21  C   LIG    1       -6.729   4.343   5.706  0.00  0.00    -0.010 A 
ATOM     22  C   LIG    1       -6.513   3.114   6.315  0.00  0.00    -0.020 A 
ATOM     23  C   LIG    1       -7.241   2.832   7.603  0.00  0.00    +0.070 C 
ATOM     24  C   LIG    1       -7.244   1.334   7.902  0.00  0.00    +0.020 C 
ATOM     25  C   LIG    1       -5.804   0.817   7.802  0.00  0.00    +0.020 C 
ATOM     26  C   LIG    1       -5.380   0.853   6.335  0.00  0.00    +0.080 C 
ATOM     27  C   LIG    1       -5.649   2.209   5.739  0.00  0.00    -0.090 A 
ATOM     28  C   LIG    1       -5.001   2.536   4.555  0.00  0.00    +0.130 A 
ENDBRANCH  16  19
ENDBRANCH   1  16
TORSDOF 4
