REMARK  Name = ZINCrH000004pDf2.0
REMARK                            x       y       z     vdW  Elec       q    Type
REMARK                         _______ _______ _______ _____ _____    ______ ____
ROOT
ATOM      1  N   LIG    1        5.119   0.795  -1.020  0.00  0.00    -0.590 N 
ATOM      2  C   LIG    1        5.956   1.013  -2.053  0.00  0.00    +0.540 C 
ATOM      3  O   LIG    1        6.510   2.086  -2.168  0.00  0.00    -0.520 OA
ATOM      4  C   LIG    1        4.449  -0.501  -0.880  0.00  0.00    +0.300 C 
ENDROOT
BRANCH   1   6
ATOM      5  C   LIG    1        5.302   1.365   1.352  0.00  0.00    +0.070 C 
ATOM      6  C   LIG    1        4.879   1.853  -0.035  0.00  0.00    +0.350 C 
BRANCH   6   7
ATOM      7  C   LIG    1        3.413   2.201  -0.019  0.00  0.00    +0.070 A 
ATOM      8  N   LIG    1        2.468   1.338  -0.014  0.00  0.00    -0.450 NA
ATOM      9  C   LIG    1        1.201   1.792   0.000  0.00  0.00    +0.080 A 
ATOM     10  C   LIG    1       -0.013   1.076   0.008  0.00  0.00    +0.080 A 
ATOM     11  C   LIG    1       -1.204   1.736   0.017  0.00  0.00    +0.030 A 
ATOM     12  C   LIG    1       -1.247   3.123   0.030  0.00  0.00    +0.040 A 
ATOM     13  C   LIG    1       -0.077   3.849   0.022  0.00  0.00    +0.060 A 
ATOM     14  C   LIG    1        1.151   3.191   0.008  0.00  0.00    -0.180 A 
ATOM     15  S   LIG    1        2.804   3.795  -0.005  0.00  0.00    +0.120 S 
ENDBRANCH   6   7
ENDBRANCH   1   6
BRANCH   2  16
ATOM     16  C   LIG    1        6.203  -0.075  -3.066  0.00  0.00    +0.110 C 
BRANCH  16  17
ATOM     17  S   LIG    1        7.364   0.520  -4.320  0.00  0.00    +0.110 S 
BRANCH  17  18
ATOM     18  C   LIG    1        7.468  -0.911  -5.344  0.00  0.00    +0.190 A 
ATOM     19  N   LIG    1        6.841  -2.052  -5.158  0.00  0.00    -0.340 NA
ATOM     20  N   LIG    1        7.136  -2.884  -6.091  0.00  0.00    -0.030 NA
ATOM     21  N   LIG    1        7.966  -2.351  -6.921  0.00  0.00    -0.070 NA
ATOM     22  N   LIG    1        8.214  -1.044  -6.466  0.00  0.00    -0.350 N 
BRANCH  22  23
ATOM     23  C   LIG    1        9.092  -0.042  -7.075  0.00  0.00    +0.260 C 
ATOM     24  C   LIG    1        8.651   0.235  -8.527  0.00  0.00    +0.030 C 
ATOM     25  C   LIG    1        9.981   0.438  -9.295  0.00  0.00    +0.040 C 
ATOM     26  C   LIG    1       10.917  -0.609  -8.641  0.00  0.00    +0.030 C 
ATOM     27  C   LIG    1       10.533  -0.578  -7.147  0.00  0.00    +0.040 C 
ENDBRANCH  22  23
ENDBRANCH  17  18
ENDBRANCH  16  17
ENDBRANCH   2  16
TORSDOF 6
