REMARK  Name = ZINCrH00000No4xx.0
REMARK                            x       y       z     vdW  Elec       q    Type
REMARK                         _______ _______ _______ _____ _____    ______ ____
ROOT
ATOM      1  C   LIG    1        9.632   7.132  -0.264  0.00  0.00    -0.220 A 
ATOM      2  C   LIG    1        9.878   8.471  -0.260  0.00  0.00    +0.120 A 
ATOM      3  O   LIG    1        8.725   9.144  -0.181  0.00  0.00    -0.170 OA
ATOM      4  C   LIG    1        7.668   8.306  -0.130  0.00  0.00    +0.060 A 
ATOM      5  C   LIG    1        6.297   8.513  -0.045  0.00  0.00    +0.070 A 
ATOM      6  C   LIG    1        5.437   7.436  -0.009  0.00  0.00    +0.060 A 
ATOM      7  C   LIG    1        5.929   6.136  -0.057  0.00  0.00    +0.090 A 
ATOM      8  C   LIG    1        7.292   5.912  -0.136  0.00  0.00    +0.070 A 
ATOM      9  C   LIG    1       11.245   9.101  -0.333  0.00  0.00    +0.190 C 
ATOM     10  C   LIG    1        8.164   6.995  -0.178  0.00  0.00    -0.080 A 
ENDROOT
BRANCH   1  11
ATOM     11  C   LIG    1       10.621   6.048  -0.339  0.00  0.00    +0.550 C 
ATOM     12  O   LIG    1       11.093   5.585   0.681  0.00  0.00    -0.490 OA
BRANCH  11  13
ATOM     13  O   LIG    1       11.005   5.568  -1.538  0.00  0.00    -0.340 OA
BRANCH  13  14
ATOM     14  C   LIG    1       11.986   4.498  -1.536  0.00  0.00    +0.240 C 
BRANCH  14  15
ATOM     15  C   LIG    1       12.295   4.087  -2.977  0.00  0.00    +0.200 C 
BRANCH  15  17
ATOM     16  C   LIG    1       13.257   4.893  -5.019  0.00  0.00    +0.200 C 
ATOM     17  O   LIG    1       12.924   5.174  -3.658  0.00  0.00    -0.390 OA
ENDBRANCH  15  17
ENDBRANCH  14  15
ENDBRANCH  13  14
ENDBRANCH  11  13
ENDBRANCH   1  11
BRANCH   7  18
ATOM     18  O   LIG    1        5.069   5.083  -0.020  0.00  0.00    -0.290 OA
BRANCH  18  19
ATOM     19  C   LIG    1        4.390   4.780  -1.147  0.00  0.00    +0.500 C 
ATOM     20  O   LIG    1        4.489   5.494  -2.127  0.00  0.00    -0.490 OA
BRANCH  19  21
ATOM     21  C   LIG    1        3.565   3.633  -1.187  0.00  0.00    -0.060 C 
ATOM     22  C   LIG    1        2.883   3.328  -2.320  0.00  0.00    +0.210 C 
BRANCH  22  23
ATOM     23  C   LIG    1        2.057   2.180  -2.361  0.00  0.00    -0.030 A 
ATOM     24  C   LIG    1        1.310   1.753  -3.440  0.00  0.00    +0.020 A 
ATOM     25  C   LIG    1        0.657   0.579  -3.034  0.00  0.00    -0.060 A 
ATOM     26  C   LIG    1        1.015   0.345  -1.752  0.00  0.00    +0.210 A 
ATOM     27  O   LIG    1        1.858   1.307  -1.351  0.00  0.00    -0.160 OA
ENDBRANCH  22  23
ENDBRANCH  19  21
ENDBRANCH  18  19
ENDBRANCH   7  18
TORSDOF 9
