REMARK  Name = ZINCrD00000hQ7c0.0
REMARK                            x       y       z     vdW  Elec       q    Type
REMARK                         _______ _______ _______ _____ _____    ______ ____
ROOT
ATOM      1  C   LIG    1        6.256   5.664  -0.018  0.00  0.00    +0.150 C 
ATOM      2  C   LIG    1        5.275   4.522  -0.078  0.00  0.00    -0.210 A 
ATOM      3  C   LIG    1        3.987   4.658  -0.338  0.00  0.00    -0.030 A 
ATOM      4  C   LIG    1        3.234   3.421  -0.345  0.00  0.00    -0.230 A 
ATOM      5  C   LIG    1        4.037   2.315  -0.070  0.00  0.00    +0.090 A 
ATOM      6  N   LIG    1        3.491   1.090  -0.039  0.00  0.00    -0.500 NA
ATOM      7  C   LIG    1        2.202   0.883  -0.260  0.00  0.00    +0.430 A 
ATOM      8  C   LIG    1        1.467  -0.388  -0.259  0.00  0.00    -0.110 C 
ATOM      9  C   LIG    1        0.023  -0.071  -0.567  0.00  0.00    +0.120 C 
ATOM     10  C   LIG    1       -0.011   1.453  -0.742  0.00  0.00    +0.300 C 
ATOM     11  C   LIG    1        1.986  -1.611  -0.025  0.00  0.00    +0.150 C 
ATOM     12  N   LIG    1        1.363   1.929  -0.534  0.00  0.00    -0.540 N 
ATOM     13  C   LIG    1        1.845   3.192  -0.583  0.00  0.00    +0.570 A 
ATOM     14  O   LIG    1        1.101   4.126  -0.827  0.00  0.00    -0.520 OA
ATOM     15  C   LIG    1        3.351   5.998  -0.606  0.00  0.00    +0.120 C 
ATOM     16  S   LIG    1        5.697   2.841   0.187  0.00  0.00    +0.200 S 
ENDROOT
BRANCH  11  17
ATOM     17  C   LIG    1        1.096  -2.777   0.089  0.00  0.00    -0.060 A 
ATOM     18  C   LIG    1       -0.147  -2.652   0.717  0.00  0.00    +0.050 A 
ATOM     19  C   LIG    1       -0.983  -3.744   0.820  0.00  0.00    +0.040 A 
ATOM     20  C   LIG    1       -0.589  -4.971   0.310  0.00  0.00    +0.090 A 
ATOM     21  O   LIG    1       -1.405  -6.054   0.411  0.00  0.00    -0.300 OA
ATOM     22  C   LIG    1       -1.348  -7.004  -0.656  0.00  0.00    +0.300 C 
ATOM     23  C   LIG    1        0.091  -7.310  -0.985  0.00  0.00    +0.490 C 
ATOM     24  N   LIG    1        1.033  -6.357  -0.822  0.00  0.00    -0.660 N 
ATOM     25  H   LIG    1        1.958  -6.534  -1.053  0.00  0.00    +0.420 HD
ATOM     26  O   LIG    1        0.401  -8.409  -1.395  0.00  0.00    -0.500 OA
ATOM     27  C   LIG    1        0.654  -5.106  -0.314  0.00  0.00    +0.100 A 
ATOM     28  C   LIG    1        1.495  -4.017  -0.425  0.00  0.00    +0.040 A 
ENDBRANCH  11  17
TORSDOF 1
