REMARK  Name = ZINCvU000000083e.0
REMARK                            x       y       z     vdW  Elec       q    Type
REMARK                         _______ _______ _______ _____ _____    ______ ____
ROOT
ATOM      1  C   LIG    1        1.740   1.777  -0.005  0.00  0.00    +0.130 A 
ATOM      2  N   LIG    1        2.178   0.551  -0.016  0.00  0.00    -0.460 NA
ATOM      3  C   LIG    1        1.277  -0.405  -0.012  0.00  0.00    +0.060 A 
ATOM      4  C   LIG    1        0.002  -0.004   0.002  0.00  0.00    -0.030 A 
ATOM      5  S   LIG    1       -0.022   1.758   0.012  0.00  0.00    +0.100 S 
ENDROOT
BRANCH   1   9
ATOM      6  C   LIG    1        4.175   5.263  -0.011  0.00  0.00    +0.130 A 
ATOM      7  C   LIG    1        4.762   4.007  -0.024  0.00  0.00    -0.040 A 
ATOM      8  C   LIG    1        3.975   2.874  -0.021  0.00  0.00    +0.080 A 
ATOM      9  C   LIG    1        2.584   2.990  -0.007  0.00  0.00    -0.030 A 
ATOM     10  C   LIG    1        1.993   4.255  -0.000  0.00  0.00    -0.010 A 
ATOM     11  C   LIG    1        2.787   5.386   0.003  0.00  0.00    +0.100 A 
BRANCH  11  12
ATOM     12  O   LIG    1        2.214   6.620   0.014  0.00  0.00    -0.300 OA
ATOM     13  C   LIG    1        0.786   6.671   0.028  0.00  0.00    +0.240 C 
ENDBRANCH  11  12
BRANCH   6  14
ATOM     14  O   LIG    1        4.954   6.377  -0.013  0.00  0.00    -0.300 OA
BRANCH  14  16
ATOM     15  C   LIG    1        7.075   7.535  -0.028  0.00  0.00    +0.070 C 
ATOM     16  C   LIG    1        6.369   6.178  -0.028  0.00  0.00    +0.170 C 
ENDBRANCH  14  16
ENDBRANCH   6  14
ENDBRANCH   1   9
BRANCH   3  17
ATOM     17  C   LIG    1        1.657  -1.863  -0.023  0.00  0.00    +0.330 C 
BRANCH  17  18
ATOM     18  O   LIG    1        0.455  -2.677  -0.016  0.00  0.00    -0.360 OA
BRANCH  18  19
ATOM     19  C   LIG    1        0.621  -4.009  -0.024  0.00  0.00    +0.470 C 
ATOM     20  O   LIG    1        1.734  -4.479  -0.037  0.00  0.00    -0.490 OA
BRANCH  19  21
ATOM     21  C   LIG    1       -0.582  -4.918  -0.017  0.00  0.00    +0.170 C 
BRANCH  21  22
ATOM     22  C   LIG    1       -0.125  -6.354  -0.029  0.00  0.00    -0.080 A 
ATOM     23  C   LIG    1        0.067  -7.008  -1.231  0.00  0.00    +0.060 A 
ATOM     24  C   LIG    1        0.489  -8.325  -1.241  0.00  0.00    +0.020 A 
ATOM     25  C   LIG    1        0.711  -8.989  -0.050  0.00  0.00    +0.080 A 
ATOM     26  C   LIG    1        0.514  -8.336   1.153  0.00  0.00    -0.180 A 
ATOM     27  C   LIG    1        0.095  -7.019   1.163  0.00  0.00    +0.090 A 
BRANCH  26  28
ATOM     28  C   LIG    1        0.755  -9.061   2.452  0.00  0.00    +0.510 C 
ATOM     29  F   LIG    1        1.164  -8.145   3.427  0.00  0.00    -0.180 F 
ATOM     30  F   LIG    1        1.752 -10.025   2.270  0.00  0.00    -0.180 F 
ATOM     31  F   LIG    1       -0.428  -9.684   2.865  0.00  0.00    -0.180 F 
ENDBRANCH  26  28
ENDBRANCH  21  22
ENDBRANCH  19  21
ENDBRANCH  18  19
ENDBRANCH  17  18
ENDBRANCH   3  17
TORSDOF 10
