REMARK  Name = ZINCrH00000No4t2.0
REMARK                            x       y       z     vdW  Elec       q    Type
REMARK                         _______ _______ _______ _____ _____    ______ ____
ROOT
ATOM      1  N   LIG    1        0.277  -0.178  -0.051  0.00  0.00    -0.670 N 
ATOM      2  H   LIG    1        1.051  -0.718   0.172  0.00  0.00    +0.420 HD
ATOM      3  C   LIG    1       -0.953  -0.729  -0.046  0.00  0.00    +0.560 C 
ATOM      4  O   LIG    1       -1.913  -0.077  -0.412  0.00  0.00    -0.510 OA
ENDROOT
BRANCH   1   9
ATOM      5  C   LIG    1       -0.388   3.424  -0.367  0.00  0.00    -0.660 A 
ATOM      6  C   LIG    1        0.755   3.844  -1.024  0.00  0.00    +0.120 A 
ATOM      7  C   LIG    1        1.739   2.932  -1.358  0.00  0.00    +0.020 A 
ATOM      8  C   LIG    1        1.586   1.598  -1.032  0.00  0.00    +0.050 A 
ATOM      9  C   LIG    1        0.437   1.172  -0.378  0.00  0.00    +0.130 A 
ATOM     10  C   LIG    1       -0.549   2.091  -0.043  0.00  0.00    +0.130 A 
BRANCH   5  11
ATOM     11  S   LIG    1       -1.638   4.590   0.057  0.00  0.00    +2.700 S 
ATOM     12  O   LIG    1       -2.847   3.854   0.186  0.00  0.00    -0.950 OA
ATOM     13  O   LIG    1       -1.486   5.684  -0.838  0.00  0.00    -0.960 OA
BRANCH  11  14
ATOM     14  N   LIG    1       -1.279   5.167   1.567  0.00  0.00    -1.250 NA
ATOM     15  H   LIG    1       -0.812   4.603   2.203  0.00  0.00    +0.420 HD
ATOM     16  H   LIG    1       -1.534   6.070   1.815  0.00  0.00    +0.420 HD
ENDBRANCH  11  14
ENDBRANCH   5  11
ENDBRANCH   1   9
BRANCH   3  17
ATOM     17  C   LIG    1       -1.135  -2.120   0.401  0.00  0.00    -0.120 C 
ATOM     18  C   LIG    1       -2.379  -2.677   0.406  0.00  0.00    +0.170 C 
BRANCH  18  19
ATOM     19  C   LIG    1       -2.543  -4.104   0.705  0.00  0.00    -0.100 A 
ATOM     20  C   LIG    1       -1.574  -5.026   0.289  0.00  0.00    +0.080 A 
ATOM     21  C   LIG    1       -1.732  -6.364   0.579  0.00  0.00    -0.020 A 
ATOM     22  C   LIG    1       -2.853  -6.800   1.271  0.00  0.00    +0.120 A 
ATOM     23  C   LIG    1       -3.818  -5.893   1.681  0.00  0.00    -0.020 A 
ATOM     24  F   LIG    1       -3.004  -8.114   1.546  0.00  0.00    -0.140 F 
ATOM     25  C   LIG    1       -3.672  -4.552   1.404  0.00  0.00    +0.080 A 
ENDBRANCH  18  19
BRANCH  17  26
ATOM     26  C   LIG    1        0.028  -2.910   0.844  0.00  0.00    -0.160 A 
ATOM     27  C   LIG    1        1.066  -3.276   0.062  0.00  0.00    +0.000 A 
ATOM     28  C   LIG    1        2.038  -4.014   0.703  0.00  0.00    +0.010 A 
ATOM     29  C   LIG    1        1.805  -4.255   1.997  0.00  0.00    -0.040 A 
ATOM     30  S   LIG    1        0.283  -3.517   2.475  0.00  0.00    +0.140 S 
ENDBRANCH  17  26
ENDBRANCH   3  17
TORSDOF 6
