REMARK  Name = ZINCqH0000005gkO.0
REMARK                            x       y       z     vdW  Elec       q    Type
REMARK                         _______ _______ _______ _____ _____    ______ ____
ROOT
ATOM      1  C   LIG    1       -0.753   1.593  -1.232  0.00  0.00    +0.070 C 
ENDROOT
BRANCH   1   4
ATOM      2  C   LIG    1       -1.728   2.259  -3.808  0.00  0.00    +0.280 C 
ATOM      3  N   LIG    1       -0.524   1.433  -3.689  0.00  0.00    -0.610 N 
ATOM      4  C   LIG    1       -0.047   1.107  -2.471  0.00  0.00    +0.520 C 
ATOM      5  O   LIG    1        0.949   0.422  -2.373  0.00  0.00    -0.540 OA
BRANCH   3   6
ATOM      6  C   LIG    1        0.162   0.960  -4.895  0.00  0.00    +0.340 C 
BRANCH   6   7
ATOM      7  C   LIG    1       -0.407  -0.373  -5.306  0.00  0.00    -0.110 A 
ATOM      8  C   LIG    1        0.147  -1.542  -4.819  0.00  0.00    +0.060 A 
ATOM      9  C   LIG    1       -0.377  -2.764  -5.193  0.00  0.00    +0.020 A 
ATOM     10  C   LIG    1       -1.451  -2.819  -6.063  0.00  0.00    -0.030 A 
ATOM     11  C   LIG    1       -2.003  -1.649  -6.555  0.00  0.00    +0.020 A 
ATOM     12 CL   LIG    1       -2.106  -4.355  -6.539  0.00  0.00    -0.070 Cl
ATOM     13  C   LIG    1       -1.481  -0.427  -6.176  0.00  0.00    +0.040 A 
ENDBRANCH   6   7
ENDBRANCH   3   6
ENDBRANCH   1   4
BRANCH   1  14
ATOM     14  C   LIG    1       -0.013   1.086   0.008  0.00  0.00    +0.070 C 
BRANCH  14  15
ATOM     15  C   LIG    1       -0.718   1.572   1.248  0.00  0.00    +0.400 C 
ATOM     16  O   LIG    1       -1.715   2.256   1.150  0.00  0.00    -0.450 OA
BRANCH  15  17
ATOM     17  C   LIG    1       -0.199   1.217   2.575  0.00  0.00    -0.170 A 
ATOM     18  C   LIG    1        0.948   0.422   2.691  0.00  0.00    +0.090 A 
ATOM     19  C   LIG    1        1.433   0.095   3.937  0.00  0.00    +0.010 A 
ATOM     20  C   LIG    1        0.783   0.541   5.083  0.00  0.00    +0.090 A 
ATOM     21  O   LIG    1        1.277   0.197   6.302  0.00  0.00    -0.300 OA
ATOM     22  C   LIG    1        0.826   0.968   7.420  0.00  0.00    +0.230 C 
ATOM     23  C   LIG    1       -0.699   1.115   7.319  0.00  0.00    +0.230 C 
ATOM     24  O   LIG    1       -1.005   1.778   6.088  0.00  0.00    -0.300 OA
ATOM     25  C   LIG    1       -0.361   1.330   4.975  0.00  0.00    +0.040 A 
ATOM     26  C   LIG    1       -0.852   1.667   3.729  0.00  0.00    +0.100 A 
ENDBRANCH  15  17
ENDBRANCH  14  15
ENDBRANCH   1  14
TORSDOF 6
