REMARK  Name = ZINCvU00000003YV.0
REMARK                            x       y       z     vdW  Elec       q    Type
REMARK                         _______ _______ _______ _____ _____    ______ ____
ROOT
ATOM      1  C   LIG    1        0.002  -0.004   0.002  0.00  0.00    +0.520 C 
ATOM      2  N   LIG    1        0.585  -0.664  -1.018  0.00  0.00    -0.610 N 
ATOM      3  H   LIG    1        0.992  -0.170  -1.747  0.00  0.00    +0.430 HD
ATOM      4  O   LIG    1       -0.506  -0.622   0.913  0.00  0.00    -0.490 OA
ENDROOT
BRANCH   2   5
ATOM      5  C   LIG    1        0.604  -2.054  -1.026  0.00  0.00    +0.270 A 
ATOM      6  N   LIG    1        1.134  -2.791  -1.951  0.00  0.00    -0.490 NA
ATOM      7  C   LIG    1        1.058  -4.105  -1.792  0.00  0.00    +0.130 A 
ATOM      8  C   LIG    1        0.431  -4.514  -0.674  0.00  0.00    -0.110 A 
ATOM      9  S   LIG    1       -0.082  -3.088   0.224  0.00  0.00    +0.210 S 
BRANCH   7  10
ATOM     10  C   LIG    1        1.625  -5.057  -2.777  0.00  0.00    -0.030 A 
ATOM     11  C   LIG    1        1.429  -6.428  -2.618  0.00  0.00    +0.020 A 
ATOM     12  C   LIG    1        1.959  -7.309  -3.538  0.00  0.00    +0.010 A 
ATOM     13  C   LIG    1        2.683  -6.835  -4.617  0.00  0.00    -0.080 A 
ATOM     14  C   LIG    1        2.880  -5.475  -4.780  0.00  0.00    -0.090 A 
ATOM     15  C   LIG    1        3.670  -4.966  -5.958  0.00  0.00    +0.090 C 
ATOM     16  C   LIG    1        3.258  -7.803  -5.619  0.00  0.00    +0.090 C 
ATOM     17  C   LIG    1        2.351  -4.584  -3.869  0.00  0.00    +0.050 A 
ENDBRANCH   7  10
ENDBRANCH   2   5
BRANCH   1  18
ATOM     18  C   LIG    1       -0.018   1.503   0.010  0.00  0.00    +0.270 C 
BRANCH  18  19
ATOM     19  N   LIG    1       -0.704   1.975   1.216  0.00  0.00    -0.710 N 
ATOM     20  H   LIG    1       -1.355   1.408   1.657  0.00  0.00    +0.410 HD
ATOM     21  C   LIG    1       -0.430   3.198   1.711  0.00  0.00    +0.570 C 
ATOM     22  O   LIG    1        0.386   3.909   1.158  0.00  0.00    -0.530 OA
BRANCH  21  23
ATOM     23  C   LIG    1       -1.122   3.675   2.928  0.00  0.00    -0.140 A 
ATOM     24  C   LIG    1       -2.064   2.864   3.562  0.00  0.00    +0.040 A 
ATOM     25  C   LIG    1       -2.703   3.313   4.699  0.00  0.00    +0.010 A 
ATOM     26  C   LIG    1       -2.419   4.569   5.205  0.00  0.00    +0.040 A 
ATOM     27  C   LIG    1       -1.490   5.380   4.578  0.00  0.00    -0.090 A 
ATOM     28  C   LIG    1       -1.188   6.747   5.136  0.00  0.00    +0.090 C 
ATOM     29  C   LIG    1       -0.841   4.941   3.443  0.00  0.00    +0.080 A 
ENDBRANCH  21  23
ENDBRANCH  18  19
BRANCH  18  30
ATOM     30  C   LIG    1       -0.758   2.010  -1.229  0.00  0.00    +0.060 C 
BRANCH  30  31
ATOM     31  C   LIG    1       -0.672   3.536  -1.286  0.00  0.00    +0.100 C 
BRANCH  31  33
ATOM     32  C   LIG    1       -1.338   5.936  -2.650  0.00  0.00    +0.140 C 
ATOM     33  S   LIG    1       -1.549   4.137  -2.756  0.00  0.00    -0.270 S 
ENDBRANCH  31  33
ENDBRANCH  30  31
ENDBRANCH  18  30
ENDBRANCH   1  18
TORSDOF 8
