REMARK  Name = ZINCrD0000074Zgd.0
REMARK                            x       y       z     vdW  Elec       q    Type
REMARK                         _______ _______ _______ _____ _____    ______ ____
ROOT
ATOM      1  C   LIG    1       -1.214  -0.894   0.008  0.00  0.00    +0.210 C 
ATOM      2  C   LIG    1        0.002  -0.004   0.002  0.00  0.00    +0.250 A 
ATOM      3  N   LIG    1       -0.016   1.302   0.009  0.00  0.00    -0.300 NA
ATOM      4  N   LIG    1        1.322   1.731  -0.001  0.00  0.00    -0.360 N 
ATOM      5  C   LIG    1        2.079   0.610  -0.015  0.00  0.00    +0.510 A 
ATOM      6  N   LIG    1        1.267  -0.425  -0.012  0.00  0.00    -0.510 NA
ENDROOT
BRANCH   4   7
ATOM      7  C   LIG    1        1.779   3.053   0.001  0.00  0.00    +0.180 A 
ATOM      8  C   LIG    1        2.942   3.383   0.687  0.00  0.00    -0.010 A 
ATOM      9  C   LIG    1        3.399   4.682   0.687  0.00  0.00    +0.110 A 
ATOM     10  C   LIG    1        2.685   5.671   0.006  0.00  0.00    -0.020 A 
ATOM     11  C   LIG    1        1.514   5.337  -0.679  0.00  0.00    +0.110 A 
ATOM     12  C   LIG    1        1.066   4.034  -0.679  0.00  0.00    +0.050 A 
BRANCH  10  13
ATOM     13  C   LIG    1        3.154   7.025   0.008  0.00  0.00    +0.250 C 
ATOM     14  N   LIG    1        3.525   8.098   0.009  0.00  0.00    -0.400 NA
ENDBRANCH  10  13
ENDBRANCH   4   7
BRANCH   5  15
ATOM     15  N   LIG    1        3.465   0.560  -0.028  0.00  0.00    -0.640 N 
ATOM     16  H   LIG    1        3.979   1.383  -0.029  0.00  0.00    +0.420 HD
ATOM     17  C   LIG    1        4.096  -0.630  -0.041  0.00  0.00    +0.560 C 
ATOM     18  O   LIG    1        3.451  -1.661  -0.040  0.00  0.00    -0.450 OA
BRANCH  17  19
ATOM     19  C   LIG    1        5.574  -0.683  -0.056  0.00  0.00    -0.100 A 
ATOM     20  C   LIG    1        6.316   0.499  -0.063  0.00  0.00    +0.020 A 
ATOM     21  C   LIG    1        7.696   0.446  -0.071  0.00  0.00    +0.060 A 
ATOM     22  C   LIG    1        8.345  -0.775  -0.084  0.00  0.00    -0.020 A 
ATOM     23  C   LIG    1        7.614  -1.956  -0.082  0.00  0.00    +0.100 A 
ATOM     24  C   LIG    1        6.230  -1.914  -0.069  0.00  0.00    +0.080 A 
BRANCH  23  25
ATOM     25  O   LIG    1        8.258  -3.152  -0.095  0.00  0.00    -0.320 OA
BRANCH  25  26
ATOM     26  C   LIG    1        9.686  -3.121  -0.109  0.00  0.00    +0.600 C 
ATOM     27  F   LIG    1       10.149  -2.457   1.033  0.00  0.00    -0.200 F 
ATOM     28  F   LIG    1       10.127  -2.445  -1.252  0.00  0.00    -0.200 F 
ENDBRANCH  25  26
ENDBRANCH  23  25
ENDBRANCH  17  19
ENDBRANCH   5  15
TORSDOF 6
