REMARK  Name = ZINCqH0000001Cmn.0
REMARK                            x       y       z     vdW  Elec       q    Type
REMARK                         _______ _______ _______ _____ _____    ______ ____
ROOT
ATOM      1  C   LIG    1       -3.435   2.909  -1.146  0.00  0.00    +0.460 C 
ATOM      2  O   LIG    1       -2.827   3.142  -2.163  0.00  0.00    -0.480 OA
ENDROOT
BRANCH   1   3
ATOM      3  O   LIG    1       -2.852   3.113   0.046  0.00  0.00    -0.340 OA
BRANCH   3  10
ATOM      4  C   LIG    1       -0.750   3.109   1.275  0.00  0.00    +0.010 C 
ATOM      5  C   LIG    1       -1.466   3.603   2.534  0.00  0.00    +0.020 C 
ATOM      6  C   LIG    1       -1.486   5.132   2.542  0.00  0.00    +0.010 C 
ATOM      7  C   LIG    1       -2.227   5.639   1.303  0.00  0.00    -0.020 C 
ATOM      8  C   LIG    1       -1.510   5.146   0.044  0.00  0.00    +0.020 C 
ATOM      9  C   LIG    1       -2.247   7.169   1.311  0.00  0.00    +0.010 C 
ATOM     10  C   LIG    1       -1.490   3.616   0.036  0.00  0.00    +0.190 C 
BRANCH   4  12
ATOM     11  C   LIG    1       -0.013   1.086   0.008  0.00  0.00    +0.020 C 
ATOM     12  C   LIG    1       -0.729   1.579   1.267  0.00  0.00    -0.010 C 
ATOM     13  C   LIG    1        0.011   1.072   2.506  0.00  0.00    +0.020 C 
ENDBRANCH   4  12
ENDBRANCH   3  10
ENDBRANCH   1   3
BRANCH   1  14
ATOM     14  C   LIG    1       -4.848   2.388  -1.214  0.00  0.00    +0.320 C 
BRANCH  14  15
ATOM     15  O   LIG    1       -5.247   2.253  -2.603  0.00  0.00    -0.330 OA
BRANCH  15  16
ATOM     16  C   LIG    1       -6.487   1.798  -2.839  0.00  0.00    +0.470 C 
ATOM     17  O   LIG    1       -7.215   1.521  -1.915  0.00  0.00    -0.470 OA
BRANCH  16  18
ATOM     18  C   LIG    1       -6.972   1.632  -4.256  0.00  0.00    +0.290 C 
BRANCH  18  19
ATOM     19  O   LIG    1       -8.313   1.137  -4.246  0.00  0.00    -0.290 OA
BRANCH  19  20
ATOM     20  C   LIG    1       -8.903   0.930  -5.452  0.00  0.00    +0.160 A 
ATOM     21  C   LIG    1      -10.204   0.451  -5.516  0.00  0.00    -0.010 A 
ATOM     22  C   LIG    1      -10.803   0.241  -6.743  0.00  0.00    +0.090 A 
ATOM     23  C   LIG    1      -10.109   0.508  -7.908  0.00  0.00    -0.050 A 
ATOM     24  C   LIG    1       -8.810   0.987  -7.848  0.00  0.00    +0.140 A 
ATOM     25  F   LIG    1       -8.133   1.247  -8.988  0.00  0.00    -0.130 F 
ATOM     26  C   LIG    1       -8.209   1.203  -6.622  0.00  0.00    -0.110 A 
ENDBRANCH  19  20
ENDBRANCH  18  19
ENDBRANCH  16  18
ENDBRANCH  15  16
ENDBRANCH  14  15
ENDBRANCH   1  14
TORSDOF 9
