REMARK  Name = ZINCc70000006l9p.0
REMARK                            x       y       z     vdW  Elec       q    Type
REMARK                         _______ _______ _______ _____ _____    ______ ____
ROOT
ATOM      1  C   LIG    1       -0.013   1.086   0.008  0.00  0.00    +0.130 C 
ATOM      2  C   LIG    1       -0.718   1.572   1.248  0.00  0.00    +0.090 A 
ATOM      3  C   LIG    1       -0.014   1.811   2.416  0.00  0.00    -0.060 A 
ATOM      4  C   LIG    1       -0.696   2.257   3.536  0.00  0.00    +0.370 A 
ATOM      5  N   LIG    1       -2.001   2.454   3.496  0.00  0.00    -0.530 NA
ATOM      6  C   LIG    1       -2.702   2.235   2.400  0.00  0.00    +0.440 A 
ATOM      7  F   LIG    1       -0.019   2.495   4.681  0.00  0.00    -0.100 F 
ATOM      8  C   LIG    1       -2.087   1.795   1.244  0.00  0.00    -0.760 A 
ENDROOT
BRANCH   8   9
ATOM      9  S   LIG    1       -3.032   1.515  -0.216  0.00  0.00    +2.720 S 
ATOM     10  O   LIG    1       -4.373   1.866   0.099  0.00  0.00    -0.950 OA
ATOM     11  O   LIG    1       -2.657   0.231  -0.697  0.00  0.00    -0.950 OA
BRANCH   9  12
ATOM     12  N   LIG    1       -2.518   2.607  -1.350  0.00  0.00    -1.250 NA
ATOM     13  H   LIG    1       -2.177   3.471  -1.072  0.00  0.00    +0.420 HD
ATOM     14  H   LIG    1       -2.557   2.382  -2.293  0.00  0.00    +0.420 HD
ENDBRANCH   9  12
ENDBRANCH   8   9
TORSDOF 2
