REMARK  Name = ZINCpe00000bzag6.0
REMARK                            x       y       z     vdW  Elec       q    Type
REMARK                         _______ _______ _______ _____ _____    ______ ____
ROOT
ATOM      1  C   LIG    1        2.764  11.087  -3.075  0.00  0.00    +0.620 C 
ATOM      2  N   LIG    1        3.243   9.841  -3.258  0.00  0.00    -0.610 N 
ATOM      3  C   LIG    1        2.893   8.661  -2.453  0.00  0.00    +0.270 C 
ATOM      4  C   LIG    1        3.661   7.459  -3.042  0.00  0.00    -0.030 C 
ATOM      5  C   LIG    1        3.961   7.917  -4.494  0.00  0.00    +0.050 C 
ATOM      6  C   LIG    1        4.206   9.434  -4.297  0.00  0.00    +0.220 C 
ATOM      7  C   LIG    1        3.937  10.193  -5.598  0.00  0.00    +0.040 C 
ATOM      8  O   LIG    1        3.125  11.990  -3.804  0.00  0.00    -0.530 OA
ENDROOT
BRANCH   1  12
ATOM      9  N   LIG    1        0.507  11.052  -0.319  0.00  0.00    -0.280 N 
ATOM     10  C   LIG    1        0.403  12.366  -0.615  0.00  0.00    +0.160 A 
ATOM     11  C   LIG    1        1.215  12.604  -1.671  0.00  0.00    -0.020 A 
ATOM     12  C   LIG    1        1.799  11.355  -1.989  0.00  0.00    -0.020 A 
ATOM     13  N   LIG    1        1.323  10.478  -1.128  0.00  0.00    -0.260 NA
BRANCH   9  15
ATOM     14  C   LIG    1       -0.993   9.193   0.204  0.00  0.00    +0.040 C 
ATOM     15  C   LIG    1       -0.208  10.379   0.768  0.00  0.00    +0.310 C 
ENDBRANCH   9  15
ENDBRANCH   1  12
BRANCH   4  16
ATOM     16  C   LIG    1        2.785   6.204  -3.041  0.00  0.00    +0.270 C 
BRANCH  16  17
ATOM     17  N   LIG    1        2.519   5.797  -1.659  0.00  0.00    -0.730 N 
ATOM     18  H   LIG    1        2.886   6.310  -0.922  0.00  0.00    +0.400 HD
ATOM     19  C   LIG    1        1.763   4.709  -1.411  0.00  0.00    +0.510 C 
ATOM     20  O   LIG    1        1.304   4.067  -2.332  0.00  0.00    -0.530 OA
BRANCH  19  21
ATOM     21  C   LIG    1        1.489   4.290   0.010  0.00  0.00    +0.140 C 
BRANCH  21  22
ATOM     22  C   LIG    1        0.627   3.053   0.012  0.00  0.00    -0.230 A 
ATOM     23  C   LIG    1        1.069   1.774   0.001  0.00  0.00    +0.240 A 
ATOM     24  N   LIG    1       -0.011   0.966   0.007  0.00  0.00    -0.480 N 
ATOM     25  H   LIG    1        0.002  -0.004   0.002  0.00  0.00    +0.440 HD
ATOM     26  N   LIG    1       -1.155   1.774   0.017  0.00  0.00    -0.290 NA
ATOM     27  C   LIG    1       -0.771   3.025   0.025  0.00  0.00    +0.250 A 
ENDBRANCH  21  22
ENDBRANCH  19  21
ENDBRANCH  16  17
ENDBRANCH   4  16
TORSDOF 6
