REMARK  Name = ZINCrg000000r9mQ.0
REMARK                            x       y       z     vdW  Elec       q    Type
REMARK                         _______ _______ _______ _____ _____    ______ ____
ROOT
ATOM      1  C   LIG    1       -3.955  -4.641   0.017  0.00  0.00    +0.260 C 
ENDROOT
BRANCH   1   2
ATOM      2  C   LIG    1       -3.805  -6.039   0.559  0.00  0.00    +0.520 C 
ATOM      3  N   LIG    1       -4.895  -6.737   0.935  0.00  0.00    -0.610 N 
ATOM      4  C   LIG    1       -6.242  -6.190   0.726  0.00  0.00    +0.270 C 
ATOM      5  C   LIG    1       -7.074  -7.224  -0.049  0.00  0.00    +0.040 C 
ATOM      6  C   LIG    1       -7.046  -8.558   0.701  0.00  0.00    -0.010 C 
ATOM      7  C   LIG    1       -5.606  -9.066   0.788  0.00  0.00    +0.050 C 
ATOM      8  C   LIG    1       -4.758  -8.056   1.567  0.00  0.00    +0.280 C 
ATOM      9  O   LIG    1       -2.703  -6.535   0.658  0.00  0.00    -0.530 OA
BRANCH   6  10
ATOM     10  C   LIG    1       -7.891  -9.565  -0.035  0.00  0.00    +0.520 C 
ATOM     11  O   LIG    1       -7.391 -10.589  -0.450  0.00  0.00    -0.540 OA
ATOM     12  N   LIG    1       -9.203  -9.328  -0.233  0.00  0.00    -0.860 N 
ATOM     13  H   LIG    1       -9.747  -9.977  -0.707  0.00  0.00    +0.400 HD
ATOM     14  H   LIG    1       -9.604  -8.509   0.099  0.00  0.00    +0.400 HD
ENDBRANCH   6  10
ENDBRANCH   1   2
BRANCH   1  15
ATOM     15  N   LIG    1       -2.726  -3.885   0.268  0.00  0.00    -0.710 N 
ATOM     16  H   LIG    1       -1.883  -4.351   0.375  0.00  0.00    +0.410 HD
ATOM     17  C   LIG    1       -2.767  -2.540   0.350  0.00  0.00    +0.520 C 
ATOM     18  O   LIG    1       -3.821  -1.956   0.215  0.00  0.00    -0.510 OA
BRANCH  17  19
ATOM     19  C   LIG    1       -1.502  -1.762   0.608  0.00  0.00    +0.240 C 
BRANCH  19  20
ATOM     20  O   LIG    1       -1.802  -0.365   0.650  0.00  0.00    -0.290 OA
BRANCH  20  21
ATOM     21  C   LIG    1       -0.764   0.482   0.876  0.00  0.00    +0.130 A 
ATOM     22  C   LIG    1       -0.984   1.851   0.930  0.00  0.00    -0.020 A 
ATOM     23  C   LIG    1        0.072   2.711   1.160  0.00  0.00    +0.050 A 
ATOM     24  C   LIG    1        1.348   2.208   1.337  0.00  0.00    -0.030 A 
ATOM     25  C   LIG    1        1.570   0.844   1.283  0.00  0.00    +0.050 A 
ATOM     26  C   LIG    1        0.517  -0.020   1.054  0.00  0.00    -0.080 A 
ENDBRANCH  20  21
ENDBRANCH  19  20
ENDBRANCH  17  19
ENDBRANCH   1  15
BRANCH   1  27
ATOM     27  C   LIG    1       -4.217  -4.704  -1.489  0.00  0.00    +0.070 C 
BRANCH  27  28
ATOM     28  C   LIG    1       -4.511  -3.297  -2.015  0.00  0.00    +0.100 C 
BRANCH  28  30
ATOM     29  C   LIG    1       -5.145  -1.640  -4.231  0.00  0.00    +0.140 C 
ATOM     30  S   LIG    1       -4.821  -3.372  -3.801  0.00  0.00    -0.270 S 
ENDBRANCH  28  30
ENDBRANCH  27  28
ENDBRANCH   1  27
TORSDOF 9
