REMARK  Name = ZINCvU0000000Atv.0
REMARK                            x       y       z     vdW  Elec       q    Type
REMARK                         _______ _______ _______ _____ _____    ______ ____
ROOT
ATOM      1  C   LIG    1        1.491   1.555   2.364  0.00  0.00    +0.110 C 
ENDROOT
BRANCH   1   3
ATOM      2  N   LIG    1       -0.698   1.558   1.213  0.00  0.00    -0.600 N 
ATOM      3  C   LIG    1        0.002   1.786   2.342  0.00  0.00    +0.540 C 
ATOM      4  O   LIG    1       -0.565   2.177   3.340  0.00  0.00    -0.510 OA
ATOM      5  C   LIG    1       -0.013   1.086   0.008  0.00  0.00    +0.300 C 
BRANCH   2   7
ATOM      6  C   LIG    1       -2.483   2.839   0.137  0.00  0.00    +0.070 C 
ATOM      7  C   LIG    1       -2.146   1.783   1.192  0.00  0.00    +0.350 C 
BRANCH   7   8
ATOM      8  C   LIG    1       -2.849   0.494   0.855  0.00  0.00    +0.080 A 
ATOM      9  N   LIG    1       -3.883   0.056   1.469  0.00  0.00    -0.450 NA
ATOM     10  C   LIG    1       -4.409  -1.114   1.059  0.00  0.00    +0.080 A 
ATOM     11  C   LIG    1       -5.528  -1.818   1.548  0.00  0.00    +0.080 A 
ATOM     12  C   LIG    1       -5.898  -3.002   0.985  0.00  0.00    +0.030 A 
ATOM     13  C   LIG    1       -5.184  -3.537  -0.078  0.00  0.00    +0.040 A 
ATOM     14  C   LIG    1       -4.086  -2.871  -0.576  0.00  0.00    +0.060 A 
ATOM     15  C   LIG    1       -3.693  -1.659  -0.013  0.00  0.00    -0.190 A 
ATOM     16  S   LIG    1       -2.372  -0.561  -0.399  0.00  0.00    +0.110 S 
ENDBRANCH   7   8
ENDBRANCH   2   7
ENDBRANCH   1   3
BRANCH   1  17
ATOM     17  S   LIG    1        2.139   1.947   4.008  0.00  0.00    +0.160 S 
BRANCH  17  18
ATOM     18  C   LIG    1        3.847   1.598   3.755  0.00  0.00    +0.130 A 
ATOM     19  N   LIG    1        4.399   1.176   2.643  0.00  0.00    -0.290 NA
ATOM     20  N   LIG    1        5.664   1.028   2.825  0.00  0.00    -0.240 NA
ATOM     21  C   LIG    1        5.968   1.347   4.048  0.00  0.00    +0.160 A 
ATOM     22  O   LIG    1        4.831   1.721   4.666  0.00  0.00    -0.190 OA
BRANCH  21  23
ATOM     23  C   LIG    1        7.344   1.312   4.661  0.00  0.00    +0.380 C 
BRANCH  23  24
ATOM     24  O   LIG    1        7.983   2.576   4.472  0.00  0.00    -0.310 OA
BRANCH  24  25
ATOM     25  C   LIG    1        9.241   2.712   4.970  0.00  0.00    +0.130 A 
ATOM     26  C   LIG    1        9.845   1.653   5.632  0.00  0.00    -0.060 A 
ATOM     27  C   LIG    1       11.124   1.792   6.133  0.00  0.00    +0.070 A 
ATOM     28  C   LIG    1       11.800   2.990   5.984  0.00  0.00    -0.070 A 
ATOM     29  C   LIG    1       11.197   4.050   5.328  0.00  0.00    +0.070 A 
ATOM     30 CL   LIG    1       13.406   3.165   6.620  0.00  0.00    -0.070 Cl
ATOM     31  C   LIG    1        9.920   3.913   4.822  0.00  0.00    +0.010 A 
ENDBRANCH  24  25
ENDBRANCH  23  24
ENDBRANCH  21  23
ENDBRANCH  17  18
ENDBRANCH   1  17
TORSDOF 8
