REMARK  Name = ZINCpk00000FajRb.0
REMARK                            x       y       z     vdW  Elec       q    Type
REMARK                         _______ _______ _______ _____ _____    ______ ____
ROOT
ATOM      1  O   LIG    1        5.106  -3.029  -1.549  0.00  0.00    -0.530 OA
ATOM      2  C   LIG    1        4.235  -3.869  -1.480  0.00  0.00    +0.520 C 
ATOM      3  N   LIG    1        2.947  -3.495  -1.347  0.00  0.00    -0.610 N 
ATOM      4  C   LIG    1        1.879  -4.501  -1.262  0.00  0.00    +0.260 C 
ATOM      5  C   LIG    1        1.049  -4.234  -0.002  0.00  0.00    +0.030 C 
ATOM      6  C   LIG    1        0.549  -2.788  -0.023  0.00  0.00    +0.060 C 
ATOM      7  C   LIG    1        1.745  -1.833  -0.024  0.00  0.00    +0.210 C 
ATOM      8  C   LIG    1        2.583  -2.072  -1.284  0.00  0.00    +0.270 C 
ENDROOT
BRANCH   7   9
ATOM      9  C   LIG    1        1.252  -0.409  -0.012  0.00  0.00    -0.020 A 
ATOM     10  N   LIG    1        0.002  -0.004   0.002  0.00  0.00    -0.260 NA
ATOM     11  N   LIG    1       -0.015   1.282   0.009  0.00  0.00    -0.240 N 
ATOM     12  H   LIG    1       -0.821   1.822   0.016  0.00  0.00    +0.470 HD
ATOM     13  N   LIG    1        1.181   1.754   0.000  0.00  0.00    -0.280 NA
ATOM     14  C   LIG    1        2.030   0.751  -0.013  0.00  0.00    +0.190 A 
ENDBRANCH   7   9
BRANCH   7  15
ATOM     15  O   LIG    1        2.547  -2.070   1.134  0.00  0.00    -0.540 OA
ATOM     16  H   LIG    1        3.325  -1.499   1.198  0.00  0.00    +0.380 HD
ENDBRANCH   7  15
BRANCH   2  17
ATOM     17  C   LIG    1        4.591  -5.332  -1.542  0.00  0.00    +0.120 C 
BRANCH  17  18
ATOM     18  C   LIG    1        6.084  -5.479  -1.692  0.00  0.00    -0.120 A 
ATOM     19  C   LIG    1        6.876  -5.568  -0.583  0.00  0.00    +0.100 A 
ATOM     20  C   LIG    1        8.265  -5.705  -0.768  0.00  0.00    -0.100 A 
ATOM     21  C   LIG    1        9.142  -5.803   0.324  0.00  0.00    +0.030 A 
ATOM     22  C   LIG    1       10.479  -5.934   0.104  0.00  0.00    +0.010 A 
ATOM     23  C   LIG    1       10.989  -5.973  -1.192  0.00  0.00    +0.030 A 
ATOM     24  C   LIG    1       10.168  -5.881  -2.273  0.00  0.00    +0.050 A 
ATOM     25  C   LIG    1        8.781  -5.744  -2.087  0.00  0.00    +0.130 A 
ATOM     26  N   LIG    1        7.950  -5.652  -3.130  0.00  0.00    -0.470 NA
ATOM     27  C   LIG    1        6.656  -5.530  -2.961  0.00  0.00    +0.310 A 
ENDBRANCH  17  18
ENDBRANCH   2  17
TORSDOF 4
