REMARK  Name = ZINCpk00000FajRb.1
REMARK                            x       y       z     vdW  Elec       q    Type
REMARK                         _______ _______ _______ _____ _____    ______ ____
ROOT
ATOM      1  O   LIG    1        2.919   3.301  -0.931  0.00  0.00    -0.530 OA
ATOM      2  C   LIG    1        1.774   2.902  -0.933  0.00  0.00    +0.520 C 
ATOM      3  N   LIG    1        1.366   2.019  -0.000  0.00  0.00    -0.600 N 
ATOM      4  C   LIG    1       -0.019   1.528   0.010  0.00  0.00    +0.260 C 
ATOM      5  C   LIG    1        0.002  -0.004   0.002  0.00  0.00    +0.030 C 
ATOM      6  C   LIG    1        0.856  -0.505   1.169  0.00  0.00    +0.060 C 
ATOM      7  C   LIG    1        2.292  -0.002   1.006  0.00  0.00    +0.210 C 
ATOM      8  C   LIG    1        2.297   1.530   1.025  0.00  0.00    +0.270 C 
ENDROOT
BRANCH   7   9
ATOM      9  C   LIG    1        3.139  -0.522   2.138  0.00  0.00    -0.050 A 
ATOM     10  C   LIG    1        4.458  -0.291   2.335  0.00  0.00    +0.170 A 
ATOM     11  N   LIG    1        4.792  -0.953   3.467  0.00  0.00    -0.390 N 
ATOM     12  H   LIG    1        5.673  -0.979   3.871  0.00  0.00    +0.450 HD
ATOM     13  N   LIG    1        3.739  -1.541   3.916  0.00  0.00    -0.070 NA
ATOM     14  N   LIG    1        2.735  -1.299   3.149  0.00  0.00    -0.240 NA
ENDBRANCH   7   9
BRANCH   7  15
ATOM     15  O   LIG    1        2.821  -0.465  -0.238  0.00  0.00    -0.540 OA
ATOM     16  H   LIG    1        3.730  -0.183  -0.408  0.00  0.00    +0.380 HD
ENDBRANCH   7  15
BRANCH   2  17
ATOM     17  C   LIG    1        0.807   3.394  -1.979  0.00  0.00    +0.120 C 
BRANCH  17  18
ATOM     18  C   LIG    1        1.507   4.365  -2.894  0.00  0.00    -0.120 A 
ATOM     19  C   LIG    1        2.137   3.912  -4.018  0.00  0.00    +0.100 A 
ATOM     20  C   LIG    1        2.779   4.854  -4.845  0.00  0.00    -0.100 A 
ATOM     21  C   LIG    1        3.446   4.463  -6.016  0.00  0.00    +0.030 A 
ATOM     22  C   LIG    1        4.055   5.404  -6.790  0.00  0.00    +0.010 A 
ATOM     23  C   LIG    1        4.025   6.750  -6.434  0.00  0.00    +0.030 A 
ATOM     24  C   LIG    1        3.387   7.164  -5.305  0.00  0.00    +0.050 A 
ATOM     25  C   LIG    1        2.747   6.223  -4.481  0.00  0.00    +0.130 A 
ATOM     26  N   LIG    1        2.112   6.600  -3.366  0.00  0.00    -0.470 NA
ATOM     27  C   LIG    1        1.508   5.727  -2.597  0.00  0.00    +0.310 A 
ENDBRANCH  17  18
ENDBRANCH   2  17
TORSDOF 4
