REMARK  Name = ZINCrg00000SjSvU.0
REMARK                            x       y       z     vdW  Elec       q    Type
REMARK                         _______ _______ _______ _____ _____    ______ ____
ROOT
ATOM      1  N   LIG    1        1.069  -2.032  -1.862  0.00  0.00    -0.600 N 
ATOM      2  C   LIG    1        2.132  -2.824  -1.620  0.00  0.00    +0.510 C 
ATOM      3  O   LIG    1        2.061  -4.016  -1.832  0.00  0.00    -0.530 OA
ENDROOT
BRANCH   1   4
ATOM      4  C   LIG    1       -0.204  -2.623  -2.283  0.00  0.00    +0.250 C 
ATOM      5  C   LIG    1       -1.345  -2.164  -1.346  0.00  0.00    +0.040 C 
ATOM      6  C   LIG    1       -1.974  -0.979  -2.122  0.00  0.00    +0.160 C 
ATOM      7  N   LIG    1       -1.902  -1.423  -3.537  0.00  0.00    -0.480 NA
ATOM      8  C   LIG    1       -0.598  -2.106  -3.679  0.00  0.00    +0.170 C 
BRANCH   7   9
ATOM      9  C   LIG    1       -1.999  -0.278  -4.453  0.00  0.00    +0.160 C 
ATOM     10  C   LIG    1       -3.425   0.318  -4.425  0.00  0.00    +0.080 C 
ATOM     11  C   LIG    1       -3.279   1.438  -3.371  0.00  0.00    +0.250 C 
ATOM     12  N   LIG    1       -1.857   1.803  -3.383  0.00  0.00    -0.620 N 
ATOM     13  C   LIG    1       -1.317   3.042  -2.818  0.00  0.00    +0.300 C 
ATOM     14  C   LIG    1       -1.112   0.854  -3.982  0.00  0.00    +0.490 C 
ATOM     15  O   LIG    1        0.092   0.897  -4.122  0.00  0.00    -0.520 OA
ENDBRANCH   7   9
ENDBRANCH   1   4
BRANCH   1  16
ATOM     16  C   LIG    1        1.185  -0.581  -1.704  0.00  0.00    +0.270 C 
BRANCH  16  18
ATOM     17  C   LIG    1        1.089   1.308  -0.071  0.00  0.00    +0.020 C 
ATOM     18  C   LIG    1        0.975  -0.209  -0.235  0.00  0.00    -0.010 C 
ENDBRANCH  16  18
ENDBRANCH   1  16
BRANCH   2  19
ATOM     19  C   LIG    1        3.409  -2.229  -1.086  0.00  0.00    +0.300 C 
BRANCH  19  20
ATOM     20  N   LIG    1        4.405  -3.288  -0.909  0.00  0.00    -0.720 N 
ATOM     21  H   LIG    1        4.182  -4.206  -1.130  0.00  0.00    +0.410 HD
ATOM     22  C   LIG    1        5.632  -2.988  -0.439  0.00  0.00    +0.520 C 
ATOM     23  O   LIG    1        5.911  -1.841  -0.162  0.00  0.00    -0.530 OA
BRANCH  22  24
ATOM     24  C   LIG    1        6.657  -4.078  -0.257  0.00  0.00    +0.050 C 
BRANCH  24  25
ATOM     25  C   LIG    1        7.953  -3.473   0.286  0.00  0.00    -0.050 C 
ATOM     26  C   LIG    1        8.484  -2.434  -0.704  0.00  0.00    +0.030 C 
ATOM     27  C   LIG    1        8.994  -4.580   0.470  0.00  0.00    +0.020 C 
ATOM     28  C   LIG    1        7.679  -2.801   1.633  0.00  0.00    +0.030 C 
ENDBRANCH  24  25
ENDBRANCH  22  24
ENDBRANCH  19  20
ENDBRANCH   2  19
TORSDOF 8
