REMARK  Name = ZINCvU0000000CoC.0
REMARK                            x       y       z     vdW  Elec       q    Type
REMARK                         _______ _______ _______ _____ _____    ______ ____
ROOT
ATOM      1  S   LIG    1        1.902   3.417   0.024  0.00  0.00    +0.100 S 
ENDROOT
BRANCH   1   2
ATOM      2  C   LIG    1        1.297   1.762   0.034  0.00  0.00    +0.150 A 
ATOM      3  N   LIG    1        2.023   0.667   0.025  0.00  0.00    -0.280 NA
ATOM      4  N   LIG    1        1.264  -0.369   0.036  0.00  0.00    -0.260 NA
ATOM      5  C   LIG    1        0.001  -0.002   0.053  0.00  0.00    +0.270 A 
ATOM      6  N   LIG    1       -0.017   1.377   0.052  0.00  0.00    -0.410 N 
BRANCH   6   7
ATOM      7  C   LIG    1       -1.144   2.210   0.061  0.00  0.00    +0.090 A 
ATOM      8  C   LIG    1       -2.012   2.218  -1.022  0.00  0.00    +0.040 A 
ATOM      9  C   LIG    1       -3.125   3.037  -1.008  0.00  0.00    +0.040 A 
ATOM     10  C   LIG    1       -3.369   3.855   0.080  0.00  0.00    +0.050 A 
ATOM     11  C   LIG    1       -2.503   3.853   1.158  0.00  0.00    +0.040 A 
ATOM     12  C   LIG    1       -1.392   3.033   1.152  0.00  0.00    +0.040 A 
ENDBRANCH   6   7
BRANCH   5  13
ATOM     13  C   LIG    1       -1.170  -0.893   0.070  0.00  0.00    -0.140 A 
ATOM     14  C   LIG    1       -1.150  -2.213  -0.220  0.00  0.00    +0.080 A 
ATOM     15  C   LIG    1       -2.375  -2.839  -0.131  0.00  0.00    +0.010 A 
ATOM     16  C   LIG    1       -3.394  -2.046   0.216  0.00  0.00    -0.030 A 
ATOM     17  S   LIG    1       -2.813  -0.405   0.463  0.00  0.00    +0.150 S 
ENDBRANCH   5  13
ENDBRANCH   1   2
BRANCH   1  18
ATOM     18  C   LIG    1        3.684   3.100   0.000  0.00  0.00    +0.120 C 
BRANCH  18  20
ATOM     19  O   LIG    1        3.812   5.457  -0.005  0.00  0.00    -0.500 OA
ATOM     20  C   LIG    1        4.427   4.411  -0.012  0.00  0.00    +0.540 C 
ATOM     21  N   LIG    1        5.774   4.422  -0.030  0.00  0.00    -0.670 N 
ATOM     22  H   LIG    1        6.267   3.589   0.031  0.00  0.00    +0.420 HD
BRANCH  21  23
ATOM     23  C   LIG    1        6.463   5.636  -0.136  0.00  0.00    +0.200 A 
ATOM     24  C   LIG    1        5.954   6.779   0.466  0.00  0.00    +0.030 A 
ATOM     25  C   LIG    1        6.639   7.974   0.365  0.00  0.00    +0.070 A 
ATOM     26  C   LIG    1        7.824   8.035  -0.345  0.00  0.00    +0.010 A 
ATOM     27  C   LIG    1        8.331   6.899  -0.951  0.00  0.00    +0.090 A 
ATOM     28  C   LIG    1        7.653   5.700  -0.848  0.00  0.00    -0.210 A 
BRANCH  28  29
ATOM     29  C   LIG    1        8.206   4.463  -1.508  0.00  0.00    +0.510 C 
ATOM     30  F   LIG    1        7.281   3.980  -2.440  0.00  0.00    -0.170 F 
ATOM     31  F   LIG    1        8.445   3.484  -0.538  0.00  0.00    -0.180 F 
ATOM     32  F   LIG    1        9.403   4.778  -2.160  0.00  0.00    -0.170 F 
ENDBRANCH  28  29
ENDBRANCH  21  23
ENDBRANCH  18  20
ENDBRANCH   1  18
TORSDOF 7
