REMARK  Name = ZINCtV000002Odod.0
REMARK                            x       y       z     vdW  Elec       q    Type
REMARK                         _______ _______ _______ _____ _____    ______ ____
ROOT
ATOM      1  O   LIG    1       -5.740   6.431   1.790  0.00  0.00    -0.500 OA
ATOM      2  C   LIG    1       -5.830   7.528   1.273  0.00  0.00    +0.600 C 
ATOM      3  N   LIG    1       -4.826   7.995   0.504  0.00  0.00    -0.660 N 
ATOM      4  H   LIG    1       -4.905   8.864   0.079  0.00  0.00    +0.410 HD
ENDROOT
BRANCH   3   5
ATOM      5  C   LIG    1       -3.669   7.228   0.320  0.00  0.00    +0.040 A 
ATOM      6  C   LIG    1       -3.747   5.837   0.262  0.00  0.00    +0.120 A 
ATOM      7  C   LIG    1       -2.580   5.119   0.079  0.00  0.00    -0.060 A 
ATOM      8  C   LIG    1       -1.375   5.803  -0.039  0.00  0.00    +0.380 A 
ATOM      9  N   LIG    1       -1.337   7.124   0.026  0.00  0.00    -0.510 NA
ATOM     10  C   LIG    1       -2.432   7.841   0.194  0.00  0.00    +0.290 A 
BRANCH   8  11
ATOM     11  N   LIG    1       -0.193   5.089  -0.224  0.00  0.00    -0.660 N 
ATOM     12  H   LIG    1       -0.224   4.131  -0.377  0.00  0.00    +0.420 HD
BRANCH  11  13
ATOM     13  C   LIG    1        1.037   5.751  -0.187  0.00  0.00    +0.160 A 
ATOM     14  C   LIG    1        2.133   5.151   0.419  0.00  0.00    -0.030 A 
ATOM     15  C   LIG    1        3.347   5.809   0.454  0.00  0.00    +0.020 A 
ATOM     16  C   LIG    1        3.472   7.064  -0.115  0.00  0.00    -0.020 A 
ATOM     17  C   LIG    1        2.381   7.666  -0.714  0.00  0.00    +0.020 A 
ATOM     18  C   LIG    1        1.165   7.012  -0.757  0.00  0.00    +0.020 A 
ENDBRANCH  11  13
ENDBRANCH   8  11
ENDBRANCH   3   5
BRANCH   2  19
ATOM     19  C   LIG    1       -7.034   8.345   1.486  0.00  0.00    -0.280 A 
ATOM     20  C   LIG    1       -8.151   8.030   2.236  0.00  0.00    +0.090 A 
ATOM     21  C   LIG    1       -9.084   9.054   2.201  0.00  0.00    +0.130 A 
ATOM     22  N   LIG    1       -8.790  10.114   1.502  0.00  0.00    -0.510 NA
ATOM     23  S   LIG    1       -7.380   9.960   0.848  0.00  0.00    +0.460 S 
BRANCH  21  24
ATOM     24  C   LIG    1      -10.371   8.948   2.934  0.00  0.00    -0.010 A 
ATOM     25  C   LIG    1      -10.663   7.801   3.670  0.00  0.00    +0.070 A 
ATOM     26  C   LIG    1      -11.858   7.708   4.354  0.00  0.00    +0.050 A 
ATOM     27  C   LIG    1      -12.771   8.747   4.300  0.00  0.00    -0.020 A 
ATOM     28  C   LIG    1      -12.488   9.887   3.566  0.00  0.00    -0.030 A 
ATOM     29 CL   LIG    1      -13.638  11.187   3.504  0.00  0.00    -0.040 Cl
ATOM     30 CL   LIG    1      -14.276   8.622   5.157  0.00  0.00    -0.040 Cl
ATOM     31  C   LIG    1      -11.292   9.992   2.883  0.00  0.00    +0.090 A 
ENDBRANCH  21  24
ENDBRANCH   2  19
TORSDOF 5
