REMARK  Name = ZINCqH0000036cTX.0
REMARK                            x       y       z     vdW  Elec       q    Type
REMARK                         _______ _______ _______ _____ _____    ______ ____
ROOT
ATOM      1  N   LIG    1       -1.125  -0.810   0.008  0.00  0.00    -0.630 N 
ATOM      2  H   LIG    1       -2.008  -0.410   0.018  0.00  0.00    +0.430 HD
ATOM      3  C   LIG    1       -0.994  -2.152  -0.000  0.00  0.00    +0.510 C 
ATOM      4  O   LIG    1        0.110  -2.653  -0.013  0.00  0.00    -0.460 OA
ENDROOT
BRANCH   1  10
ATOM      5  C   LIG    1        3.995   2.625  -0.022  0.00  0.00    +0.140 A 
ATOM      6  C   LIG    1        4.473   1.319  -0.034  0.00  0.00    -0.040 A 
ATOM      7  C   LIG    1        3.603   0.258  -0.031  0.00  0.00    +0.120 A 
ATOM      8  C   LIG    1        2.209   0.475  -0.017  0.00  0.00    +0.070 A 
ATOM      9  N   LIG    1        1.214  -0.436  -0.012  0.00  0.00    -0.460 NA
ATOM     10  C   LIG    1        0.002  -0.004   0.002  0.00  0.00    +0.320 A 
ATOM     11  S   LIG    1       -0.022   1.754   0.012  0.00  0.00    +0.070 S 
ATOM     12  C   LIG    1        1.740   1.792  -0.005  0.00  0.00    -0.140 A 
ATOM     13  C   LIG    1        2.634   2.860  -0.008  0.00  0.00    +0.030 A 
BRANCH   5  15
ATOM     14  C   LIG    1        6.259   3.352  -0.040  0.00  0.00    +0.240 C 
ATOM     15  O   LIG    1        4.866   3.669  -0.025  0.00  0.00    -0.310 OA
ENDBRANCH   5  15
ENDBRANCH   1  10
BRANCH   3  16
ATOM     16  C   LIG    1       -2.220  -3.029   0.006  0.00  0.00    +0.070 C 
BRANCH  16  17
ATOM     17  C   LIG    1       -1.795  -4.499  -0.006  0.00  0.00    +0.290 C 
BRANCH  17  18
ATOM     18  N   LIG    1       -2.987  -5.351   0.001  0.00  0.00    -0.730 N 
ATOM     19  H   LIG    1       -3.870  -4.950   0.011  0.00  0.00    +0.400 HD
ATOM     20  C   LIG    1       -2.856  -6.692  -0.008  0.00  0.00    +0.560 C 
ATOM     21  O   LIG    1       -1.749  -7.195  -0.021  0.00  0.00    -0.520 OA
BRANCH  20  22
ATOM     22  C   LIG    1       -4.057  -7.552  -0.001  0.00  0.00    -0.130 A 
ATOM     23  C   LIG    1       -5.330  -6.978   0.019  0.00  0.00    +0.070 A 
ATOM     24  C   LIG    1       -6.448  -7.786   0.021  0.00  0.00    +0.020 A 
ATOM     25  C   LIG    1       -6.310  -9.164   0.012  0.00  0.00    -0.010 A 
ATOM     26  C   LIG    1       -5.050  -9.739  -0.004  0.00  0.00    +0.020 A 
ATOM     27 CL   LIG    1       -7.722 -10.174   0.021  0.00  0.00    -0.060 Cl
ATOM     28  C   LIG    1       -3.925  -8.942  -0.010  0.00  0.00    +0.100 A 
ENDBRANCH  20  22
ENDBRANCH  17  18
ENDBRANCH  16  17
ENDBRANCH   3  16
TORSDOF 6
