REMARK  Name = ZINCrD000000BQbl.0
REMARK                            x       y       z     vdW  Elec       q    Type
REMARK                         _______ _______ _______ _____ _____    ______ ____
ROOT
ATOM      1  O   LIG    1        1.125   5.487   1.933  0.00  0.00    -0.530 OA
ATOM      2  C   LIG    1        0.589   4.736   2.724  0.00  0.00    +0.570 C 
ATOM      3  N   LIG    1       -0.360   3.877   2.301  0.00  0.00    -0.720 N 
ATOM      4  H   LIG    1       -0.787   3.278   2.932  0.00  0.00    +0.400 HD
ENDROOT
BRANCH   3   5
ATOM      5  C   LIG    1       -0.745   3.849   0.888  0.00  0.00    +0.250 C 
ATOM      6  C   LIG    1        0.184   2.908   0.077  0.00  0.00    +0.030 C 
ATOM      7  C   LIG    1       -0.707   2.471  -1.106  0.00  0.00    +0.250 C 
ATOM      8  N   LIG    1       -2.105   2.656  -0.690  0.00  0.00    -0.620 N 
ATOM      9  C   LIG    1       -3.190   2.406  -1.450  0.00  0.00    +0.530 C 
ATOM     10  O   LIG    1       -3.056   2.079  -2.610  0.00  0.00    -0.530 OA
ATOM     11  C   LIG    1       -2.124   3.160   0.695  0.00  0.00    +0.270 C 
BRANCH   9  12
ATOM     12  C   LIG    1       -4.570   2.532  -0.858  0.00  0.00    -0.010 C 
ATOM     13  C   LIG    1       -5.024   1.171  -0.326  0.00  0.00    +0.020 C 
ATOM     14  C   LIG    1       -6.425   1.299   0.275  0.00  0.00    +0.010 C 
ATOM     15  C   LIG    1       -7.400   1.777  -0.802  0.00  0.00    +0.000 C 
ATOM     16  C   LIG    1       -6.947   3.138  -1.334  0.00  0.00    +0.010 C 
ATOM     17  C   LIG    1       -5.546   3.010  -1.935  0.00  0.00    +0.040 C 
ENDBRANCH   9  12
ENDBRANCH   3   5
BRANCH   2  18
ATOM     18  C   LIG    1        0.978   4.764   4.148  0.00  0.00    -0.180 A 
ATOM     19  C   LIG    1        0.358   3.905   5.060  0.00  0.00    +0.090 A 
ATOM     20  C   LIG    1        0.727   3.931   6.386  0.00  0.00    -0.090 A 
ATOM     21  C   LIG    1        1.706   4.817   6.820  0.00  0.00    +0.160 A 
ATOM     22  C   LIG    1        2.321   5.677   5.917  0.00  0.00    -0.020 A 
ATOM     23  C   LIG    1        1.961   5.654   4.588  0.00  0.00    +0.130 A 
BRANCH  21  24
ATOM     24  O   LIG    1        2.063   4.843   8.129  0.00  0.00    -0.310 OA
BRANCH  24  25
ATOM     25  C   LIG    1        1.391   3.933   9.003  0.00  0.00    +0.230 C 
BRANCH  25  26
ATOM     26  C   LIG    1        1.922   4.108  10.427  0.00  0.00    -0.040 C 
ATOM     27  C   LIG    1        2.650   2.921  11.061  0.00  0.00    +0.030 C 
ATOM     28  C   LIG    1        1.246   3.301  11.537  0.00  0.00    +0.030 C 
ENDBRANCH  25  26
ENDBRANCH  24  25
ENDBRANCH  21  24
ENDBRANCH   2  18
TORSDOF 6
