REMARK  Name = ZINCpk00000kjk6n.0
REMARK                            x       y       z     vdW  Elec       q    Type
REMARK                         _______ _______ _______ _____ _____    ______ ____
ROOT
ATOM      1  S   LIG    1       -2.504   2.645  -1.225  0.00  0.00    +2.710 S 
ATOM      2  O   LIG    1       -3.710   2.491  -0.489  0.00  0.00    -0.940 OA
ATOM      3  O   LIG    1       -1.815   1.556  -1.825  0.00  0.00    -0.940 OA
ENDROOT
BRANCH   1   9
ATOM      4  C   LIG    1       -3.499   4.986  -2.246  0.00  0.00    +0.440 A 
ATOM      5  N   LIG    1       -3.762   5.847  -3.215  0.00  0.00    -0.540 NA
ATOM      6  C   LIG    1       -3.424   5.603  -4.468  0.00  0.00    +0.430 A 
ATOM      7  C   LIG    1       -2.779   4.433  -4.812  0.00  0.00    -0.300 A 
ATOM      8  C   LIG    1       -2.485   3.503  -3.824  0.00  0.00    +0.280 A 
ATOM      9  C   LIG    1       -2.852   3.788  -2.520  0.00  0.00    -0.760 A 
BRANCH   7  10
ATOM     10  C   LIG    1       -2.398   4.166  -6.245  0.00  0.00    +0.520 C 
ATOM     11  F   LIG    1       -3.446   3.500  -6.891  0.00  0.00    -0.170 F 
ATOM     12  F   LIG    1       -2.147   5.380  -6.894  0.00  0.00    -0.170 F 
ATOM     13  F   LIG    1       -1.248   3.371  -6.282  0.00  0.00    -0.170 F 
ENDBRANCH   7  10
BRANCH   4  15
ATOM     14  C   LIG    1       -4.530   6.522  -0.756  0.00  0.00    +0.280 C 
ATOM     15  O   LIG    1       -3.869   5.274  -0.973  0.00  0.00    -0.290 OA
ENDBRANCH   4  15
ENDBRANCH   1   9
BRANCH   1  16
ATOM     16  N   LIG    1       -1.423   3.376  -0.204  0.00  0.00    -1.080 NA
ATOM     17  H   LIG    1       -1.685   3.591   0.705  0.00  0.00    +0.420 HD
BRANCH  16  18
ATOM     18  C   LIG    1       -0.073   3.696  -0.674  0.00  0.00    +0.290 C 
ATOM     19  C   LIG    1        0.255   5.226  -0.487  0.00  0.00    -0.020 C 
ATOM     20  C   LIG    1        1.792   5.174  -0.807  0.00  0.00    +0.040 C 
ATOM     21  C   LIG    1        2.226   4.050   0.173  0.00  0.00    +0.000 C 
ATOM     22  C   LIG    1        1.295   4.170   1.391  0.00  0.00    -0.020 C 
ATOM     23  C   LIG    1        0.349   5.386   1.078  0.00  0.00    +0.050 C 
ATOM     24  C   LIG    1        1.026   3.093   0.275  0.00  0.00    -0.140 C 
BRANCH  24  25
ATOM     25  C   LIG    1        1.113   1.583   0.511  0.00  0.00    +0.240 C 
BRANCH  25  26
ATOM     26  O   LIG    1       -0.204   1.030   0.546  0.00  0.00    -0.560 OA
ATOM     27  H   LIG    1       -0.225   0.074   0.692  0.00  0.00    +0.380 HD
ENDBRANCH  25  26
ENDBRANCH  24  25
ENDBRANCH  16  18
ENDBRANCH   1  16
TORSDOF 7
