REMARK  Name = ZINCpe000000TMQ6.0
REMARK                            x       y       z     vdW  Elec       q    Type
REMARK                         _______ _______ _______ _____ _____    ______ ____
ROOT
ATOM      1  C   LIG    1        0.867  -2.128  -0.018  0.00  0.00    -0.200 A 
ATOM      2  C   LIG    1       -0.475  -2.447  -0.007  0.00  0.00    +0.070 A 
ATOM      3  S   LIG    1       -1.424  -1.030   0.009  0.00  0.00    +0.360 S 
ATOM      4  C   LIG    1        0.002  -0.004   0.002  0.00  0.00    -0.340 A 
ATOM      5  C   LIG    1        1.118  -0.761  -0.018  0.00  0.00    +0.040 A 
ATOM      6  C   LIG    1        2.507  -0.179  -0.035  0.00  0.00    +0.130 C 
ENDROOT
BRANCH   4   7
ATOM      7  C   LIG    1       -0.018   1.460   0.010  0.00  0.00    +0.600 C 
ATOM      8  N   LIG    1       -1.194   2.118   0.019  0.00  0.00    -0.730 N 
ATOM      9  H   LIG    1       -2.027   1.622   0.021  0.00  0.00    +0.400 HD
ATOM     10  C   LIG    1       -1.214   3.583   0.027  0.00  0.00    +0.290 C 
ATOM     11  O   LIG    1        1.028   2.083   0.003  0.00  0.00    -0.520 OA
ENDBRANCH   4   7
BRANCH   2  12
ATOM     12  N   LIG    1       -0.979  -3.733  -0.009  0.00  0.00    -0.630 N 
ATOM     13  H   LIG    1       -0.374  -4.491  -0.019  0.00  0.00    +0.420 HD
ATOM     14  C   LIG    1       -2.312  -3.935   0.002  0.00  0.00    +0.510 C 
ATOM     15  O   LIG    1       -3.068  -2.987   0.014  0.00  0.00    -0.480 OA
BRANCH  14  16
ATOM     16  C   LIG    1       -2.862  -5.338   0.000  0.00  0.00    +0.240 C 
BRANCH  16  17
ATOM     17  N   LIG    1       -4.330  -5.288   0.014  0.00  0.00    -0.520 NA
ATOM     18  C   LIG    1       -4.826  -4.727   1.279  0.00  0.00    +0.150 C 
ATOM     19  C   LIG    1       -6.353  -4.639   1.228  0.00  0.00    +0.230 C 
ATOM     20  O   LIG    1       -6.892  -5.937   0.963  0.00  0.00    -0.380 OA
ATOM     21  C   LIG    1       -6.431  -6.513  -0.262  0.00  0.00    +0.220 C 
ATOM     22  C   LIG    1       -4.904  -6.620  -0.226  0.00  0.00    +0.160 C 
ENDBRANCH  16  17
ENDBRANCH  14  16
ENDBRANCH   2  12
BRANCH   1  23
ATOM     23  C   LIG    1        1.931  -3.138  -0.034  0.00  0.00    +0.540 C 
ATOM     24  O   LIG    1        2.362  -3.550  -1.093  0.00  0.00    -0.490 OA
BRANCH  23  25
ATOM     25  O   LIG    1        2.431  -3.608   1.127  0.00  0.00    -0.350 OA
BRANCH  25  27
ATOM     26  C   LIG    1        3.920  -5.016   2.442  0.00  0.00    +0.070 C 
ATOM     27  C   LIG    1        3.482  -4.606   1.035  0.00  0.00    +0.200 C 
ENDBRANCH  25  27
ENDBRANCH  23  25
ENDBRANCH   1  23
TORSDOF 7
