REMARK  Name = ZINCtV000002HYQO.0
REMARK                            x       y       z     vdW  Elec       q    Type
REMARK                         _______ _______ _______ _____ _____    ______ ____
ROOT
ATOM      1  C   LIG    1        4.305   8.321  -0.416  0.00  0.00    +0.200 C 
ENDROOT
BRANCH   1   4
ATOM      2  C   LIG    1        2.334   5.272  -0.097  0.00  0.00    +0.300 A 
ATOM      3  N   LIG    1        3.384   6.024  -0.205  0.00  0.00    -0.530 NA
ATOM      4  C   LIG    1        3.180   7.326  -0.288  0.00  0.00    +0.110 A 
ATOM      5  C   LIG    1        1.898   7.690  -0.248  0.00  0.00    -0.100 A 
ATOM      6  S   LIG    1        0.920   6.233  -0.100  0.00  0.00    +0.160 S 
BRANCH   2   7
ATOM      7  N   LIG    1        2.354   3.888   0.001  0.00  0.00    -0.630 N 
ATOM      8  H   LIG    1        3.199   3.420   0.084  0.00  0.00    +0.420 HD
BRANCH   7  13
ATOM      9  C   LIG    1       -2.511   0.974  -0.081  0.00  0.00    +0.090 C 
ATOM     10  C   LIG    1       -1.217   1.747  -0.062  0.00  0.00    -0.100 A 
ATOM     11  C   LIG    1       -1.074   2.873  -0.852  0.00  0.00    +0.050 A 
ATOM     12  C   LIG    1        0.108   3.586  -0.832  0.00  0.00    -0.030 A 
ATOM     13  C   LIG    1        1.156   3.169  -0.021  0.00  0.00    +0.150 A 
ATOM     14  C   LIG    1        1.011   2.034   0.767  0.00  0.00    -0.010 A 
ATOM     15  C   LIG    1       -0.174   1.325   0.742  0.00  0.00    +0.040 A 
ENDBRANCH   7  13
ENDBRANCH   2   7
ENDBRANCH   1   4
BRANCH   1  16
ATOM     16  S   LIG    1        4.669   8.598  -2.167  0.00  0.00    +0.100 S 
BRANCH  16  17
ATOM     17  C   LIG    1        5.982   9.765  -2.026  0.00  0.00    +0.140 A 
ATOM     18  N   LIG    1        6.484  10.239  -0.912  0.00  0.00    -0.290 NA
ATOM     19  N   LIG    1        7.428  11.069  -1.190  0.00  0.00    -0.240 NA
ATOM     20  C   LIG    1        7.564  11.156  -2.481  0.00  0.00    +0.160 A 
ATOM     21  O   LIG    1        6.659  10.331  -3.043  0.00  0.00    -0.200 OA
BRANCH  20  22
ATOM     22  C   LIG    1        8.558  12.020  -3.214  0.00  0.00    +0.380 C 
BRANCH  22  23
ATOM     23  O   LIG    1        9.766  11.285  -3.420  0.00  0.00    -0.310 OA
BRANCH  23  24
ATOM     24  C   LIG    1       10.773  11.923  -4.073  0.00  0.00    +0.130 A 
ATOM     25  C   LIG    1       10.600  13.228  -4.510  0.00  0.00    -0.060 A 
ATOM     26  C   LIG    1       11.626  13.877  -5.169  0.00  0.00    +0.070 A 
ATOM     27  C   LIG    1       12.823  13.223  -5.402  0.00  0.00    -0.070 A 
ATOM     28  C   LIG    1       12.996  11.920  -4.971  0.00  0.00    +0.070 A 
ATOM     29 CL   LIG    1       14.109  14.039  -6.235  0.00  0.00    -0.070 Cl
ATOM     30  C   LIG    1       11.974  11.269  -4.307  0.00  0.00    +0.010 A 
ENDBRANCH  23  24
ENDBRANCH  22  23
ENDBRANCH  20  22
ENDBRANCH  16  17
ENDBRANCH   1  16
TORSDOF 8
