REMARK  Name = ZINCpe000000UDhK.1
REMARK                            x       y       z     vdW  Elec       q    Type
REMARK                         _______ _______ _______ _____ _____    ______ ____
ROOT
ATOM      1  C   LIG    1       -0.462   7.339  -1.698  0.00  0.00    +0.200 C 
ENDROOT
BRANCH   1   2
ATOM      2  O   LIG    1        0.568   6.713  -0.931  0.00  0.00    -0.540 OA
ATOM      3  H   LIG    1        0.665   7.069  -0.037  0.00  0.00    +0.380 HD
ENDBRANCH   1   2
BRANCH   1   4
ATOM      4  C   LIG    1       -1.807   7.155  -0.991  0.00  0.00    +0.270 C 
BRANCH   4   6
ATOM      5  C   LIG    1       -2.834   5.026  -1.913  0.00  0.00    +0.290 C 
ATOM      6  N   LIG    1       -2.097   5.725  -0.858  0.00  0.00    -0.610 N 
ATOM      7  C   LIG    1       -1.686   5.053   0.236  0.00  0.00    +0.530 C 
ATOM      8  O   LIG    1       -1.143   5.647   1.143  0.00  0.00    -0.510 OA
BRANCH   7   9
ATOM      9  C   LIG    1       -1.901   3.565   0.331  0.00  0.00    +0.170 C 
ATOM     10  C   LIG    1       -0.908   2.845  -0.585  0.00  0.00    +0.170 C 
ATOM     11  N   LIG    1       -1.071   1.392  -0.431  0.00  0.00    -0.690 NA
ATOM     12  H   LIG    1       -0.455   0.891  -1.053  0.00  0.00    +0.350 HD
ATOM     13  C   LIG    1       -0.851   0.989   0.966  0.00  0.00    +0.140 C 
ATOM     14  C   LIG    1       -1.844   1.728   1.868  0.00  0.00    +0.230 C 
ATOM     15  O   LIG    1       -1.694   3.137   1.680  0.00  0.00    -0.360 OA
ENDBRANCH   7   9
ENDBRANCH   4   6
ENDBRANCH   1   4
BRANCH   1  16
ATOM     16  C   LIG    1       -0.159   8.832  -1.837  0.00  0.00    +0.180 C 
BRANCH  16  17
ATOM     17  O   LIG    1        1.037   9.006  -2.599  0.00  0.00    -0.290 OA
BRANCH  17  18
ATOM     18  C   LIG    1        1.450  10.283  -2.816  0.00  0.00    +0.180 A 
ATOM     19  C   LIG    1        0.718  11.346  -2.307  0.00  0.00    -0.070 A 
ATOM     20  C   LIG    1        1.139  12.642  -2.530  0.00  0.00    +0.090 A 
ATOM     21  C   LIG    1        2.289  12.881  -3.259  0.00  0.00    -0.020 A 
ATOM     22  C   LIG    1        3.020  11.823  -3.768  0.00  0.00    +0.120 A 
ATOM     23  C   LIG    1        2.607  10.525  -3.543  0.00  0.00    -0.220 A 
BRANCH  23  24
ATOM     24  C   LIG    1        3.408   9.372  -4.092  0.00  0.00    +0.520 C 
ATOM     25  F   LIG    1        2.611   8.624  -4.965  0.00  0.00    -0.170 F 
ATOM     26  F   LIG    1        3.835   8.558  -3.038  0.00  0.00    -0.170 F 
ATOM     27  F   LIG    1        4.520   9.865  -4.782  0.00  0.00    -0.180 F 
ENDBRANCH  23  24
ENDBRANCH  17  18
ENDBRANCH  16  17
ENDBRANCH   1  16
TORSDOF 8
