REMARK  Name = ZINCkj000005kSyx.1
REMARK                            x       y       z     vdW  Elec       q    Type
REMARK                         _______ _______ _______ _____ _____    ______ ____
ROOT
ATOM      1  C   LIG    1        1.052  -4.091  -0.086  0.00  0.00    +0.590 C 
ATOM      2  N   LIG    1        0.076  -5.011   0.045  0.00  0.00    -0.630 N 
ATOM      3  C   LIG    1       -1.341  -4.614   0.059  0.00  0.00    +0.320 C 
ATOM      4  C   LIG    1       -2.098  -5.483  -0.950  0.00  0.00    +0.270 C 
ATOM      5  N   LIG    1       -1.863  -6.901  -0.648  0.00  0.00    -0.390 N 
ATOM      6  C   LIG    1       -0.443  -7.223  -0.837  0.00  0.00    +0.260 C 
ATOM      7  C   LIG    1       -2.676  -7.732  -1.546  0.00  0.00    +0.330 C 
ATOM      8  H   LIG    1       -2.125  -7.088   0.308  0.00  0.00    +0.430 HD
ATOM      9  C   LIG    1        0.396  -6.441   0.172  0.00  0.00    +0.230 C 
ATOM     10  C   LIG    1        1.883  -6.663  -0.117  0.00  0.00    +0.100 C 
ATOM     11  O   LIG    1        2.209  -4.445  -0.201  0.00  0.00    -0.490 OA
ENDROOT
BRANCH   1  19
ATOM     12  C   LIG    1        2.740   1.032  -2.338  0.00  0.00    +0.190 C 
ATOM     13  C   LIG    1        1.576   0.843  -1.400  0.00  0.00    +0.080 A 
ATOM     14  N   LIG    1        0.771   1.757  -0.945  0.00  0.00    -0.300 NA
ATOM     15  O   LIG    1       -0.081   1.326  -0.205  0.00  0.00    +0.100 OA
ATOM     16  C   LIG    1        0.002  -0.004  -0.025  0.00  0.00    +0.240 A 
ATOM     17  N   LIG    1       -0.682  -0.898   0.670  0.00  0.00    -0.450 NA
ATOM     18  C   LIG    1       -0.365  -2.174   0.660  0.00  0.00    +0.360 A 
ATOM     19  C   LIG    1        0.716  -2.653  -0.090  0.00  0.00    -0.230 A 
ATOM     20  C   LIG    1        1.473  -1.749  -0.843  0.00  0.00    +0.230 A 
ATOM     21  C   LIG    1        1.106  -0.412  -0.805  0.00  0.00    -0.220 A 
ENDBRANCH   1  19
TORSDOF 1
