REMARK  Name = ZINCkj000005kSyx.2
REMARK                            x       y       z     vdW  Elec       q    Type
REMARK                         _______ _______ _______ _____ _____    ______ ____
ROOT
ATOM      1  C   LIG    1        1.265   3.526   0.009  0.00  0.00    +0.590 C 
ATOM      2  N   LIG    1        2.452   4.158   0.103  0.00  0.00    -0.620 N 
ATOM      3  C   LIG    1        3.714   3.403   0.089  0.00  0.00    +0.300 C 
ATOM      4  C   LIG    1        4.565   3.856   1.280  0.00  0.00    +0.270 C 
ATOM      5  N   LIG    1        4.730   5.315   1.235  0.00  0.00    -0.390 N 
ATOM      6  C   LIG    1        3.428   5.971   1.406  0.00  0.00    +0.270 C 
ATOM      7  C   LIG    1        5.633   5.737   2.314  0.00  0.00    +0.330 C 
ATOM      8  H   LIG    1        5.125   5.580   0.345  0.00  0.00    +0.420 HD
ATOM      9  C   LIG    1        2.522   5.623   0.216  0.00  0.00    +0.270 C 
ATOM     10  C   LIG    1        3.107   6.210  -1.070  0.00  0.00    +0.050 C 
ATOM     11  O   LIG    1        0.236   4.170  -0.048  0.00  0.00    -0.490 OA
ENDROOT
BRANCH   1  19
ATOM     12  C   LIG    1        3.676  -1.109  -2.612  0.00  0.00    +0.190 C 
ATOM     13  C   LIG    1        2.599  -1.176  -1.560  0.00  0.00    +0.070 A 
ATOM     14  N   LIG    1        2.037  -2.242  -1.071  0.00  0.00    -0.300 NA
ATOM     15  O   LIG    1        1.197  -2.004  -0.236  0.00  0.00    +0.100 OA
ATOM     16  C   LIG    1        1.038  -0.689  -0.007  0.00  0.00    +0.240 A 
ATOM     17  N   LIG    1        0.268   0.036   0.787  0.00  0.00    -0.450 NA
ATOM     18  C   LIG    1        0.329   1.349   0.802  0.00  0.00    +0.410 A 
ATOM     19  C   LIG    1        1.215   2.050  -0.025  0.00  0.00    -0.210 A 
ATOM     20  C   LIG    1        2.053   1.331  -0.885  0.00  0.00    +0.180 A 
ATOM     21  C   LIG    1        1.958  -0.052  -0.870  0.00  0.00    -0.220 A 
ENDBRANCH   1  19
TORSDOF 1
