REMARK  Name = ZINCtV000002M2kG.0
REMARK                            x       y       z     vdW  Elec       q    Type
REMARK                         _______ _______ _______ _____ _____    ______ ____
ROOT
ATOM      1  O   LIG    1       -1.910   9.632   0.002  0.00  0.00    -0.510 OA
ATOM      2  C   LIG    1       -0.788   9.174  -0.037  0.00  0.00    +0.520 C 
ATOM      3  N   LIG    1       -0.606   7.839  -0.081  0.00  0.00    -0.670 N 
ATOM      4  H   LIG    1        0.289   7.475  -0.169  0.00  0.00    +0.410 HD
ENDROOT
BRANCH   3   5
ATOM      5  C   LIG    1       -1.708   6.979  -0.001  0.00  0.00    +0.160 A 
ATOM      6  C   LIG    1       -2.921   7.348  -0.562  0.00  0.00    +0.040 A 
ATOM      7  C   LIG    1       -4.010   6.500  -0.476  0.00  0.00    +0.040 A 
ATOM      8  C   LIG    1       -3.891   5.280   0.163  0.00  0.00    +0.010 A 
ATOM      9  C   LIG    1       -2.683   4.902   0.721  0.00  0.00    +0.030 A 
ATOM     10  C   LIG    1       -1.588   5.747   0.639  0.00  0.00    +0.060 A 
BRANCH  10  11
ATOM     11  O   LIG    1       -0.400   5.377   1.188  0.00  0.00    -0.250 OA
BRANCH  11  12
ATOM     12  C   LIG    1       -0.132   5.776   2.456  0.00  0.00    +0.310 A 
ATOM     13  C   LIG    1        1.022   5.332   3.088  0.00  0.00    -0.050 A 
ATOM     14  C   LIG    1        1.284   5.747   4.382  0.00  0.00    +0.100 A 
ATOM     15  C   LIG    1        0.378   6.596   5.001  0.00  0.00    -0.070 A 
ATOM     16  C   LIG    1       -0.753   6.994   4.315  0.00  0.00    +0.300 A 
ATOM     17  N   LIG    1       -0.973   6.586   3.080  0.00  0.00    -0.520 NA
ENDBRANCH  11  12
ENDBRANCH  10  11
ENDBRANCH   3   5
BRANCH   2  18
ATOM     18  C   LIG    1        0.403  10.097  -0.036  0.00  0.00    +0.050 C 
BRANCH  18  19
ATOM     19  C   LIG    1       -0.077  11.549   0.018  0.00  0.00    +0.010 C 
ATOM     20  C   LIG    1       -0.846  11.881  -1.262  0.00  0.00    +0.020 C 
ATOM     21  C   LIG    1       -1.326  13.332  -1.208  0.00  0.00    +0.010 C 
ATOM     22  C   LIG    1       -0.119  14.264  -1.082  0.00  0.00    +0.030 C 
ATOM     23  C   LIG    1        0.650  13.933   0.199  0.00  0.00    +0.010 C 
ATOM     24  C   LIG    1        1.130  12.481   0.145  0.00  0.00    +0.010 C 
BRANCH  22  25
ATOM     25  C   LIG    1       -0.592  15.694  -1.028  0.00  0.00    -0.080 A 
ATOM     26  C   LIG    1       -1.443  16.103  -0.018  0.00  0.00    +0.010 A 
ATOM     27  C   LIG    1       -1.873  17.416   0.034  0.00  0.00    +0.000 A 
ATOM     28  C   LIG    1       -1.460  18.317  -0.930  0.00  0.00    -0.010 A 
ATOM     29  C   LIG    1       -0.613  17.907  -1.942  0.00  0.00    +0.000 A 
ATOM     30  C   LIG    1       -0.179  16.595  -1.992  0.00  0.00    +0.000 A 
ENDBRANCH  22  25
ENDBRANCH  18  19
ENDBRANCH   2  18
TORSDOF 6
