REMARK  Name = ZINCpe00000R8ODT.0
REMARK                            x       y       z     vdW  Elec       q    Type
REMARK                         _______ _______ _______ _____ _____    ______ ____
ROOT
ATOM      1  N   LIG    1        5.532   2.142  -1.738  0.00  0.00    -0.600 N 
ATOM      2  C   LIG    1        4.146   2.568  -1.512  0.00  0.00    +0.410 C 
ATOM      3  C   LIG    1        3.517   1.505  -0.647  0.00  0.00    +0.080 A 
ATOM      4  C   LIG    1        4.495   0.557  -0.414  0.00  0.00    -0.300 A 
ATOM      5  C   LIG    1        3.913  -0.445   0.397  0.00  0.00    +0.330 A 
ATOM      6  N   LIG    1        2.675  -0.107   0.633  0.00  0.00    -0.280 NA
ATOM      7  N   LIG    1        2.404   1.105  -0.015  0.00  0.00    -0.280 N 
ATOM      8  C   LIG    1        5.727   0.975  -1.099  0.00  0.00    +0.600 C 
ATOM      9  O   LIG    1        6.773   0.355  -1.089  0.00  0.00    -0.520 OA
ENDROOT
BRANCH   7  10
ATOM     10  C   LIG    1        1.180   1.787   0.000  0.00  0.00    +0.140 A 
ATOM     11  C   LIG    1       -0.013   1.076   0.008  0.00  0.00    +0.040 A 
ATOM     12  C   LIG    1       -1.218   1.751   0.017  0.00  0.00    +0.040 A 
ATOM     13  C   LIG    1       -1.237   3.133   0.031  0.00  0.00    +0.020 A 
ATOM     14  C   LIG    1       -0.051   3.845   0.023  0.00  0.00    +0.040 A 
ATOM     15  C   LIG    1        1.157   3.175   0.008  0.00  0.00    +0.010 A 
ENDBRANCH   7  10
BRANCH   1  16
ATOM     16  C   LIG    1        6.533   2.865  -2.527  0.00  0.00    +0.370 C 
BRANCH  16  23
ATOM     17  C   LIG    1        7.716   1.104  -6.456  0.00  0.00    +0.040 C 
ATOM     18  C   LIG    1        7.352   2.582  -6.302  0.00  0.00    +0.230 C 
ATOM     19  C   LIG    1        8.435   3.464  -6.958  0.00  0.00    +0.170 C 
ATOM     20  C   LIG    1        8.551   4.662  -5.980  0.00  0.00    +0.010 C 
ATOM     21  C   LIG    1        8.323   3.970  -4.612  0.00  0.00    +0.260 C 
ATOM     22  N   LIG    1        7.303   2.939  -4.876  0.00  0.00    -0.620 N 
ATOM     23  C   LIG    1        6.469   2.407  -3.961  0.00  0.00    +0.510 C 
ATOM     24  O   LIG    1        5.666   1.561  -4.292  0.00  0.00    -0.520 OA
BRANCH  19  25
ATOM     25  O   LIG    1        9.675   2.759  -7.044  0.00  0.00    -0.550 OA
ATOM     26  H   LIG    1       10.409   3.293  -7.379  0.00  0.00    +0.380 HD
ENDBRANCH  19  25
ENDBRANCH  16  23
ENDBRANCH   1  16
TORSDOF 4
