REMARK  Name = ZINCvU00000006w6.0
REMARK                            x       y       z     vdW  Elec       q    Type
REMARK                         _______ _______ _______ _____ _____    ______ ____
ROOT
ATOM      1  N   LIG    1        0.934  -1.988  -0.384  0.00  0.00    -0.330 N 
ATOM      2  N   LIG    1        1.947  -2.956  -0.483  0.00  0.00    -0.270 NA
ATOM      3  C   LIG    1        1.356  -4.122  -0.487  0.00  0.00    +0.240 A 
ATOM      4  N   LIG    1        0.038  -3.941  -0.407  0.00  0.00    -0.520 NA
ATOM      5  C   LIG    1       -0.232  -2.662  -0.345  0.00  0.00    +0.300 A 
ENDROOT
BRANCH   3   6
ATOM      6  C   LIG    1        2.052  -5.456  -0.576  0.00  0.00    +0.330 C 
ATOM      7  O   LIG    1        3.166  -5.467   0.316  0.00  0.00    -0.360 OA
ATOM      8  C   LIG    1        3.994  -6.626   0.167  0.00  0.00    +0.230 C 
ATOM      9  C   LIG    1        4.740  -6.521  -1.164  0.00  0.00    +0.060 C 
ATOM     10  C   LIG    1        3.770  -6.185  -2.267  0.00  0.00    -0.060 A 
ATOM     11  C   LIG    1        4.159  -6.387  -3.582  0.00  0.00    +0.010 A 
ATOM     12  C   LIG    1        3.296  -6.085  -4.617  0.00  0.00    +0.020 A 
ATOM     13  C   LIG    1        2.040  -5.580  -4.341  0.00  0.00    +0.000 A 
ATOM     14  C   LIG    1        1.651  -5.380  -3.032  0.00  0.00    +0.020 A 
ATOM     15  C   LIG    1        2.515  -5.684  -1.991  0.00  0.00    -0.110 A 
ENDBRANCH   3   6
BRANCH   1  23
ATOM     16  C   LIG    1        2.473  -0.755  -2.436  0.00  0.00    +0.100 C 
ATOM     17  C   LIG    1        1.846   0.045  -1.323  0.00  0.00    -0.050 A 
ATOM     18  C   LIG    1        2.010   1.415  -1.279  0.00  0.00    +0.060 A 
ATOM     19  C   LIG    1        1.435   2.150  -0.259  0.00  0.00    +0.050 A 
ATOM     20  C   LIG    1        0.693   1.514   0.722  0.00  0.00    -0.030 A 
ATOM     21  C   LIG    1        0.525   0.142   0.682  0.00  0.00    +0.040 A 
ATOM     22 CL   LIG    1       -0.033   2.441   1.997  0.00  0.00    -0.050 Cl
ATOM     23  C   LIG    1        1.102  -0.597  -0.342  0.00  0.00    +0.150 A 
ENDBRANCH   1  23
BRANCH   5  24
ATOM     24  C   LIG    1       -1.606  -2.051  -0.246  0.00  0.00    +0.200 C 
BRANCH  24  25
ATOM     25  C   LIG    1       -2.156  -1.803  -1.652  0.00  0.00    -0.130 C 
ATOM     26  C   LIG    1       -2.191  -2.997  -2.668  0.00  0.00    +0.230 C 
ATOM     27  O   LIG    1       -2.784  -2.291  -3.813  0.00  0.00    -0.360 OA
ATOM     28  C   LIG    1       -2.978  -0.944  -3.285  0.00  0.00    +0.070 C 
ATOM     29  C   LIG    1       -3.622   0.095  -4.206  0.00  0.00    +0.110 C 
ATOM     30  C   LIG    1       -1.722  -0.541  -2.460  0.00  0.00    +0.030 C 
ATOM     31  C   LIG    1       -3.560  -1.178  -1.870  0.00  0.00    +0.020 C 
ENDBRANCH  24  25
ENDBRANCH   5  24
TORSDOF 4
