REMARK  Name = ZINCnE000001HuLA.0
REMARK                            x       y       z     vdW  Elec       q    Type
REMARK                         _______ _______ _______ _____ _____    ______ ____
ROOT
ATOM      1  S   LIG    1        3.386   3.278  -0.013  0.00  0.00    +2.610 S 
ATOM      2  O   LIG    1        3.864   2.818  -1.270  0.00  0.00    -1.000 OA
ATOM      3  O   LIG    1        3.887   2.806   1.230  0.00  0.00    -1.020 OA
ENDROOT
BRANCH   1   4
ATOM      4  C   LIG    1        3.608   5.026  -0.007  0.00  0.00    -0.580 A 
ATOM      5  C   LIG    1        4.207   5.643   1.075  0.00  0.00    +0.120 A 
ATOM      6  C   LIG    1        4.381   7.014   1.080  0.00  0.00    +0.020 A 
ATOM      7  C   LIG    1        3.957   7.769   0.003  0.00  0.00    +0.050 A 
ATOM      8  C   LIG    1        3.358   7.152  -1.080  0.00  0.00    +0.040 A 
ATOM      9  C   LIG    1        3.188   5.780  -1.087  0.00  0.00    -0.080 A 
BRANCH   9  10
ATOM     10  C   LIG    1        2.540   5.107  -2.270  0.00  0.00    +0.470 C 
ATOM     11  F   LIG    1        1.383   4.442  -1.852  0.00  0.00    -0.130 F 
ATOM     12  F   LIG    1        3.433   4.185  -2.828  0.00  0.00    -0.140 F 
ATOM     13  F   LIG    1        2.205   6.070  -3.228  0.00  0.00    -0.190 F 
ENDBRANCH   9  10
ENDBRANCH   1   4
BRANCH   1  14
ATOM     14  N   LIG    1        1.755   2.991   0.001  0.00  0.00    -1.030 NA
BRANCH  14  17
ATOM     15  C   LIG    1        0.002  -0.004   0.002  0.00  0.00    +0.150 A 
ATOM     16  N   LIG    1       -0.016   1.306   0.009  0.00  0.00    -0.490 NA
ATOM     17  C   LIG    1        1.280   1.687  -0.001  0.00  0.00    +0.470 A 
ATOM     18  N   LIG    1        2.002   0.599  -0.014  0.00  0.00    -0.510 NA
ATOM     19  O   LIG    1        1.285  -0.379  -0.012  0.00  0.00    +0.040 OA
BRANCH  15  20
ATOM     20  C   LIG    1       -1.198  -0.916   0.009  0.00  0.00    +0.120 C 
ATOM     21  C   LIG    1       -1.180  -1.792  -1.245  0.00  0.00    +0.040 C 
BRANCH  20  23
ATOM     22  C   LIG    1       -2.433  -2.643   1.326  0.00  0.00    +0.030 C 
ATOM     23  C   LIG    1       -1.155  -1.806   1.253  0.00  0.00    +0.020 C 
ENDBRANCH  20  23
ENDBRANCH  15  20
ENDBRANCH  14  17
ENDBRANCH   1  14
TORSDOF 6
