REMARK  Name = ZINCrH00000No4J7.0
REMARK                            x       y       z     vdW  Elec       q    Type
REMARK                         _______ _______ _______ _____ _____    ______ ____
ROOT
ATOM      1  C   LIG    1        1.348  -4.177  -1.477  0.00  0.00    +0.470 C 
ATOM      2  O   LIG    1        1.382  -4.786  -0.434  0.00  0.00    -0.500 OA
ENDROOT
BRANCH   1   3
ATOM      3  O   LIG    1        1.364  -4.841  -2.643  0.00  0.00    -0.360 OA
BRANCH   3   4
ATOM      4  C   LIG    1        1.423  -6.290  -2.576  0.00  0.00    +0.300 C 
BRANCH   4  10
ATOM      5  C   LIG    1        1.486  -8.235  -4.160  0.00  0.00    +0.170 A 
ATOM      6  C   LIG    1        1.495  -8.766  -5.445  0.00  0.00    -0.080 A 
ATOM      7  C   LIG    1        1.451  -7.929  -6.537  0.00  0.00    +0.110 A 
ATOM      8  C   LIG    1        1.398  -6.542  -6.347  0.00  0.00    -0.210 A 
ATOM      9  C   LIG    1        1.384  -6.018  -5.048  0.00  0.00    +0.150 A 
ATOM     10  C   LIG    1        1.433  -6.858  -3.972  0.00  0.00    -0.140 A 
BRANCH   8  11
ATOM     11  C   LIG    1        1.351  -5.641  -7.506  0.00  0.00    +0.400 C 
ATOM     12  O   LIG    1        1.304  -4.441  -7.339  0.00  0.00    -0.460 OA
ATOM     13  C   LIG    1        1.361  -6.209  -8.902  0.00  0.00    +0.080 C 
ENDBRANCH   8  11
BRANCH   5  15
ATOM     14  C   LIG    1        1.583 -10.466  -3.349  0.00  0.00    +0.250 C 
ATOM     15  O   LIG    1        1.529  -9.062  -3.086  0.00  0.00    -0.310 OA
ENDBRANCH   5  15
ENDBRANCH   4  10
ENDBRANCH   3   4
ENDBRANCH   1   3
BRANCH   1  16
ATOM     16  C   LIG    1        1.288  -2.671  -1.468  0.00  0.00    +0.110 C 
BRANCH  16  17
ATOM     17  C   LIG    1        1.281  -2.170  -0.022  0.00  0.00    +0.120 C 
BRANCH  17  18
ATOM     18  C   LIG    1        1.221  -0.664  -0.013  0.00  0.00    -0.210 A 
ATOM     19  C   LIG    1        0.002  -0.004   0.002  0.00  0.00    +0.200 A 
ATOM     20  N   LIG    1       -0.016   1.318   0.009  0.00  0.00    -0.510 NA
ATOM     21  C   LIG    1        1.114   2.011   0.002  0.00  0.00    +0.300 A 
ATOM     22  N   LIG    1        2.296   1.411  -0.012  0.00  0.00    -0.530 NA
ATOM     23  C   LIG    1       -1.287  -0.784   0.011  0.00  0.00    +0.160 C 
ATOM     24  C   LIG    1        2.384   0.091  -0.020  0.00  0.00    +0.200 A 
ATOM     25  C   LIG    1        3.731  -0.583  -0.036  0.00  0.00    +0.150 C 
BRANCH  21  26
ATOM     26  S   LIG    1        1.044   3.772   0.012  0.00  0.00    +0.010 S 
ATOM     27  C   LIG    1        2.812   4.157  -0.003  0.00  0.00    +0.150 C 
ENDBRANCH  21  26
ENDBRANCH  17  18
ENDBRANCH  16  17
ENDBRANCH   1  16
TORSDOF 9
