REMARK  Name = ZINCrH000004m9eN.0
REMARK                            x       y       z     vdW  Elec       q    Type
REMARK                         _______ _______ _______ _____ _____    ______ ____
ROOT
ATOM      1  N   LIG    1        1.401   1.942  -0.001  0.00  0.00    -0.990 NA
ATOM      2  C   LIG    1       -0.019   1.545   0.011  0.00  0.00    +0.290 C 
ATOM      3  C   LIG    1        0.002  -0.004   0.002  0.00  0.00    +0.040 C 
ATOM      4  C   LIG    1        1.229  -0.304   0.904  0.00  0.00    +0.060 C 
ATOM      5  C   LIG    1        2.202   0.841   0.555  0.00  0.00    +0.330 C 
ENDROOT
BRANCH   5   6
ATOM      6  C   LIG    1        2.916   1.304   1.799  0.00  0.00    +0.250 A 
ATOM      7  N   LIG    1        2.375   2.011   2.748  0.00  0.00    -0.460 NA
ATOM      8  C   LIG    1        3.295   2.253   3.717  0.00  0.00    +0.050 A 
ATOM      9  C   LIG    1        3.257   2.944   4.931  0.00  0.00    +0.060 A 
ATOM     10  C   LIG    1        4.378   3.014   5.710  0.00  0.00    +0.000 A 
ATOM     11  C   LIG    1        5.558   2.405   5.309  0.00  0.00    +0.030 A 
ATOM     12  C   LIG    1        5.619   1.718   4.114  0.00  0.00    +0.010 A 
ATOM     13  C   LIG    1        4.490   1.636   3.310  0.00  0.00    +0.050 A 
ATOM     14  N   LIG    1        4.216   1.040   2.096  0.00  0.00    -0.480 N 
ATOM     15  C   LIG    1        5.154   0.268   1.276  0.00  0.00    +0.330 C 
ENDBRANCH   5   6
BRANCH   1  16
ATOM     16  S   LIG    1        1.995   3.387  -0.550  0.00  0.00    +2.710 S 
ATOM     17  O   LIG    1        1.034   3.893  -1.466  0.00  0.00    -0.940 OA
ATOM     18  O   LIG    1        3.353   3.156  -0.896  0.00  0.00    -0.960 OA
BRANCH  16  25
ATOM     19  C   LIG    1        0.819   4.891   1.408  0.00  0.00    +0.250 A 
ATOM     20  C   LIG    1        0.835   5.765   2.485  0.00  0.00    -0.070 A 
ATOM     21  C   LIG    1        2.039   6.242   2.968  0.00  0.00    +0.060 A 
ATOM     22  C   LIG    1        3.227   5.847   2.378  0.00  0.00    -0.020 A 
ATOM     23  C   LIG    1        3.213   4.971   1.308  0.00  0.00    +0.180 A 
ATOM     24 CL   LIG    1        2.061   7.335   4.316  0.00  0.00    -0.050 Cl
ATOM     25  C   LIG    1        2.012   4.497   0.818  0.00  0.00    -0.700 A 
BRANCH  19  27
ATOM     26  C   LIG    1       -1.552   4.869   1.586  0.00  0.00    +0.250 C 
ATOM     27  O   LIG    1       -0.364   4.421   0.930  0.00  0.00    -0.300 OA
ENDBRANCH  19  27
ENDBRANCH  16  25
ENDBRANCH   1  16
TORSDOF 4
