REMARK  Name = ZINCrg00000fSkAJ.0
REMARK                            x       y       z     vdW  Elec       q    Type
REMARK                         _______ _______ _______ _____ _____    ______ ____
ROOT
ATOM      1  N   LIG    1       -2.352  -5.438   0.709  0.00  0.00    -0.530 NA
ATOM      2  C   LIG    1       -1.444  -5.221   1.843  0.00  0.00    +0.180 C 
ATOM      3  C   LIG    1       -2.266  -4.998   3.116  0.00  0.00    +0.300 C 
ATOM      4  N   LIG    1       -3.199  -6.124   3.273  0.00  0.00    -0.610 N 
ATOM      5  C   LIG    1       -4.047  -6.490   2.128  0.00  0.00    +0.280 C 
ATOM      6  C   LIG    1       -3.274  -6.804   4.435  0.00  0.00    +0.600 C 
ATOM      7  O   LIG    1       -2.490  -6.561   5.333  0.00  0.00    -0.520 OA
ATOM      8  C   LIG    1       -3.154  -6.654   0.894  0.00  0.00    +0.190 C 
ENDROOT
BRANCH   6   9
ATOM      9  C   LIG    1       -4.301  -7.835   4.616  0.00  0.00    -0.050 A 
ATOM     10  C   LIG    1       -4.220  -8.912   5.429  0.00  0.00    +0.300 A 
ATOM     11  N   LIG    1       -5.386  -9.621   5.305  0.00  0.00    -0.620 N 
ATOM     12  H   LIG    1       -5.602 -10.441   5.775  0.00  0.00    +0.440 HD
ATOM     13  C   LIG    1       -6.183  -8.989   4.422  0.00  0.00    +0.660 A 
ATOM     14  O   LIG    1       -7.293  -9.353   4.080  0.00  0.00    -0.560 OA
ATOM     15  N   LIG    1       -5.547  -7.885   3.984  0.00  0.00    -0.630 N 
ATOM     16  H   LIG    1       -5.891  -7.242   3.344  0.00  0.00    +0.440 HD
ENDBRANCH   6   9
BRANCH   1  17
ATOM     17  C   LIG    1       -1.609  -5.484  -0.558  0.00  0.00    +0.330 C 
BRANCH  17  20
ATOM     18  C   LIG    1        0.335  -2.486  -0.897  0.00  0.00    +0.230 A 
ATOM     19  N   LIG    1        0.217  -3.721  -0.442  0.00  0.00    -0.480 NA
ATOM     20  C   LIG    1       -0.998  -4.135  -0.832  0.00  0.00    +0.180 A 
ATOM     21  N   LIG    1       -1.553  -3.160  -1.490  0.00  0.00    -0.370 NA
ATOM     22  O   LIG    1       -0.810  -2.202  -1.536  0.00  0.00    +0.090 OA
BRANCH  18  29
ATOM     23  C   LIG    1        0.267   0.174  -2.033  0.00  0.00    +0.110 C 
ATOM     24  C   LIG    1        1.476  -0.304  -1.270  0.00  0.00    -0.040 A 
ATOM     25  C   LIG    1        2.565   0.528  -1.109  0.00  0.00    +0.010 A 
ATOM     26  C   LIG    1        3.678   0.089  -0.414  0.00  0.00    +0.050 A 
ATOM     27  C   LIG    1        3.706  -1.185   0.125  0.00  0.00    +0.000 A 
ATOM     28  C   LIG    1        2.624  -2.027  -0.029  0.00  0.00    +0.080 A 
ATOM     29  C   LIG    1        1.498  -1.590  -0.729  0.00  0.00    -0.040 A 
ENDBRANCH  18  29
ENDBRANCH  17  20
ENDBRANCH   1  17
TORSDOF 4
