REMARK  Name = ZINCvU000000070z.0
REMARK                            x       y       z     vdW  Elec       q    Type
REMARK                         _______ _______ _______ _____ _____    ______ ____
ROOT
ATOM      1  C   LIG    1       -2.175  -4.491  -0.006  0.00  0.00    +0.130 A 
ATOM      2  N   LIG    1       -3.416  -4.902   0.009  0.00  0.00    -0.260 NA
ATOM      3  O   LIG    1       -4.252  -3.758   0.023  0.00  0.00    +0.040 OA
ATOM      4  N   LIG    1       -3.415  -2.615   0.021  0.00  0.00    -0.260 NA
ATOM      5  C   LIG    1       -2.177  -3.023   0.007  0.00  0.00    +0.300 A 
ENDROOT
BRANCH   1   9
ATOM      6  C   LIG    1        1.279  -6.976  -0.075  0.00  0.00    +0.130 A 
ATOM      7  C   LIG    1        1.282  -5.766  -0.752  0.00  0.00    -0.020 A 
ATOM      8  C   LIG    1        0.163  -4.958  -0.731  0.00  0.00    +0.040 A 
ATOM      9  C   LIG    1       -0.973  -5.358  -0.029  0.00  0.00    -0.050 A 
ATOM     10  C   LIG    1       -0.975  -6.572   0.657  0.00  0.00    +0.020 A 
ATOM     11  C   LIG    1        0.147  -7.380   0.628  0.00  0.00    +0.110 A 
BRANCH   6  12
ATOM     12  O   LIG    1        2.383  -7.768  -0.097  0.00  0.00    -0.300 OA
BRANCH  12  14
ATOM     13  C   LIG    1        4.647  -8.310  -0.748  0.00  0.00    +0.070 C 
ATOM     14  C   LIG    1        3.509  -7.292  -0.838  0.00  0.00    +0.190 C 
ENDBRANCH  12  14
ENDBRANCH   6  12
BRANCH  11  15
ATOM     15  O   LIG    1        0.146  -8.568   1.292  0.00  0.00    -0.300 OA
BRANCH  15  16
ATOM     16  C   LIG    1       -1.049  -8.919   1.992  0.00  0.00    +0.180 C 
ATOM     17  C   LIG    1       -0.861 -10.277   2.672  0.00  0.00    +0.070 C 
ENDBRANCH  15  16
ENDBRANCH  11  15
ENDBRANCH   1   9
BRANCH   5  18
ATOM     18  N   LIG    1       -1.049  -2.206   0.001  0.00  0.00    -0.620 N 
ATOM     19  H   LIG    1       -0.164  -2.602  -0.010  0.00  0.00    +0.430 HD
ATOM     20  C   LIG    1       -1.188  -0.866   0.009  0.00  0.00    +0.600 C 
ATOM     21  O   LIG    1       -2.298  -0.369   0.023  0.00  0.00    -0.450 OA
BRANCH  20  22
ATOM     22  C   LIG    1        0.002  -0.004   0.002  0.00  0.00    -0.050 A 
ATOM     23  C   LIG    1       -0.016   1.354   0.009  0.00  0.00    -0.040 A 
ATOM     24  C   LIG    1        1.383   1.778  -0.002  0.00  0.00    -0.140 A 
ATOM     25  C   LIG    1        2.024   3.019  -0.001  0.00  0.00    +0.100 A 
ATOM     26  C   LIG    1        3.390   3.076  -0.014  0.00  0.00    -0.050 A 
ATOM     27  C   LIG    1        4.143   1.909  -0.028  0.00  0.00    +0.080 A 
ATOM     28  C   LIG    1        3.528   0.675  -0.028  0.00  0.00    +0.050 A 
ATOM     29 CL   LIG    1        4.190   4.617  -0.013  0.00  0.00    -0.050 Cl
ATOM     30  C   LIG    1        2.141   0.592  -0.015  0.00  0.00    +0.090 A 
ATOM     31  C   LIG    1       -1.233   2.244   0.020  0.00  0.00    +0.170 C 
ATOM     32  O   LIG    1        1.278  -0.443  -0.013  0.00  0.00    -0.180 OA
ENDBRANCH  20  22
ENDBRANCH   5  18
TORSDOF 7
