REMARK  Name = ZINCpk000000mS3O.0
REMARK                            x       y       z     vdW  Elec       q    Type
REMARK                         _______ _______ _______ _____ _____    ______ ____
ROOT
ATOM      1  C   LIG    1        2.422  -0.958  -0.114  0.00  0.00    +0.440 A 
ATOM      2  N   LIG    1        1.906   0.254  -0.223  0.00  0.00    -0.600 NA
ATOM      3  C   LIG    1        0.589   0.428  -0.142  0.00  0.00    +0.620 A 
ATOM      4  N   LIG    1       -0.208  -0.618   0.048  0.00  0.00    -0.640 NA
ATOM      5  C   LIG    1        0.315  -1.834   0.158  0.00  0.00    +0.630 A 
ATOM      6  N   LIG    1        1.633  -2.001   0.076  0.00  0.00    -0.630 NA
ENDROOT
BRANCH   3   7
ATOM      7  N   LIG    1        0.051   1.694  -0.257  0.00  0.00    -0.800 N 
ATOM      8  H   LIG    1        0.633   2.458  -0.396  0.00  0.00    +0.420 HD
ATOM      9  H   LIG    1       -0.909   1.821  -0.198  0.00  0.00    +0.420 HD
ENDBRANCH   3   7
BRANCH   1  10
ATOM     10  C   LIG    1        3.913  -1.151  -0.206  0.00  0.00    +0.220 C 
ATOM     11  C   LIG    1        4.353  -1.033  -1.667  0.00  0.00    +0.070 C 
BRANCH  10  17
ATOM     12  C   LIG    1        6.335   1.388   5.036  0.00  0.00    +0.080 C 
ATOM     13  C   LIG    1        6.940   1.122   3.682  0.00  0.00    +0.510 C 
ATOM     14  N   LIG    1        6.147   1.034   2.595  0.00  0.00    -0.620 N 
ATOM     15  C   LIG    1        4.683   1.085   2.723  0.00  0.00    +0.290 C 
ATOM     16  C   LIG    1        4.088  -0.112   1.974  0.00  0.00    +0.160 C 
ATOM     17  N   LIG    1        4.591  -0.122   0.594  0.00  0.00    -0.520 NA
ATOM     18  C   LIG    1        6.048  -0.303   0.559  0.00  0.00    +0.180 C 
ATOM     19  C   LIG    1        6.724   0.886   1.250  0.00  0.00    +0.300 C 
ATOM     20  O   LIG    1        8.140   0.987   3.570  0.00  0.00    -0.550 OA
ENDBRANCH  10  17
ENDBRANCH   1  10
BRANCH   5  21
ATOM     21  N   LIG    1       -0.509  -2.925   0.356  0.00  0.00    -0.630 N 
ATOM     22  H   LIG    1       -0.136  -3.821   0.359  0.00  0.00    +0.430 HD
BRANCH  21  23
ATOM     23  C   LIG    1       -1.881  -2.739   0.552  0.00  0.00    +0.160 A 
ATOM     24  C   LIG    1       -2.343  -1.605   1.209  0.00  0.00    +0.020 A 
ATOM     25  C   LIG    1       -3.699  -1.422   1.397  0.00  0.00    +0.020 A 
ATOM     26  C   LIG    1       -4.596  -2.370   0.940  0.00  0.00    -0.020 A 
ATOM     27  C   LIG    1       -4.139  -3.502   0.291  0.00  0.00    +0.030 A 
ATOM     28  C   LIG    1       -2.785  -3.689   0.095  0.00  0.00    -0.020 A 
ENDBRANCH  21  23
ENDBRANCH   5  21
TORSDOF 5
