REMARK  Name = ZINCpe00000bcWHn.0
REMARK                            x       y       z     vdW  Elec       q    Type
REMARK                         _______ _______ _______ _____ _____    ______ ____
ROOT
ATOM      1  C   LIG    1       -3.665   3.286   2.642  0.00  0.00    +0.560 C 
ATOM      2  N   LIG    1       -3.109   2.917   1.472  0.00  0.00    -0.720 N 
ATOM      3  H   LIG    1       -3.442   3.286   0.638  0.00  0.00    +0.400 HD
ATOM      4  O   LIG    1       -3.248   2.823   3.686  0.00  0.00    -0.520 OA
ENDROOT
BRANCH   1   9
ATOM      5  C   LIG    1       -6.409   5.544   3.873  0.00  0.00    +0.140 A 
ATOM      6  C   LIG    1       -6.881   6.068   2.675  0.00  0.00    +0.010 A 
ATOM      7  C   LIG    1       -6.308   5.688   1.476  0.00  0.00    +0.040 A 
ATOM      8  C   LIG    1       -5.261   4.790   1.460  0.00  0.00    +0.030 A 
ATOM      9  C   LIG    1       -4.783   4.253   2.657  0.00  0.00    -0.120 A 
ATOM     10  C   LIG    1       -5.361   4.636   3.867  0.00  0.00    +0.090 A 
BRANCH   5  12
ATOM     11  C   LIG    1       -6.237   6.022   6.197  0.00  0.00    +0.540 C 
ATOM     12  N   LIG    1       -6.992   5.931   5.083  0.00  0.00    -0.670 N 
ATOM     13  H   LIG    1       -7.940   6.135   5.122  0.00  0.00    +0.410 HD
ATOM     14  O   LIG    1       -5.034   5.860   6.130  0.00  0.00    -0.520 OA
BRANCH  11  16
ATOM     15  C   LIG    1       -6.124   6.404   8.590  0.00  0.00    +0.160 C 
ATOM     16  C   LIG    1       -6.869   6.315   7.492  0.00  0.00    -0.090 C 
ENDBRANCH  11  16
ENDBRANCH   5  12
ENDBRANCH   1   9
BRANCH   2  17
ATOM     17  C   LIG    1       -2.001   1.958   1.457  0.00  0.00    +0.270 C 
BRANCH  17  18
ATOM     18  C   LIG    1       -1.557   1.713   0.013  0.00  0.00    +0.320 C 
BRANCH  18  19
ATOM     19  N   LIG    1       -0.449   0.755  -0.001  0.00  0.00    -0.570 N 
ATOM     20  C   LIG    1        0.842   1.098   0.066  0.00  0.00    +0.700 C 
ATOM     21  N   LIG    1        1.660   0.031   0.029  0.00  0.00    -0.720 N 
ATOM     22  H   LIG    1        2.629   0.042   0.064  0.00  0.00    +0.440 HD
ATOM     23  C   LIG    1        0.797  -1.158  -0.076  0.00  0.00    +0.120 C 
ATOM     24  C   LIG    1        1.078  -1.919  -1.373  0.00  0.00    +0.090 C 
ATOM     25  C   LIG    1        0.990  -2.072   1.135  0.00  0.00    +0.090 C 
ATOM     26  O   LIG    1        1.233   2.246   0.152  0.00  0.00    -0.540 OA
ATOM     27  C   LIG    1       -0.605  -0.581  -0.090  0.00  0.00    +0.530 C 
ATOM     28  O   LIG    1       -1.649  -1.193  -0.165  0.00  0.00    -0.460 OA
ENDBRANCH  18  19
ENDBRANCH  17  18
ENDBRANCH   2  17
TORSDOF 6
