REMARK  Name = ZINCrD0000074AO1.0
REMARK                            x       y       z     vdW  Elec       q    Type
REMARK                         _______ _______ _______ _____ _____    ______ ____
ROOT
ATOM      1  O   LIG    1       -6.507   4.936   1.220  0.00  0.00    -0.320 OA
ENDROOT
BRANCH   1   2
ATOM      2  C   LIG    1       -7.687   4.732   0.614  0.00  0.00    +0.470 C 
ATOM      3  O   LIG    1       -7.965   3.638   0.184  0.00  0.00    -0.510 OA
BRANCH   2   4
ATOM      4  C   LIG    1       -8.666   5.869   0.468  0.00  0.00    +0.130 C 
BRANCH   4   5
ATOM      5  C   LIG    1       -9.921   5.373  -0.253  0.00  0.00    +0.060 C 
BRANCH   5   6
ATOM      6  C   LIG    1      -10.899   6.510  -0.398  0.00  0.00    +0.400 C 
ATOM      7  O   LIG    1      -10.621   7.608   0.033  0.00  0.00    -0.450 OA
BRANCH   6  12
ATOM      8  C   LIG    1      -15.954   5.637  -2.994  0.00  0.00    +0.100 C 
ATOM      9  C   LIG    1      -14.629   5.865  -2.314  0.00  0.00    -0.050 A 
ATOM     10  C   LIG    1      -14.315   7.121  -1.823  0.00  0.00    -0.010 A 
ATOM     11  C   LIG    1      -13.104   7.338  -1.199  0.00  0.00    +0.080 A 
ATOM     12  C   LIG    1      -12.193   6.286  -1.063  0.00  0.00    -0.180 A 
ATOM     13  C   LIG    1      -12.516   5.022  -1.566  0.00  0.00    +0.060 A 
ATOM     14  C   LIG    1      -13.733   4.819  -2.182  0.00  0.00    -0.010 A 
ENDBRANCH   6  12
ENDBRANCH   5   6
ENDBRANCH   4   5
ENDBRANCH   2   4
ENDBRANCH   1   2
BRANCH   1  15
ATOM     15  C   LIG    1       -5.614   3.796   1.324  0.00  0.00    +0.200 C 
ATOM     16  C   LIG    1       -5.892   3.049   2.630  0.00  0.00    +0.070 C 
BRANCH  15  17
ATOM     17  C   LIG    1       -4.185   4.275   1.314  0.00  0.00    +0.520 C 
ATOM     18  N   LIG    1       -3.175   3.382   1.299  0.00  0.00    -0.650 N 
ATOM     19  H   LIG    1       -3.369   2.432   1.295  0.00  0.00    +0.410 HD
ATOM     20  O   LIG    1       -3.943   5.463   1.319  0.00  0.00    -0.470 OA
BRANCH  18  21
ATOM     21  C   LIG    1       -1.853   3.825   1.290  0.00  0.00    +0.300 A 
ATOM     22  C   LIG    1       -1.439   5.122   1.293  0.00  0.00    -0.110 A 
ATOM     23  C   LIG    1       -0.042   5.125   1.281  0.00  0.00    +0.250 A 
ATOM     24  N   LIG    1        0.372   3.884   1.275  0.00  0.00    -0.280 NA
ATOM     25  N   LIG    1       -0.749   3.044   1.275  0.00  0.00    -0.380 N 
BRANCH  25  26
ATOM     26  C   LIG    1       -0.729   1.579   1.267  0.00  0.00    +0.250 C 
ATOM     27  C   LIG    1        0.011   1.072   2.506  0.00  0.00    +0.050 C 
ATOM     28  C   LIG    1       -0.013   1.086   0.008  0.00  0.00    +0.050 C 
ENDBRANCH  25  26
ENDBRANCH  18  21
ENDBRANCH  15  17
ENDBRANCH   1  15
TORSDOF 9
