REMARK  Name = ZINCpk00000eabkC.1
REMARK                            x       y       z     vdW  Elec       q    Type
REMARK                         _______ _______ _______ _____ _____    ______ ____
ROOT
ATOM      1  C   LIG    1       -2.051   1.207  -1.432  0.00  0.00    +0.530 C 
ATOM      2  N   LIG    1       -2.994   1.920  -0.785  0.00  0.00    -0.720 N 
ATOM      3  H   LIG    1       -3.656   1.467  -0.240  0.00  0.00    +0.390 HD
ATOM      4  O   LIG    1       -1.224   1.773  -2.114  0.00  0.00    -0.520 OA
ENDROOT
BRANCH   1   5
ATOM      5  C   LIG    1       -2.025  -0.295  -1.308  0.00  0.00    +0.210 C 
BRANCH   5   6
ATOM      6  C   LIG    1       -1.240  -0.690  -0.055  0.00  0.00    +0.090 C 
ATOM      7  C   LIG    1       -2.015  -0.285   1.224  0.00  0.00    +0.010 C 
ATOM      8  C   LIG    1       -1.438  -1.247   2.292  0.00  0.00    +0.010 C 
ATOM      9  C   LIG    1       -1.245  -2.579   1.538  0.00  0.00    +0.020 C 
ATOM     10  C   LIG    1       -1.120  -2.224   0.045  0.00  0.00    +0.010 C 
BRANCH   6  12
ATOM     11  C   LIG    1        0.846  -0.384   1.085  0.00  0.00    +0.200 C 
ATOM     12  O   LIG    1        0.055  -0.086  -0.067  0.00  0.00    -0.360 OA
ENDBRANCH   6  12
ENDBRANCH   5   6
BRANCH   5  13
ATOM     13  N   LIG    1       -1.378  -0.873  -2.493  0.00  0.00    -0.820 NA
ATOM     14  H   LIG    1       -1.406  -1.881  -2.465  0.00  0.00    +0.350 HD
ATOM     15  H   LIG    1       -0.431  -0.540  -2.587  0.00  0.00    +0.360 HD
ENDBRANCH   5  13
ENDBRANCH   1   5
BRANCH   2  16
ATOM     16  C   LIG    1       -3.020   3.380  -0.906  0.00  0.00    +0.330 C 
BRANCH  16  17
ATOM     17  C   LIG    1       -4.162   3.931  -0.092  0.00  0.00    -0.090 A 
ATOM     18  C   LIG    1       -5.341   4.292  -0.713  0.00  0.00    +0.030 A 
ATOM     19  C   LIG    1       -6.392   4.794   0.034  0.00  0.00    +0.010 A 
ATOM     20  C   LIG    1       -6.262   4.946   1.402  0.00  0.00    +0.020 A 
ATOM     21  C   LIG    1       -5.083   4.591   2.028  0.00  0.00    -0.030 A 
ATOM     22  C   LIG    1       -4.028   4.082   1.282  0.00  0.00    +0.100 A 
BRANCH  22  23
ATOM     23  N   LIG    1       -2.834   3.723   1.913  0.00  0.00    -0.490 N 
ATOM     24  C   LIG    1       -3.049   2.615   2.855  0.00  0.00    +0.160 C 
ATOM     25  C   LIG    1       -1.708   2.216   3.478  0.00  0.00    +0.220 C 
ATOM     26  O   LIG    1       -1.122   3.357   4.108  0.00  0.00    -0.380 OA
ATOM     27  C   LIG    1       -0.898   4.455   3.219  0.00  0.00    +0.220 C 
ATOM     28  C   LIG    1       -2.230   4.878   2.594  0.00  0.00    +0.160 C 
ENDBRANCH  22  23
ENDBRANCH  16  17
ENDBRANCH   2  16
TORSDOF 7
