REMARK  Name = ZINCvU00000008Sw.0
REMARK                            x       y       z     vdW  Elec       q    Type
REMARK                         _______ _______ _______ _____ _____    ______ ____
ROOT
ATOM      1  C   LIG    1        1.407   4.096   1.436  0.00  0.00    -0.030 C 
ATOM      2  S   LIG    1        1.003   5.868   1.483  0.00  0.00    +0.090 S 
ATOM      3  C   LIG    1        1.792   6.337  -0.025  0.00  0.00    +0.130 A 
ATOM      4  N   LIG    1        2.057   7.539  -0.455  0.00  0.00    -0.240 NA
ATOM      5  N   LIG    1        2.632   7.466  -1.606  0.00  0.00    -0.280 NA
ATOM      6  C   LIG    1        2.764   6.218  -1.963  0.00  0.00    +0.250 A 
ATOM      7  N   LIG    1        2.238   5.451  -0.964  0.00  0.00    -0.310 N 
ATOM      8  N   LIG    1        2.177   4.096  -0.904  0.00  0.00    -0.430 N 
ATOM      9  H   LIG    1        3.080   3.702  -0.684  0.00  0.00    +0.360 HD
ATOM     10  C   LIG    1        1.150   3.592   0.010  0.00  0.00    +0.280 C 
ENDROOT
BRANCH  10  11
ATOM     11  C   LIG    1        1.171   2.086   0.002  0.00  0.00    -0.090 A 
ATOM     12  C   LIG    1       -0.017   1.378   0.010  0.00  0.00    +0.060 A 
ATOM     13  C   LIG    1        0.002  -0.004   0.002  0.00  0.00    +0.030 A 
ATOM     14  C   LIG    1        1.210  -0.679  -0.013  0.00  0.00    -0.020 A 
ATOM     15  C   LIG    1        2.398   0.030  -0.021  0.00  0.00    +0.040 A 
ATOM     16 CL   LIG    1        1.234  -2.415  -0.022  0.00  0.00    -0.050 Cl
ATOM     17  C   LIG    1        2.378   1.412  -0.013  0.00  0.00    +0.040 A 
ENDBRANCH  10  11
BRANCH   6  18
ATOM     18  C   LIG    1        3.383   5.716  -3.242  0.00  0.00    +0.040 C 
ATOM     19  C   LIG    1        4.092   6.739  -4.133  0.00  0.00    +0.070 C 
ATOM     20  C   LIG    1        2.741   6.159  -4.559  0.00  0.00    +0.060 C 
ENDBRANCH   6  18
BRANCH   1  22
ATOM     21  O   LIG    1        3.651   4.800   1.645  0.00  0.00    -0.420 OA
ATOM     22  C   LIG    1        2.857   3.894   1.794  0.00  0.00    +0.390 C 
BRANCH  22  23
ATOM     23  C   LIG    1        3.309   2.601   2.324  0.00  0.00    -0.200 A 
ATOM     24  C   LIG    1        2.395   1.556   2.503  0.00  0.00    +0.120 A 
ATOM     25  C   LIG    1        2.823   0.350   2.993  0.00  0.00    -0.060 A 
ATOM     26  C   LIG    1        4.162   0.166   3.323  0.00  0.00    +0.160 A 
ATOM     27  C   LIG    1        5.074   1.202   3.152  0.00  0.00    +0.000 A 
ATOM     28  C   LIG    1        4.656   2.411   2.658  0.00  0.00    +0.130 A 
BRANCH  26  29
ATOM     29  O   LIG    1        4.580  -1.028   3.813  0.00  0.00    -0.310 OA
BRANCH  29  30
ATOM     30  C   LIG    1        3.591  -2.049   3.963  0.00  0.00    +0.600 C 
ATOM     31  F   LIG    1        3.021  -2.333   2.718  0.00  0.00    -0.190 F 
ATOM     32  F   LIG    1        2.596  -1.609   4.843  0.00  0.00    -0.190 F 
ENDBRANCH  29  30
ENDBRANCH  26  29
ENDBRANCH  22  23
ENDBRANCH   1  22
TORSDOF 6
