REMARK  Name = ZINCvU000000080a.0
REMARK                            x       y       z     vdW  Elec       q    Type
REMARK                         _______ _______ _______ _____ _____    ______ ____
ROOT
ATOM      1  N   LIG    1       -1.350  -1.712  -1.117  0.00  0.00    -0.510 N 
ATOM      2  C   LIG    1       -0.875  -2.965  -0.974  0.00  0.00    +0.560 A 
ATOM      3  C   LIG    1       -0.915  -3.849  -2.090  0.00  0.00    -0.230 A 
ATOM      4  C   LIG    1       -1.447  -3.373  -3.284  0.00  0.00    +0.090 A 
ATOM      5  S   LIG    1       -1.391  -4.632  -4.510  0.00  0.00    +0.230 S 
ATOM      6  C   LIG    1       -0.657  -5.778  -3.405  0.00  0.00    -0.030 A 
ATOM      7  N   LIG    1       -1.903  -2.105  -3.352  0.00  0.00    -0.520 NA
ATOM      8  C   LIG    1       -0.473  -5.235  -2.200  0.00  0.00    +0.040 A 
ATOM      9  O   LIG    1       -0.419  -3.336   0.094  0.00  0.00    -0.500 OA
ATOM     10  C   LIG    1       -1.865  -1.305  -2.313  0.00  0.00    +0.370 A 
ENDROOT
BRANCH   8  11
ATOM     11  C   LIG    1        0.129  -5.975  -1.072  0.00  0.00    +0.040 A 
ATOM     12  C   LIG    1       -0.246  -7.207  -0.635  0.00  0.00    -0.030 A 
ATOM     13  C   LIG    1        0.593  -7.525   0.453  0.00  0.00    -0.070 A 
ATOM     14  C   LIG    1        1.423  -6.480   0.629  0.00  0.00    +0.000 A 
ATOM     15  C   LIG    1        2.492  -6.375   1.687  0.00  0.00    +0.180 C 
ATOM     16  O   LIG    1        1.140  -5.544  -0.294  0.00  0.00    -0.150 OA
ENDBRANCH   8  11
BRANCH   1  17
ATOM     17  C   LIG    1       -1.319  -0.786   0.018  0.00  0.00    +0.340 C 
BRANCH  17  19
ATOM     18  C   LIG    1       -0.026   1.285   0.014  0.00  0.00    +0.070 C 
ATOM     19  C   LIG    1       -0.018  -0.025   0.009  0.00  0.00    -0.070 C 
ENDBRANCH  17  19
ENDBRANCH   1  17
BRANCH  10  20
ATOM     20  S   LIG    1       -2.485   0.337  -2.469  0.00  0.00    +0.110 S 
BRANCH  20  21
ATOM     21  C   LIG    1       -3.015   0.310  -4.199  0.00  0.00    +0.120 C 
BRANCH  21  22
ATOM     22  C   LIG    1       -3.597   1.650  -4.568  0.00  0.00    +0.530 C 
ATOM     23  N   LIG    1       -4.060   1.864  -5.815  0.00  0.00    -0.660 N 
ATOM     24  H   LIG    1       -3.947   1.184  -6.498  0.00  0.00    +0.420 HD
ATOM     25  O   LIG    1       -3.648   2.537  -3.742  0.00  0.00    -0.500 OA
BRANCH  23  26
ATOM     26  C   LIG    1       -4.704   3.067  -6.126  0.00  0.00    +0.140 A 
ATOM     27  C   LIG    1       -5.325   3.802  -5.125  0.00  0.00    +0.020 A 
ATOM     28  C   LIG    1       -5.955   4.992  -5.433  0.00  0.00    +0.030 A 
ATOM     29  C   LIG    1       -5.978   5.445  -6.740  0.00  0.00    -0.010 A 
ATOM     30  C   LIG    1       -5.366   4.712  -7.740  0.00  0.00    +0.030 A 
ATOM     31  C   LIG    1       -4.729   3.525  -7.437  0.00  0.00    -0.110 A 
ATOM     32  C   LIG    1       -4.063   2.727  -8.527  0.00  0.00    +0.080 C 
ENDBRANCH  23  26
ENDBRANCH  21  22
ENDBRANCH  20  21
ENDBRANCH  10  20
TORSDOF 7
