REMARK  Name = ZINCtV000002LjFr.0
REMARK                            x       y       z     vdW  Elec       q    Type
REMARK                         _______ _______ _______ _____ _____    ______ ____
ROOT
ATOM      1  C   LIG    1        1.232  -2.158  -0.030  0.00  0.00    -0.020 A 
ATOM      2  C   LIG    1        0.541  -2.893   0.839  0.00  0.00    -0.020 A 
ATOM      3  S   LIG    1        0.837  -4.605   0.603  0.00  0.00    +0.200 S 
ATOM      4  C   LIG    1        1.950  -4.304  -0.724  0.00  0.00    +0.110 A 
ATOM      5  N   LIG    1        2.653  -5.146  -1.490  0.00  0.00    -0.510 NA
ATOM      6  C   LIG    1        3.439  -4.699  -2.442  0.00  0.00    +0.560 A 
ATOM      7  N   LIG    1        3.576  -3.410  -2.692  0.00  0.00    -0.560 NA
ATOM      8  C   LIG    1        2.920  -2.502  -1.987  0.00  0.00    +0.410 A 
ATOM      9  C   LIG    1        2.060  -2.930  -0.948  0.00  0.00    -0.180 A 
ENDROOT
BRANCH   1  14
ATOM     10  F   LIG    1        0.994   3.439  -0.136  0.00  0.00    -0.140 F 
ATOM     11  C   LIG    1        1.051   2.090  -0.110  0.00  0.00    +0.110 A 
ATOM     12  C   LIG    1       -0.119   1.349  -0.106  0.00  0.00    -0.010 A 
ATOM     13  C   LIG    1       -0.066  -0.030  -0.080  0.00  0.00    +0.070 A 
ATOM     14  C   LIG    1        1.169  -0.677  -0.058  0.00  0.00    -0.050 A 
ATOM     15  C   LIG    1        2.344   0.073  -0.062  0.00  0.00    +0.080 A 
ATOM     16  C   LIG    1        2.280   1.451  -0.089  0.00  0.00    -0.010 A 
ENDBRANCH   1  14
BRANCH   8  17
ATOM     17  O   LIG    1        3.070  -1.183  -2.255  0.00  0.00    -0.230 OA
BRANCH  17  18
ATOM     18  C   LIG    1        3.979  -0.824  -3.200  0.00  0.00    +0.080 A 
ATOM     19  C   LIG    1        5.206  -0.300  -2.817  0.00  0.00    +0.020 A 
ATOM     20  C   LIG    1        6.133   0.060  -3.773  0.00  0.00    +0.040 A 
ATOM     21  C   LIG    1        5.831  -0.091  -5.125  0.00  0.00    -0.030 A 
ATOM     22  C   LIG    1        4.595  -0.611  -5.507  0.00  0.00    +0.030 A 
ATOM     23  C   LIG    1        3.675  -0.975  -4.546  0.00  0.00    +0.030 A 
BRANCH  21  24
ATOM     24  C   LIG    1        6.822   0.302  -6.156  0.00  0.00    -0.050 A 
ATOM     25  C   LIG    1        6.524   0.147  -7.509  0.00  0.00    +0.020 A 
ATOM     26  C   LIG    1        7.448   0.518  -8.464  0.00  0.00    +0.010 A 
ATOM     27  C   LIG    1        8.673   1.034  -8.081  0.00  0.00    +0.000 A 
ATOM     28  C   LIG    1        8.977   1.186  -6.739  0.00  0.00    +0.010 A 
ATOM     29  C   LIG    1        8.058   0.822  -5.776  0.00  0.00    +0.020 A 
ENDBRANCH  21  24
ENDBRANCH  17  18
ENDBRANCH   8  17
TORSDOF 4
