REMARK  Name = ZINCrD00000hQ7qx.0
REMARK                            x       y       z     vdW  Elec       q    Type
REMARK                         _______ _______ _______ _____ _____    ______ ____
ROOT
ATOM      1  C   LIG    1        1.322   0.375   1.869  0.00  0.00    -0.050 A 
ATOM      2  C   LIG    1        1.876   0.921   2.966  0.00  0.00    +0.170 A 
ATOM      3  O   LIG    1        3.207   0.727   2.882  0.00  0.00    -0.190 OA
ATOM      4  C   LIG    1        3.452   0.072   1.734  0.00  0.00    +0.220 A 
ATOM      5  N   LIG    1        2.311  -0.140   1.122  0.00  0.00    -0.450 NA
ENDROOT
BRANCH   4   6
ATOM      6  C   LIG    1        4.785  -0.339   1.243  0.00  0.00    +0.020 A 
ATOM      7  C   LIG    1        4.905  -1.020   0.031  0.00  0.00    +0.080 A 
ATOM      8  C   LIG    1        6.152  -1.397  -0.424  0.00  0.00    +0.080 A 
ATOM      9  C   LIG    1        7.280  -1.110   0.323  0.00  0.00    -0.170 A 
ATOM     10  C   LIG    1        7.167  -0.439   1.527  0.00  0.00    +0.080 A 
ATOM     11  C   LIG    1        5.927  -0.052   1.991  0.00  0.00    +0.050 A 
BRANCH   9  12
ATOM     12  C   LIG    1        8.638  -1.530  -0.177  0.00  0.00    +0.510 C 
ATOM     13  F   LIG    1        9.604  -0.628   0.282  0.00  0.00    -0.170 F 
ATOM     14  F   LIG    1        8.637  -1.540  -1.576  0.00  0.00    -0.170 F 
ATOM     15  F   LIG    1        8.934  -2.812   0.298  0.00  0.00    -0.170 F 
ENDBRANCH   9  12
ENDBRANCH   4   6
BRANCH   1  16
ATOM     16  C   LIG    1       -0.147   0.350   1.534  0.00  0.00    +0.340 C 
BRANCH  16  23
ATOM     17  C   LIG    1       -0.891   5.123   1.424  0.00  0.00    +0.030 C 
ATOM     18  C   LIG    1       -0.778   3.902   0.510  0.00  0.00    -0.060 C 
ATOM     19  C   LIG    1        0.174   4.204  -0.619  0.00  0.00    +0.030 C 
ATOM     20  C   LIG    1       -0.215   3.488  -1.929  0.00  0.00    +0.180 C 
ATOM     21  C   LIG    1       -0.671   2.041  -1.679  0.00  0.00    +0.150 C 
ATOM     22  C   LIG    1        0.191   1.355  -0.649  0.00  0.00    +0.170 C 
ATOM     23  N   LIG    1       -0.470   1.489   0.664  0.00  0.00    -0.540 NA
ATOM     24  C   LIG    1       -2.155   3.556  -0.059  0.00  0.00    +0.040 C 
ATOM     25  C   LIG    1       -0.236   2.701   1.317  0.00  0.00    +0.170 C 
BRANCH  21  26
ATOM     26  O   LIG    1       -0.600   1.311  -2.906  0.00  0.00    -0.570 OA
ATOM     27  H   LIG    1       -0.903   0.396  -2.838  0.00  0.00    +0.380 HD
ENDBRANCH  21  26
BRANCH  20  28
ATOM     28  O   LIG    1        0.915   3.475  -2.804  0.00  0.00    -0.560 OA
ATOM     29  H   LIG    1        0.740   3.074  -3.666  0.00  0.00    +0.390 HD
ENDBRANCH  20  28
ENDBRANCH  16  23
ENDBRANCH   1  16
TORSDOF 6
