REMARK  Name = ZINCqH00000381E1.0
REMARK                            x       y       z     vdW  Elec       q    Type
REMARK                         _______ _______ _______ _____ _____    ______ ____
ROOT
ATOM      1  C   LIG    1        3.466   1.199   3.500  0.00  0.00    +0.200 A 
ATOM      2  C   LIG    1        4.146   0.842   2.344  0.00  0.00    +0.010 A 
ATOM      3  C   LIG    1        5.511   0.634   2.384  0.00  0.00    +0.140 A 
ATOM      4  C   LIG    1        6.198   0.769   3.576  0.00  0.00    -0.690 A 
ATOM      5  C   LIG    1        5.522   1.120   4.731  0.00  0.00    +0.140 A 
ATOM      6  C   LIG    1        4.158   1.335   4.697  0.00  0.00    -0.030 A 
ENDROOT
BRANCH   1   8
ATOM      7  C   LIG    1        1.521   1.978   2.375  0.00  0.00    +0.560 C 
ATOM      8  N   LIG    1        2.084   1.416   3.462  0.00  0.00    -0.670 N 
ATOM      9  H   LIG    1        1.532   1.162   4.218  0.00  0.00    +0.410 HD
ATOM     10  O   LIG    1        2.197   2.214   1.392  0.00  0.00    -0.500 OA
BRANCH   7  16
ATOM     11  C   LIG    1       -2.850   2.220   4.770  0.00  0.00    +0.090 C 
ATOM     12  C   LIG    1       -2.026   2.427   3.525  0.00  0.00    -0.100 A 
ATOM     13  C   LIG    1       -2.619   2.928   2.380  0.00  0.00    +0.050 A 
ATOM     14  C   LIG    1       -1.868   3.127   1.235  0.00  0.00    +0.000 A 
ATOM     15  C   LIG    1       -0.525   2.815   1.224  0.00  0.00    -0.020 A 
ATOM     16  C   LIG    1        0.080   2.308   2.376  0.00  0.00    -0.140 A 
ATOM     17  C   LIG    1        0.290   3.026  -0.026  0.00  0.00    +0.110 C 
ATOM     18  C   LIG    1       -0.682   2.116   3.530  0.00  0.00    +0.040 A 
ENDBRANCH   7  16
ENDBRANCH   1   8
BRANCH   4  19
ATOM     19  S   LIG    1        7.938   0.495   3.625  0.00  0.00    +2.690 S 
ATOM     20  O   LIG    1        8.426   1.212   4.750  0.00  0.00    -0.960 OA
ATOM     21  O   LIG    1        8.414   0.706   2.303  0.00  0.00    -0.950 OA
BRANCH  19  22
ATOM     22  N   LIG    1        8.172  -1.111   3.956  0.00  0.00    -1.110 NA
ATOM     23  H   LIG    1        8.595  -1.378   4.787  0.00  0.00    +0.420 HD
BRANCH  22  24
ATOM     24  C   LIG    1        7.739  -2.127   2.994  0.00  0.00    +0.240 C 
ATOM     25  C   LIG    1        6.355  -2.679   3.394  0.00  0.00    +0.010 C 
ATOM     26  C   LIG    1        6.431  -4.186   3.042  0.00  0.00    +0.020 C 
ATOM     27  C   LIG    1        7.885  -4.555   3.427  0.00  0.00    +0.010 C 
ATOM     28  C   LIG    1        8.711  -3.320   3.014  0.00  0.00    +0.030 C 
ENDBRANCH  22  24
ENDBRANCH  19  22
ENDBRANCH   4  19
TORSDOF 5
