REMARK  Name = ZINCbu0000000GBS.0
REMARK                            x       y       z     vdW  Elec       q    Type
REMARK                         _______ _______ _______ _____ _____    ______ ____
ROOT
ATOM      1  C   LIG    1        1.757   0.894   1.794  0.00  0.00    +0.160 C 
ATOM      2  C   LIG    1        0.556   0.086   2.318  0.00  0.00    +0.040 C 
ATOM      3  C   LIG    1       -0.646   0.454   1.425  0.00  0.00    +0.040 C 
ATOM      4  C   LIG    1       -0.282   1.847   0.853  0.00  0.00    +0.030 C 
ATOM      5  C   LIG    1        1.241   1.725   0.601  0.00  0.00    +0.020 C 
ENDROOT
BRANCH   1   7
ATOM      6  C   LIG    1        2.814   0.978   3.945  0.00  0.00    +0.310 C 
ATOM      7  N   LIG    1        2.263   1.784   2.847  0.00  0.00    -0.520 N 
ATOM      8  H   LIG    1        1.508   2.356   3.196  0.00  0.00    +0.430 HD
ATOM      9  H   LIG    1        2.986   2.376   2.468  0.00  0.00    +0.430 HD
ENDBRANCH   1   7
BRANCH   5  10
ATOM     10  C   LIG    1        1.894   3.108   0.590  0.00  0.00    -0.080 C 
ATOM     11  C   LIG    1        1.446   3.875  -0.656  0.00  0.00    +0.070 C 
ATOM     12  C   LIG    1        3.416   2.954   0.573  0.00  0.00    +0.040 C 
ATOM     13  C   LIG    1        1.474   3.881   1.842  0.00  0.00    +0.020 C 
ENDBRANCH   5  10
TORSDOF 2
