REMARK  Name = ZINCpk00001AZinm.0
REMARK                            x       y       z     vdW  Elec       q    Type
REMARK                         _______ _______ _______ _____ _____    ______ ____
ROOT
ATOM      1  N   LIG    1        3.344  -2.135   0.998  0.00  0.00    -0.600 N 
ATOM      2  C   LIG    1        4.288  -1.699   1.856  0.00  0.00    +0.500 C 
ATOM      3  O   LIG    1        5.309  -1.200   1.432  0.00  0.00    -0.500 OA
ENDROOT
BRANCH   2   4
ATOM      4  C   LIG    1        4.075  -1.831   3.342  0.00  0.00    +0.280 C 
ATOM      5  C   LIG    1        4.308  -3.284   3.763  0.00  0.00    +0.060 C 
BRANCH   4   6
ATOM      6  N   LIG    1        5.017  -0.961   4.050  0.00  0.00    -0.620 N 
ATOM      7  C   LIG    1        4.647   0.137   4.955  0.00  0.00    +0.250 C 
ATOM      8  C   LIG    1        6.002   0.710   5.415  0.00  0.00    +0.250 C 
ATOM      9  N   LIG    1        6.992  -0.127   4.719  0.00  0.00    -0.750 N 
ATOM     10  H   LIG    1        7.955  -0.033   4.788  0.00  0.00    +0.430 HD
ATOM     11  C   LIG    1        6.352  -1.042   3.979  0.00  0.00    +0.710 C 
ATOM     12  O   LIG    1        6.931  -1.869   3.302  0.00  0.00    -0.560 OA
ENDBRANCH   4   6
ENDBRANCH   2   4
BRANCH   1  13
ATOM     13  C   LIG    1        3.478  -1.868  -0.436  0.00  0.00    +0.370 C 
BRANCH  13  16
ATOM     14  C   LIG    1        4.460   1.100  -0.333  0.00  0.00    +0.140 C 
ATOM     15  C   LIG    1        3.091   0.632  -0.753  0.00  0.00    +0.110 A 
ATOM     16  C   LIG    1        2.665  -0.652  -0.798  0.00  0.00    -0.260 A 
ATOM     17  C   LIG    1        1.338  -0.650  -1.241  0.00  0.00    +0.240 A 
ATOM     18  N   LIG    1        0.980   0.590  -1.454  0.00  0.00    -0.300 NA
ATOM     19  N   LIG    1        2.069   1.418  -1.153  0.00  0.00    -0.370 N 
ATOM     20  C   LIG    1        2.095   2.879  -1.255  0.00  0.00    +0.350 C 
ENDBRANCH  13  16
ENDBRANCH   1  13
BRANCH   1  21
ATOM     21  C   LIG    1        2.184  -2.876   1.500  0.00  0.00    +0.280 C 
BRANCH  21  22
ATOM     22  C   LIG    1        2.445  -4.378   1.374  0.00  0.00    +0.000 C 
ATOM     23  C   LIG    1        2.490  -4.784  -0.081  0.00  0.00    -0.040 C 
ATOM     24  C   LIG    1        1.807  -5.878  -0.285  0.00  0.00    -0.040 C 
ATOM     25  C   LIG    1        1.194  -6.384   1.000  0.00  0.00    +0.050 C 
ATOM     26  C   LIG    1        1.268  -5.182   1.973  0.00  0.00    +0.030 C 
ENDBRANCH  21  22
ENDBRANCH   1  21
TORSDOF 6
