REMARK  Name = ZINCpk00000ebFZ9.0
REMARK                            x       y       z     vdW  Elec       q    Type
REMARK                         _______ _______ _______ _____ _____    ______ ____
ROOT
ATOM      1  O   LIG    1       -3.489   2.904   0.528  0.00  0.00    -0.560 OA
ATOM      2  C   LIG    1       -3.470   1.688   0.528  0.00  0.00    +0.710 C 
ATOM      3  N   LIG    1       -4.628   0.997   0.527  0.00  0.00    -0.630 N 
ATOM      4  C   LIG    1       -4.623  -0.469   0.632  0.00  0.00    +0.260 C 
ATOM      5  C   LIG    1       -5.505  -0.873   1.826  0.00  0.00    +0.270 C 
ATOM      6  N   LIG    1       -6.793  -0.174   1.714  0.00  0.00    -0.610 N 
ATOM      7  C   LIG    1       -6.797   1.291   1.603  0.00  0.00    +0.290 C 
ATOM      8  C   LIG    1       -7.950  -0.866   1.713  0.00  0.00    +0.530 C 
ATOM      9  O   LIG    1       -9.009  -0.275   1.718  0.00  0.00    -0.520 OA
ATOM     10  C   LIG    1       -5.916   1.695   0.415  0.00  0.00    +0.300 C 
ATOM     11  N   LIG    1       -2.293   1.032   0.528  0.00  0.00    -0.680 N 
ATOM     12  H   LIG    1       -2.277   0.065   0.453  0.00  0.00    +0.410 HD
ENDROOT
BRANCH   8  13
ATOM     13  C   LIG    1       -7.927  -2.373   1.704  0.00  0.00    +0.000 C 
ATOM     14  C   LIG    1       -7.913  -2.908   3.146  0.00  0.00    +0.090 C 
ATOM     15  C   LIG    1       -8.232  -4.416   3.117  0.00  0.00    -0.300 C 
ATOM     16  S   LIG    1       -9.261  -4.656   1.623  0.00  0.00    +2.390 S 
ATOM     17  O   LIG    1      -10.586  -4.989   2.013  0.00  0.00    -0.930 OA
ATOM     18  O   LIG    1       -8.565  -5.481   0.699  0.00  0.00    -0.930 OA
ATOM     19  C   LIG    1       -9.217  -2.919   1.040  0.00  0.00    -0.290 C 
ENDBRANCH   8  13
BRANCH  11  20
ATOM     20  C   LIG    1       -1.094   1.746   0.638  0.00  0.00    +0.180 A 
ATOM     21  C   LIG    1        0.043   1.301  -0.024  0.00  0.00    -0.010 A 
ATOM     22  C   LIG    1        1.226   2.004   0.090  0.00  0.00    +0.060 A 
ATOM     23  C   LIG    1        1.279   3.152   0.858  0.00  0.00    +0.010 A 
ATOM     24  C   LIG    1        0.146   3.601   1.515  0.00  0.00    -0.010 A 
ATOM     25 CL   LIG    1        0.217   5.043   2.479  0.00  0.00    -0.060 Cl
ATOM     26  C   LIG    1       -1.041   2.902   1.405  0.00  0.00    +0.040 A 
ENDBRANCH  11  20
TORSDOF 2
