REMARK  Name = ZINCrH00000tj0oY.0
REMARK                            x       y       z     vdW  Elec       q    Type
REMARK                         _______ _______ _______ _____ _____    ______ ____
ROOT
ATOM      1  C   LIG    1        4.277   1.757  -3.596  0.00  0.00    +0.190 C 
ATOM      2  C   LIG    1        5.739   1.306  -3.579  0.00  0.00    +0.050 C 
ATOM      3  C   LIG    1        6.345   1.488  -4.972  0.00  0.00    +0.020 C 
ATOM      4  C   LIG    1        6.271   2.962  -5.372  0.00  0.00    -0.030 C 
ATOM      5  C   LIG    1        4.810   3.414  -5.389  0.00  0.00    +0.020 C 
ATOM      6  C   LIG    1        6.878   3.144  -6.765  0.00  0.00    +0.020 C 
ATOM      7  C   LIG    1        4.204   3.232  -3.996  0.00  0.00    +0.040 C 
ENDROOT
BRANCH   1   9
ATOM      8  N   LIG    1        2.368   1.811  -2.025  0.00  0.00    -0.600 N 
ATOM      9  C   LIG    1        3.680   1.579  -2.224  0.00  0.00    +0.530 C 
ATOM     10  O   LIG    1        4.381   1.225  -1.299  0.00  0.00    -0.510 OA
ATOM     11  C   LIG    1        1.502   2.142  -3.159  0.00  0.00    +0.270 C 
BRANCH   8  12
ATOM     12  C   LIG    1        1.807   1.734  -0.673  0.00  0.00    +0.380 C 
BRANCH  12  19
ATOM     13  C   LIG    1        3.992   3.124   1.281  0.00  0.00    +0.160 C 
ATOM     14  C   LIG    1        2.704   3.727   0.782  0.00  0.00    +0.040 A 
ATOM     15  N   LIG    1        2.244   4.915   1.049  0.00  0.00    -0.370 NA
ATOM     16  O   LIG    1        1.184   5.115   0.501  0.00  0.00    +0.100 OA
ATOM     17  C   LIG    1        0.794   4.055  -0.220  0.00  0.00    -0.020 A 
ATOM     18  C   LIG    1       -0.467   3.934  -1.036  0.00  0.00    +0.190 C 
ATOM     19  C   LIG    1        1.757   3.114  -0.070  0.00  0.00    -0.220 A 
ENDBRANCH  12  19
ENDBRANCH   8  12
ENDBRANCH   1   9
BRANCH   1  20
ATOM     20  N   LIG    1        3.528   0.951  -4.563  0.00  0.00    -0.700 N 
ATOM     21  H   LIG    1        3.142   1.370  -5.348  0.00  0.00    +0.410 HD
ATOM     22  C   LIG    1        3.377  -0.373  -4.363  0.00  0.00    +0.650 C 
ATOM     23  O   LIG    1        3.782  -0.882  -3.337  0.00  0.00    -0.540 OA
BRANCH  22  24
ATOM     24  O   LIG    1        2.777  -1.131  -5.300  0.00  0.00    -0.360 OA
BRANCH  24  25
ATOM     25  C   LIG    1        2.591  -2.538  -4.990  0.00  0.00    +0.140 C 
ATOM     26  C   LIG    1        3.955  -3.195  -4.768  0.00  0.00    +0.040 C 
ATOM     27  C   LIG    1        1.877  -3.227  -6.154  0.00  0.00    +0.080 C 
ATOM     28  C   LIG    1        1.747  -2.673  -3.721  0.00  0.00    +0.040 C 
ENDBRANCH  24  25
ENDBRANCH  22  24
ENDBRANCH   1  20
TORSDOF 6
