REMARK  Name = ZINCqH0000008pra.0
REMARK                            x       y       z     vdW  Elec       q    Type
REMARK                         _______ _______ _______ _____ _____    ______ ____
ROOT
ATOM      1  N   LIG    1       -2.834   2.402   0.931  0.00  0.00    -0.730 N 
ATOM      2  H   LIG    1       -3.170   1.523   0.699  0.00  0.00    +0.400 HD
ATOM      3  C   LIG    1       -3.273   3.019   2.046  0.00  0.00    +0.530 C 
ATOM      4  O   LIG    1       -2.852   4.119   2.336  0.00  0.00    -0.530 OA
ENDROOT
BRANCH   3   5
ATOM      5  C   LIG    1       -4.286   2.342   2.932  0.00  0.00    -0.020 C 
ATOM      6  C   LIG    1       -4.612   3.250   4.121  0.00  0.00    +0.060 C 
ATOM      7  C   LIG    1       -5.617   2.550   5.039  0.00  0.00    +0.030 C 
ATOM      8  C   LIG    1       -6.911   2.284   4.264  0.00  0.00    +0.260 C 
ATOM      9  N   LIG    1       -6.586   1.535   3.043  0.00  0.00    -0.610 N 
ATOM     10  C   LIG    1       -7.212   0.375   2.761  0.00  0.00    +0.600 C 
ATOM     11  O   LIG    1       -6.982  -0.202   1.715  0.00  0.00    -0.520 OA
ATOM     12  C   LIG    1       -5.566   2.074   2.134  0.00  0.00    +0.300 C 
BRANCH  10  13
ATOM     13  C   LIG    1       -8.171  -0.191   3.715  0.00  0.00    -0.270 A 
ATOM     14  C   LIG    1       -8.226  -1.500   4.101  0.00  0.00    +0.090 A 
ATOM     15  C   LIG    1       -9.225  -1.758   5.010  0.00  0.00    +0.000 A 
ATOM     16  C   LIG    1       -9.963  -0.697   5.358  0.00  0.00    -0.070 A 
ATOM     17  S   LIG    1       -9.429   0.709   4.552  0.00  0.00    +0.220 S 
ENDBRANCH  10  13
ENDBRANCH   3   5
BRANCH   1  19
ATOM     18  C   LIG    1       -2.567   3.994  -0.907  0.00  0.00    +0.040 C 
ATOM     19  C   LIG    1       -1.848   3.060   0.069  0.00  0.00    +0.290 C 
BRANCH  19  20
ATOM     20  C   LIG    1       -1.082   2.018  -0.704  0.00  0.00    -0.080 A 
ATOM     21  C   LIG    1        0.279   2.165  -0.898  0.00  0.00    +0.060 A 
ATOM     22  C   LIG    1        0.984   1.210  -1.608  0.00  0.00    +0.030 A 
ATOM     23  C   LIG    1        0.327   0.107  -2.124  0.00  0.00    +0.070 A 
ATOM     24  C   LIG    1       -1.038  -0.040  -1.930  0.00  0.00    +0.080 A 
ATOM     25  F   LIG    1       -1.681  -1.115  -2.434  0.00  0.00    -0.120 F 
ATOM     26  F   LIG    1        1.016  -0.825  -2.818  0.00  0.00    -0.130 F 
ATOM     27  C   LIG    1       -1.742   0.920  -1.224  0.00  0.00    +0.030 A 
ENDBRANCH  19  20
ENDBRANCH   1  19
TORSDOF 4
