REMARK  Name = ZINCrD00000l3Uka.0
REMARK                            x       y       z     vdW  Elec       q    Type
REMARK                         _______ _______ _______ _____ _____    ______ ____
ROOT
ATOM      1  N   LIG    1       -0.851   1.728   1.131  0.00  0.00    -0.610 N 
ATOM      2  C   LIG    1       -0.379   2.733   1.895  0.00  0.00    +0.600 C 
ATOM      3  O   LIG    1        0.626   3.330   1.560  0.00  0.00    -0.540 OA
ENDROOT
BRANCH   2   4
ATOM      4  C   LIG    1       -1.081   3.110   3.135  0.00  0.00    -0.300 A 
ATOM      5  C   LIG    1       -0.789   4.187   3.948  0.00  0.00    +0.320 A 
ATOM      6  N   LIG    1       -1.663   4.169   4.967  0.00  0.00    -0.350 N 
ATOM      7  N   LIG    1       -2.517   3.073   4.802  0.00  0.00    -0.290 NA
ATOM      8  C   LIG    1       -2.183   2.439   3.712  0.00  0.00    +0.260 A 
BRANCH   6   9
ATOM      9  C   LIG    1       -1.714   5.136   6.067  0.00  0.00    +0.260 C 
ATOM     10  C   LIG    1       -1.264   6.526   5.571  0.00  0.00    +0.020 C 
ATOM     11  C   LIG    1       -0.469   7.115   6.762  0.00  0.00    +0.040 C 
ATOM     12  C   LIG    1        0.285   5.880   7.314  0.00  0.00    +0.010 C 
ATOM     13  C   LIG    1       -0.728   4.725   7.176  0.00  0.00    +0.010 C 
ENDBRANCH   6   9
ENDBRANCH   2   4
BRANCH   1  14
ATOM     14  C   LIG    1       -0.090   1.275  -0.036  0.00  0.00    +0.390 C 
BRANCH  14  20
ATOM     15  C   LIG    1       -2.480   0.930  -2.007  0.00  0.00    +0.370 C 
ATOM     16  N   LIG    1       -1.466   1.986  -2.074  0.00  0.00    -0.290 N 
ATOM     17  N   LIG    1       -1.413   2.925  -2.952  0.00  0.00    -0.080 NA
ATOM     18  N   LIG    1       -0.396   3.682  -2.730  0.00  0.00    -0.270 NA
ATOM     19  C   LIG    1        0.254   3.229  -1.653  0.00  0.00    +0.170 A 
ATOM     20  C   LIG    1       -0.426   2.142  -1.222  0.00  0.00    -0.040 A 
ENDBRANCH  14  20
ENDBRANCH   1  14
BRANCH   1  21
ATOM     21  C   LIG    1       -2.125   1.088   1.469  0.00  0.00    +0.260 C 
BRANCH  21  22
ATOM     22  C   LIG    1       -1.881  -0.030   2.485  0.00  0.00    -0.030 C 
ATOM     23  C   LIG    1       -1.035  -1.129   1.840  0.00  0.00    +0.020 C 
ATOM     24  C   LIG    1       -0.791  -2.247   2.855  0.00  0.00    +0.000 C 
ATOM     25  C   LIG    1       -2.132  -2.832   3.302  0.00  0.00    +0.000 C 
ATOM     26  C   LIG    1       -2.979  -1.733   3.946  0.00  0.00    +0.000 C 
ATOM     27  C   LIG    1       -3.223  -0.615   2.931  0.00  0.00    +0.020 C 
ENDBRANCH  21  22
ENDBRANCH   1  21
TORSDOF 6
