REMARK  Name = ZINCrD000000BHLD.0
REMARK                            x       y       z     vdW  Elec       q    Type
REMARK                         _______ _______ _______ _____ _____    ______ ____
ROOT
ATOM      1  O   LIG    1       -7.079   4.313  -1.879  0.00  0.00    -0.580 OA
ATOM      2  C   LIG    1       -6.783   3.137  -1.966  0.00  0.00    +0.710 C 
ATOM      3  N   LIG    1       -7.657   2.260  -2.497  0.00  0.00    -0.630 N 
ATOM      4  C   LIG    1       -8.930   2.723  -3.066  0.00  0.00    +0.300 C 
ATOM      5  C   LIG    1      -10.076   1.949  -2.416  0.00  0.00    +0.020 C 
ATOM      6  C   LIG    1       -9.827   0.447  -2.571  0.00  0.00    +0.070 C 
ATOM      7  C   LIG    1       -8.524   0.069  -1.863  0.00  0.00    +0.030 C 
ATOM      8  C   LIG    1       -7.358   0.821  -2.512  0.00  0.00    +0.260 C 
ATOM      9  N   LIG    1       -5.580   2.711  -1.532  0.00  0.00    -0.740 N 
ATOM     10  H   LIG    1       -5.315   1.788  -1.667  0.00  0.00    +0.400 HD
ENDROOT
BRANCH   6  11
ATOM     11  C   LIG    1      -10.972  -0.317  -1.957  0.00  0.00    -0.230 A 
ATOM     12  C   LIG    1      -11.790  -1.181  -2.603  0.00  0.00    +0.240 A 
ATOM     13  N   LIG    1      -12.681  -1.652  -1.706  0.00  0.00    -0.480 N 
ATOM     14  H   LIG    1      -13.389  -2.290  -1.886  0.00  0.00    +0.440 HD
ATOM     15  N   LIG    1      -12.402  -1.059  -0.468  0.00  0.00    -0.290 NA
ATOM     16  C   LIG    1      -11.374  -0.264  -0.619  0.00  0.00    +0.240 A 
ENDBRANCH   6  11
BRANCH   9  17
ATOM     17  C   LIG    1       -4.673   3.643  -0.858  0.00  0.00    +0.270 C 
ATOM     18  C   LIG    1       -3.804   4.416  -1.885  0.00  0.00    +0.020 C 
ATOM     19  C   LIG    1       -2.542   4.774  -1.073  0.00  0.00    +0.210 C 
ATOM     20  N   LIG    1       -2.458   3.820   0.048  0.00  0.00    -0.470 N 
ATOM     21  C   LIG    1       -3.595   2.880  -0.048  0.00  0.00    +0.200 C 
BRANCH  20  22
ATOM     22  C   LIG    1       -1.240   3.137   0.035  0.00  0.00    +0.150 A 
ATOM     23  C   LIG    1       -0.082   3.787  -0.369  0.00  0.00    -0.020 A 
ATOM     24  C   LIG    1        1.122   3.108  -0.387  0.00  0.00    +0.100 A 
ATOM     25  C   LIG    1        1.176   1.784   0.008  0.00  0.00    -0.110 A 
ATOM     26  C   LIG    1        0.023   1.133   0.418  0.00  0.00    +0.140 A 
ATOM     27  F   LIG    1        0.079  -0.161   0.804  0.00  0.00    -0.120 F 
ATOM     28 CL   LIG    1        2.691   0.937  -0.008  0.00  0.00    -0.050 Cl
ATOM     29  C   LIG    1       -1.184   1.807   0.432  0.00  0.00    -0.040 A 
ENDBRANCH  20  22
ENDBRANCH   9  17
TORSDOF 3
