REMARK  Name = ZINC650000002E2M.0
REMARK                            x       y       z     vdW  Elec       q    Type
REMARK                         _______ _______ _______ _____ _____    ______ ____
ROOT
ATOM      1  C   LIG    1       -0.699   1.479   1.216  0.00  0.00    +0.250 C 
ENDROOT
BRANCH   1   2
ATOM      2  N   LIG    1       -0.012   1.005   0.008  0.00  0.00    -0.630 N 
ATOM      3  H   LIG    1       -0.500   1.339  -0.810  0.00  0.00    +0.440 HD
ATOM      4  H   LIG    1        0.935   1.354   0.000  0.00  0.00    +0.440 HD
ATOM      5  H   LIG    1        0.002  -0.004   0.002  0.00  0.00    +0.440 HD
ENDBRANCH   1   2
BRANCH   1   6
ATOM      6  C   LIG    1        0.041   0.972   2.456  0.00  0.00    +0.190 C 
BRANCH   6   7
ATOM      7  C   LIG    1       -0.743   1.359   3.711  0.00  0.00    +0.230 C 
ATOM      8  F   LIG    1       -0.128   0.799   4.836  0.00  0.00    -0.190 F 
ENDBRANCH   6   7
BRANCH   6   9
ATOM      9  O   LIG    1        1.343   1.559   2.507  0.00  0.00    -0.550 OA
ATOM     10  H   LIG    1        1.337   2.525   2.553  0.00  0.00    +0.390 HD
ENDBRANCH   6   9
ENDBRANCH   1   6
TORSDOF 4
