REMARK  Name = ZINCrg00000BvNWk.0
REMARK                            x       y       z     vdW  Elec       q    Type
REMARK                         _______ _______ _______ _____ _____    ______ ____
ROOT
ATOM      1  O   LIG    1        4.686   1.331  -2.639  0.00  0.00    -0.500 OA
ATOM      2  C   LIG    1        4.014   1.958  -1.842  0.00  0.00    +0.600 C 
ATOM      3  N   LIG    1        3.796   1.463  -0.607  0.00  0.00    -0.730 N 
ATOM      4  H   LIG    1        3.327   1.997   0.053  0.00  0.00    +0.390 HD
ENDROOT
BRANCH   2   5
ATOM      5  C   LIG    1        3.438   3.258  -2.226  0.00  0.00    -0.090 A 
ATOM      6  C   LIG    1        3.488   3.853  -3.459  0.00  0.00    +0.240 A 
ATOM      7  N   LIG    1        2.844   5.015  -3.342  0.00  0.00    -0.270 NA
ATOM      8  N   LIG    1        2.415   5.146  -2.138  0.00  0.00    -0.030 NA
ATOM      9  N   LIG    1        2.738   4.123  -1.427  0.00  0.00    -0.270 N 
BRANCH   9  10
ATOM     10  C   LIG    1        2.420   3.921  -0.011  0.00  0.00    +0.370 C 
BRANCH  10  11
ATOM     11  C   LIG    1        1.557   5.057   0.476  0.00  0.00    -0.110 A 
ATOM     12  C   LIG    1        0.187   5.010   0.299  0.00  0.00    +0.030 A 
ATOM     13  C   LIG    1       -0.604   6.051   0.746  0.00  0.00    +0.010 A 
ATOM     14  C   LIG    1       -0.025   7.143   1.365  0.00  0.00    +0.030 A 
ATOM     15  C   LIG    1        1.345   7.188   1.548  0.00  0.00    +0.010 A 
ATOM     16  C   LIG    1        2.136   6.146   1.101  0.00  0.00    +0.030 A 
ENDBRANCH  10  11
ENDBRANCH   9  10
ENDBRANCH   2   5
BRANCH   3  17
ATOM     17  C   LIG    1        4.268   0.120  -0.263  0.00  0.00    +0.260 C 
ATOM     18  C   LIG    1        3.426  -0.455   0.896  0.00  0.00    +0.060 C 
ATOM     19  C   LIG    1        4.256  -0.133   2.163  0.00  0.00    -0.020 C 
ATOM     20  C   LIG    1        5.712  -0.354   1.684  0.00  0.00    +0.020 C 
ATOM     21  C   LIG    1        5.721   0.183   0.237  0.00  0.00    +0.150 C 
BRANCH  21  22
ATOM     22  O   LIG    1        6.558  -0.633  -0.584  0.00  0.00    -0.550 OA
ATOM     23  H   LIG    1        7.488  -0.635  -0.319  0.00  0.00    +0.380 HD
ENDBRANCH  21  22
BRANCH  19  24
ATOM     24  C   LIG    1        3.906  -1.096   3.300  0.00  0.00    +0.330 C 
BRANCH  24  25
ATOM     25  N   LIG    1        4.616  -0.694   4.516  0.00  0.00    -0.370 N 
ATOM     26  C   LIG    1        4.052  -0.428   5.713  0.00  0.00    +0.220 A 
ATOM     27  C   LIG    1        5.043  -0.098   6.572  0.00  0.00    -0.120 A 
ATOM     28  C   LIG    1        6.254  -0.154   5.874  0.00  0.00    +0.220 A 
ATOM     29  N   LIG    1        5.999  -0.511   4.642  0.00  0.00    -0.290 NA
ENDBRANCH  24  25
ENDBRANCH  19  24
ENDBRANCH   3  17
TORSDOF 7
