REMARK  Name = ZINCrH000004jdPC.0
REMARK                            x       y       z     vdW  Elec       q    Type
REMARK                         _______ _______ _______ _____ _____    ______ ____
ROOT
ATOM      1  C   LIG    1       -3.637  -2.192   0.917  0.00  0.00    +0.530 C 
ATOM      2  N   LIG    1       -4.655  -2.997   1.282  0.00  0.00    -0.610 N 
ATOM      3  C   LIG    1       -5.531  -2.798   2.451  0.00  0.00    +0.240 C 
ATOM      4  C   LIG    1       -6.072  -4.207   2.788  0.00  0.00    +0.040 C 
ATOM      5  C   LIG    1       -6.253  -4.821   1.375  0.00  0.00    +0.050 C 
ATOM      6  C   LIG    1       -5.071  -4.222   0.584  0.00  0.00    +0.280 C 
ATOM      7  O   LIG    1       -2.976  -2.457  -0.065  0.00  0.00    -0.500 OA
ENDROOT
BRANCH   6   8
ATOM      8  C   LIG    1       -5.510  -3.888  -0.819  0.00  0.00    -0.080 A 
ATOM      9  C   LIG    1       -6.252  -2.747  -1.057  0.00  0.00    +0.030 A 
ATOM     10  C   LIG    1       -6.657  -2.438  -2.342  0.00  0.00    +0.020 A 
ATOM     11  C   LIG    1       -6.321  -3.274  -3.396  0.00  0.00    +0.050 A 
ATOM     12  O   LIG    1       -6.734  -2.961  -4.654  0.00  0.00    -0.310 OA
ATOM     13  C   LIG    1       -6.065  -3.622  -5.734  0.00  0.00    +0.220 C 
ATOM     14  C   LIG    1       -5.967  -5.116  -5.396  0.00  0.00    +0.220 C 
ATOM     15  O   LIG    1       -5.227  -5.252  -4.178  0.00  0.00    -0.310 OA
ATOM     16  C   LIG    1       -5.572  -4.420  -3.157  0.00  0.00    +0.050 A 
ATOM     17  C   LIG    1       -5.165  -4.722  -1.866  0.00  0.00    +0.030 A 
ENDBRANCH   6   8
BRANCH   1  18
ATOM     18  C   LIG    1       -3.320  -0.963   1.729  0.00  0.00    +0.230 C 
BRANCH  18  19
ATOM     19  O   LIG    1       -2.209  -0.280   1.146  0.00  0.00    -0.290 OA
BRANCH  19  25
ATOM     20  C   LIG    1       -0.718   1.572   1.248  0.00  0.00    -0.110 A 
ATOM     21  C   LIG    1       -0.293   2.725   1.878  0.00  0.00    +0.050 A 
ATOM     22  C   LIG    1       -0.943   3.175   3.013  0.00  0.00    -0.030 A 
ATOM     23  C   LIG    1       -2.013   2.465   3.525  0.00  0.00    +0.040 A 
ATOM     24  C   LIG    1       -2.439   1.308   2.902  0.00  0.00    -0.080 A 
ATOM     25  C   LIG    1       -1.792   0.858   1.761  0.00  0.00    +0.130 A 
BRANCH  20  27
ATOM     26  C   LIG    1       -0.753   1.593  -1.232  0.00  0.00    +0.030 C 
ATOM     27  C   LIG    1       -0.013   1.086   0.008  0.00  0.00    +0.070 C 
ENDBRANCH  20  27
ENDBRANCH  19  25
ENDBRANCH  18  19
ENDBRANCH   1  18
TORSDOF 5
