REMARK  Name = ZINCpk00000eaNZT.0
REMARK                            x       y       z     vdW  Elec       q    Type
REMARK                         _______ _______ _______ _____ _____    ______ ____
ROOT
ATOM      1  C   LIG    1       -1.436   6.093  -1.260  0.00  0.00    +0.090 C 
ATOM      2  C   LIG    1       -2.159   5.784   0.053  0.00  0.00    +0.020 C 
ENDROOT
BRANCH   2   3
ATOM      3  C   LIG    1       -3.355   6.689   0.193  0.00  0.00    +0.540 C 
ATOM      4  N   LIG    1       -3.194   7.958   0.619  0.00  0.00    -0.690 N 
ATOM      5  H   LIG    1       -2.308   8.287   0.836  0.00  0.00    +0.410 HD
ATOM      6  C   LIG    1       -4.263   8.768   0.745  0.00  0.00    +0.700 C 
ATOM      7  N   LIG    1       -4.102  10.036   1.171  0.00  0.00    -0.730 N 
ATOM      8  H   LIG    1       -3.216  10.366   1.388  0.00  0.00    +0.400 HD
ATOM      9  O   LIG    1       -5.374   8.354   0.473  0.00  0.00    -0.520 OA
ATOM     10  O   LIG    1       -4.462   6.277  -0.078  0.00  0.00    -0.450 OA
BRANCH   7  11
ATOM     11  C   LIG    1       -5.265  10.916   1.307  0.00  0.00    +0.180 C 
ATOM     12  C   LIG    1       -5.952  11.068  -0.051  0.00  0.00    +0.030 C 
ATOM     13  C   LIG    1       -4.810  12.290   1.804  0.00  0.00    +0.040 C 
ATOM     14  C   LIG    1       -6.248  10.311   2.311  0.00  0.00    +0.030 C 
ENDBRANCH   7  11
ENDBRANCH   2   3
BRANCH   2  15
ATOM     15  S   LIG    1       -2.706   4.054   0.049  0.00  0.00    +0.040 S 
BRANCH  15  16
ATOM     16  C   LIG    1       -1.190   3.158   0.029  0.00  0.00    +0.150 A 
ATOM     17  C   LIG    1       -1.211   1.767   0.017  0.00  0.00    -0.020 A 
ATOM     18  C   LIG    1       -0.013   1.076   0.008  0.00  0.00    +0.210 A 
ATOM     19  C   LIG    1        1.171   1.802   0.001  0.00  0.00    -0.750 A 
ATOM     20  C   LIG    1        1.119   3.182   0.008  0.00  0.00    +0.400 A 
ATOM     21  N   LIG    1       -0.039   3.815   0.022  0.00  0.00    -0.500 NA
BRANCH  19  22
ATOM     22  S   LIG    1        2.725   0.971  -0.019  0.00  0.00    +2.700 S 
ATOM     23  O   LIG    1        2.494  -0.323   0.521  0.00  0.00    -0.950 OA
ATOM     24  O   LIG    1        3.673   1.881   0.522  0.00  0.00    -0.950 OA
BRANCH  22  25
ATOM     25  N   LIG    1        3.142   0.748  -1.606  0.00  0.00    -1.000 NA
ATOM     26  C   LIG    1        2.728  -0.469  -2.308  0.00  0.00    +0.310 C 
ATOM     27  C   LIG    1        3.925   1.768  -2.308  0.00  0.00    +0.300 C 
ENDBRANCH  22  25
ENDBRANCH  19  22
ENDBRANCH  15  16
ENDBRANCH   2  15
TORSDOF 6
