REMARK  Name = ZINCpe00000MJGM1.0
REMARK                            x       y       z     vdW  Elec       q    Type
REMARK                         _______ _______ _______ _____ _____    ______ ____
ROOT
ATOM      1  N   LIG    1       -0.696   1.562   1.221  0.00  0.00    -0.540 N 
ATOM      2  C   LIG    1       -0.024   1.104   0.011  0.00  0.00    +0.270 C 
ATOM      3  C   LIG    1       -0.760   1.612  -1.229  0.00  0.00    +0.050 C 
ATOM      4  C   LIG    1       -0.973   3.124  -1.089  0.00  0.00    +0.040 C 
ATOM      5  C   LIG    1       -1.960   3.370   0.054  0.00  0.00    +0.260 C 
ATOM      6  C   LIG    1       -1.544   2.587   1.266  0.00  0.00    +0.500 C 
ATOM      7  O   LIG    1       -2.008   2.904   2.341  0.00  0.00    -0.500 OA
ENDROOT
BRANCH   1  12
ATOM      8  N   LIG    1       -1.165  -0.117   2.942  0.00  0.00    -0.360 N 
ATOM      9  N   LIG    1       -0.553  -0.514   4.138  0.00  0.00    -0.280 NA
ATOM     10  C   LIG    1        0.507   0.229   4.325  0.00  0.00    +0.240 A 
ATOM     11  C   LIG    1        0.613   1.122   3.255  0.00  0.00    -0.100 A 
ATOM     12  C   LIG    1       -0.430   0.887   2.412  0.00  0.00    +0.300 A 
BRANCH   8  14
ATOM     13  C   LIG    1       -2.027  -1.934   1.551  0.00  0.00    +0.040 C 
ATOM     14  C   LIG    1       -2.384  -0.690   2.366  0.00  0.00    +0.320 C 
ENDBRANCH   8  14
ENDBRANCH   1  12
BRANCH   5  15
ATOM     15  N   LIG    1       -1.981   4.798   0.380  0.00  0.00    -0.720 N 
ATOM     16  H   LIG    1       -1.210   5.352   0.181  0.00  0.00    +0.410 HD
ATOM     17  C   LIG    1       -3.071   5.342   0.958  0.00  0.00    +0.530 C 
ATOM     18  O   LIG    1       -4.034   4.649   1.207  0.00  0.00    -0.520 OA
BRANCH  17  19
ATOM     19  C   LIG    1       -3.092   6.811   1.293  0.00  0.00    +0.070 C 
BRANCH  19  20
ATOM     20  C   LIG    1       -4.434   7.168   1.935  0.00  0.00    +0.220 C 
BRANCH  20  21
ATOM     21  C   LIG    1       -4.456   8.637   2.271  0.00  0.00    +0.180 A 
ATOM     22  N   LIG    1       -4.865   9.610   1.493  0.00  0.00    -0.480 NA
ATOM     23  C   LIG    1       -4.701  10.738   2.207  0.00  0.00    +0.170 A 
ATOM     24  N   LIG    1       -4.209  10.399   3.361  0.00  0.00    -0.380 NA
ATOM     25  C   LIG    1       -5.028  12.137   1.752  0.00  0.00    +0.210 C 
ATOM     26  O   LIG    1       -4.066   9.196   3.420  0.00  0.00    +0.080 OA
ENDBRANCH  20  21
ENDBRANCH  19  20
ENDBRANCH  17  19
ENDBRANCH   5  15
TORSDOF 6
