REMARK  Name = ZINCqH0000001RMG.0
REMARK                            x       y       z     vdW  Elec       q    Type
REMARK                         _______ _______ _______ _____ _____    ______ ____
ROOT
ATOM      1  N   LIG    1        2.096   0.706  -0.014  0.00  0.00    -0.380 N 
ATOM      2  N   LIG    1        1.242  -0.403  -0.012  0.00  0.00    -0.230 NA
ATOM      3  C   LIG    1        0.002  -0.004   0.002  0.00  0.00    +0.300 A 
ATOM      4  C   LIG    1       -0.017   1.406   0.010  0.00  0.00    -0.180 A 
ATOM      5  C   LIG    1       -1.053   2.370   0.030  0.00  0.00    -0.000 A 
ATOM      6  C   LIG    1       -0.695   3.712   0.028  0.00  0.00    -0.010 A 
ATOM      7  C   LIG    1        0.662   4.059   0.018  0.00  0.00    +0.280 A 
ATOM      8  N   LIG    1        1.610   3.133   0.004  0.00  0.00    -0.470 NA
ATOM      9  C   LIG    1        1.325   1.840  -0.001  0.00  0.00    +0.320 A 
ENDROOT
BRANCH   7  10
ATOM     10  C   LIG    1        1.044   5.484   0.021  0.00  0.00    +0.000 A 
ATOM     11  C   LIG    1        2.316   5.970   0.017  0.00  0.00    +0.030 A 
ATOM     12  C   LIG    1        2.212   7.374   0.020  0.00  0.00    -0.060 A 
ATOM     13  C   LIG    1        0.898   7.674   0.035  0.00  0.00    +0.200 A 
ATOM     14  O   LIG    1        0.196   6.530   0.036  0.00  0.00    -0.170 OA
ENDBRANCH   7  10
BRANCH   5  15
ATOM     15  C   LIG    1       -2.474   1.960   0.049  0.00  0.00    +0.560 C 
ATOM     16  N   LIG    1       -3.444   2.896   0.068  0.00  0.00    -0.720 N 
ATOM     17  H   LIG    1       -3.211   3.837   0.069  0.00  0.00    +0.410 HD
ATOM     18  O   LIG    1       -2.767   0.781   0.047  0.00  0.00    -0.520 OA
BRANCH  16  19
ATOM     19  C   LIG    1       -4.852   2.490   0.086  0.00  0.00    +0.400 C 
BRANCH  19  20
ATOM     20  C   LIG    1       -5.728   3.716   0.105  0.00  0.00    -0.050 A 
ATOM     21  C   LIG    1       -6.196   4.365  -0.976  0.00  0.00    -0.030 A 
ATOM     22  C   LIG    1       -6.971   5.448  -0.499  0.00  0.00    -0.070 A 
ATOM     23  C   LIG    1       -6.922   5.401   0.844  0.00  0.00    +0.190 A 
ATOM     24  O   LIG    1       -6.168   4.350   1.205  0.00  0.00    -0.170 OA
ENDBRANCH  19  20
ENDBRANCH  16  19
ENDBRANCH   5  15
BRANCH   1  26
ATOM     25  C   LIG    1        4.061  -0.080   1.213  0.00  0.00    +0.050 C 
ATOM     26  C   LIG    1        3.561   0.663  -0.028  0.00  0.00    +0.270 C 
ATOM     27  C   LIG    1        4.038  -0.066  -1.286  0.00  0.00    +0.050 C 
ENDBRANCH   1  26
TORSDOF 5
