REMARK  Name = ZINCtV00000L6jM3.0
REMARK                            x       y       z     vdW  Elec       q    Type
REMARK                         _______ _______ _______ _____ _____    ______ ____
ROOT
ATOM      1  C   LIG    1       -1.245   8.294   0.059  0.00  0.00    +0.360 C 
ATOM      2  C   LIG    1       -1.267   6.776   0.045  0.00  0.00    -0.100 C 
ATOM      3  C   LIG    1       -0.081   6.139   0.036  0.00  0.00    +0.200 C 
ATOM      4  N   LIG    1        1.096   6.813   0.029  0.00  0.00    -0.560 NA
ATOM      5  C   LIG    1        1.202   8.120   0.035  0.00  0.00    +0.570 A 
ATOM      6  N   LIG    1        2.275   8.941   0.030  0.00  0.00    -0.450 NA
ATOM      7  C   LIG    1        1.891  10.188   0.040  0.00  0.00    +0.310 A 
ATOM      8  N   LIG    1        0.531  10.245   0.053  0.00  0.00    -0.450 N 
ATOM      9  H   LIG    1       -0.017  11.046   0.062  0.00  0.00    +0.460 HD
ATOM     10  N   LIG    1        0.079   8.924   0.050  0.00  0.00    -0.440 N 
ENDROOT
BRANCH   3  11
ATOM     11  C   LIG    1       -0.061   4.655   0.028  0.00  0.00    -0.030 A 
ATOM     12  C   LIG    1        1.154   3.973   0.012  0.00  0.00    +0.080 A 
ATOM     13  C   LIG    1        1.167   2.593   0.005  0.00  0.00    +0.040 A 
ATOM     14  C   LIG    1       -0.024   1.887   0.012  0.00  0.00    -0.080 A 
ATOM     15  C   LIG    1       -1.233   2.560   0.022  0.00  0.00    +0.050 A 
ATOM     16 BR   LIG    1        0.002  -0.004   0.002  0.00  0.00    -0.050 Br
ATOM     17  C   LIG    1       -1.257   3.940   0.035  0.00  0.00    +0.040 A 
ENDBRANCH   3  11
BRANCH   1  21
ATOM     18  C   LIG    1       -3.389   9.660  -3.374  0.00  0.00    -0.060 A 
ATOM     19  C   LIG    1       -4.040   9.518  -2.163  0.00  0.00    +0.020 A 
ATOM     20  C   LIG    1       -3.347   9.076  -1.053  0.00  0.00    +0.030 A 
ATOM     21  C   LIG    1       -2.001   8.776  -1.153  0.00  0.00    -0.130 A 
ATOM     22  C   LIG    1       -1.348   8.923  -2.362  0.00  0.00    +0.020 A 
ATOM     23  C   LIG    1       -2.043   9.360  -3.474  0.00  0.00    +0.010 A 
BRANCH  18  25
ATOM     24  C   LIG    1       -3.514  11.438  -5.098  0.00  0.00    +0.030 C 
ATOM     25  C   LIG    1       -4.145  10.142  -4.585  0.00  0.00    +0.020 C 
ATOM     26  C   LIG    1       -4.085   9.077  -5.682  0.00  0.00    +0.030 C 
ENDBRANCH  18  25
ENDBRANCH   1  21
BRANCH   7  27
ATOM     27  C   LIG    1        2.812  11.382   0.037  0.00  0.00    +0.560 C 
ATOM     28  F   LIG    1        2.586  12.148   1.186  0.00  0.00    -0.150 F 
ATOM     29  F   LIG    1        2.564  12.159  -1.099  0.00  0.00    -0.150 F 
ATOM     30  F   LIG    1        4.141  10.945   0.023  0.00  0.00    -0.130 F 
ENDBRANCH   7  27
TORSDOF 4
