REMARK  Name = ZINCrH000004r8OK.0
REMARK                            x       y       z     vdW  Elec       q    Type
REMARK                         _______ _______ _______ _____ _____    ______ ____
ROOT
ATOM      1  C   LIG    1       -0.878   7.257  -0.627  0.00  0.00    +0.120 A 
ATOM      2  C   LIG    1       -0.511   8.069  -1.693  0.00  0.00    +0.070 A 
ATOM      3  C   LIG    1       -0.127   7.507  -2.896  0.00  0.00    +0.050 A 
ATOM      4  C   LIG    1       -0.105   6.134  -3.046  0.00  0.00    +0.020 A 
ATOM      5  C   LIG    1       -0.473   5.309  -1.980  0.00  0.00    -0.120 A 
ATOM      6 CL   LIG    1        0.377   5.434  -4.560  0.00  0.00    -0.030 Cl
ATOM      7  C   LIG    1       -0.865   5.879  -0.768  0.00  0.00    +0.080 A 
ENDROOT
BRANCH   5   8
ATOM      8  C   LIG    1       -0.452   3.840  -2.137  0.00  0.00    +0.560 C 
ATOM      9  N   LIG    1       -1.378   3.083  -1.517  0.00  0.00    -0.590 N 
ATOM     10  C   LIG    1       -2.485   3.708  -0.780  0.00  0.00    +0.270 C 
ATOM     11  C   LIG    1       -2.512   3.142   0.643  0.00  0.00    +0.010 C 
ATOM     12  C   LIG    1       -2.583   1.614   0.579  0.00  0.00    +0.030 C 
ATOM     13  C   LIG    1       -1.341   1.073  -0.133  0.00  0.00    +0.010 C 
ATOM     14  C   LIG    1       -1.301   1.617  -1.565  0.00  0.00    +0.270 C 
ATOM     15  O   LIG    1        0.402   3.315  -2.825  0.00  0.00    -0.510 OA
BRANCH  14  16
ATOM     16  C   LIG    1        0.005   1.191  -2.238  0.00  0.00    -0.290 C 
BRANCH  16  17
ATOM     17  S   LIG    1        0.181  -0.612  -2.131  0.00  0.00    +2.400 S 
ATOM     18  O   LIG    1       -0.928  -1.214  -2.784  0.00  0.00    -0.940 OA
ATOM     19  O   LIG    1        0.467  -0.959  -0.783  0.00  0.00    -0.940 OA
ATOM     20  C   LIG    1        1.667  -0.903  -3.130  0.00  0.00    -0.260 C 
ENDBRANCH  16  17
ENDBRANCH  14  16
ENDBRANCH   5   8
BRANCH   1  27
ATOM     21  C   LIG    1        0.667   6.931   2.004  0.00  0.00    +0.120 C 
ATOM     22  C   LIG    1       -0.605   7.708   1.779  0.00  0.00    +0.020 A 
ATOM     23  C   LIG    1       -1.283   8.403   2.715  0.00  0.00    -0.050 A 
ATOM     24  C   LIG    1       -2.409   8.971   2.086  0.00  0.00    -0.050 A 
ATOM     25  C   LIG    1       -2.375   8.606   0.788  0.00  0.00    +0.020 A 
ATOM     26  C   LIG    1       -3.385   8.987  -0.263  0.00  0.00    +0.120 C 
ATOM     27  N   LIG    1       -1.267   7.833   0.592  0.00  0.00    -0.410 N 
ENDBRANCH   1  27
TORSDOF 4
