REMARK  Name = ZINCrH000004tVBQ.0
REMARK                            x       y       z     vdW  Elec       q    Type
REMARK                         _______ _______ _______ _____ _____    ______ ____
ROOT
ATOM      1  C   LIG    1        1.156   3.168   0.013  0.00  0.00    +0.130 A 
ATOM      2  C   LIG    1        1.174   1.790   0.184  0.00  0.00    +0.080 A 
ATOM      3  C   LIG    1       -0.012   1.082   0.197  0.00  0.00    +0.020 A 
ATOM      4  C   LIG    1       -1.215   1.743   0.033  0.00  0.00    +0.100 A 
ATOM      5  C   LIG    1       -1.237   3.116  -0.132  0.00  0.00    -0.660 A 
ATOM      6  C   LIG    1       -0.055   3.830  -0.145  0.00  0.00    +0.090 A 
ENDROOT
BRANCH   1   9
ATOM      7  O   LIG    1        3.418   2.240  -1.037  0.00  0.00    -0.510 OA
ATOM      8  C   LIG    1        3.473   3.329  -0.506  0.00  0.00    +0.520 C 
ATOM      9  N   LIG    1        2.356   3.889   0.001  0.00  0.00    -0.680 N 
ATOM     10  H   LIG    1        2.384   4.790   0.357  0.00  0.00    +0.420 HD
BRANCH   8  11
ATOM     11  C   LIG    1        4.789   4.057  -0.412  0.00  0.00    +0.120 C 
BRANCH  11  12
ATOM     12  C   LIG    1        5.870   3.223  -1.048  0.00  0.00    -0.060 A 
ATOM     13  C   LIG    1        6.585   2.319  -0.284  0.00  0.00    +0.030 A 
ATOM     14  C   LIG    1        7.574   1.550  -0.869  0.00  0.00    +0.040 A 
ATOM     15  C   LIG    1        7.855   1.692  -2.216  0.00  0.00    -0.090 A 
ATOM     16  C   LIG    1        7.143   2.600  -2.978  0.00  0.00    +0.040 A 
ATOM     17 BR   LIG    1        9.213   0.645  -3.014  0.00  0.00    -0.050 Br
ATOM     18  C   LIG    1        6.151   3.365  -2.394  0.00  0.00    +0.030 A 
ENDBRANCH  11  12
ENDBRANCH   8  11
ENDBRANCH   1   9
BRANCH   5  19
ATOM     19  S   LIG    1       -2.773   3.954  -0.333  0.00  0.00    +2.700 S 
ATOM     20  O   LIG    1       -2.551   5.301   0.065  0.00  0.00    -0.950 OA
ATOM     21  O   LIG    1       -3.764   3.124   0.256  0.00  0.00    -0.950 OA
BRANCH  19  22
ATOM     22  N   LIG    1       -3.102   3.994  -1.956  0.00  0.00    -1.120 NA
ATOM     23  H   LIG    1       -3.131   4.843  -2.424  0.00  0.00    +0.420 HD
BRANCH  22  24
ATOM     24  C   LIG    1       -3.348   2.747  -2.684  0.00  0.00    +0.400 C 
BRANCH  24  25
ATOM     25  C   LIG    1       -3.972   3.061  -4.019  0.00  0.00    -0.030 A 
ATOM     26  C   LIG    1       -3.306   3.295  -5.164  0.00  0.00    -0.030 A 
ATOM     27  C   LIG    1       -4.278   3.541  -6.161  0.00  0.00    -0.070 A 
ATOM     28  C   LIG    1       -5.480   3.450  -5.564  0.00  0.00    +0.180 A 
ATOM     29  O   LIG    1       -5.289   3.159  -4.267  0.00  0.00    -0.170 OA
ENDBRANCH  24  25
ENDBRANCH  22  24
ENDBRANCH  19  22
ENDBRANCH   5  19
TORSDOF 7
