REMARK  Name = ZINCvU00000005Bc.1
REMARK                            x       y       z     vdW  Elec       q    Type
REMARK                         _______ _______ _______ _____ _____    ______ ____
ROOT
ATOM      1  N   LIG    1        2.897   3.375   0.861  0.00  0.00    -0.730 N 
ATOM      2  H   LIG    1        2.530   4.215   0.545  0.00  0.00    +0.400 HD
ATOM      3  C   LIG    1        2.652   2.235   0.186  0.00  0.00    +0.520 C 
ATOM      4  O   LIG    1        3.006   1.170   0.644  0.00  0.00    -0.510 OA
ENDROOT
BRANCH   3   5
ATOM      5  C   LIG    1        1.936   2.284  -1.140  0.00  0.00    +0.100 C 
ATOM      6  C   LIG    1        0.524   2.757  -0.923  0.00  0.00    -0.150 A 
ATOM      7  C   LIG    1        0.284   4.103  -0.715  0.00  0.00    +0.030 A 
ATOM      8  C   LIG    1       -1.006   4.557  -0.512  0.00  0.00    -0.010 A 
ATOM      9  C   LIG    1       -2.062   3.664  -0.517  0.00  0.00    +0.060 A 
ATOM     10  C   LIG    1       -1.828   2.319  -0.720  0.00  0.00    +0.010 A 
ATOM     11  C   LIG    1       -0.532   1.860  -0.930  0.00  0.00    +0.130 A 
ATOM     12  O   LIG    1       -0.324   0.537  -1.132  0.00  0.00    -0.240 OA
ATOM     13  C   LIG    1        0.817   0.111  -1.724  0.00  0.00    +0.130 A 
ATOM     14  C   LIG    1        0.851  -1.152  -2.304  0.00  0.00    +0.010 A 
ATOM     15  C   LIG    1        2.004  -1.605  -2.912  0.00  0.00    +0.060 A 
ATOM     16  C   LIG    1        3.129  -0.802  -2.946  0.00  0.00    -0.010 A 
ATOM     17  C   LIG    1        3.099   0.455  -2.371  0.00  0.00    +0.060 A 
ATOM     18  C   LIG    1        1.946   0.914  -1.760  0.00  0.00    -0.130 A 
ENDBRANCH   3   5
BRANCH   1  19
ATOM     19  C   LIG    1        3.719   3.345   2.074  0.00  0.00    +0.300 C 
BRANCH  19  20
ATOM     20  C   LIG    1        3.903   4.770   2.600  0.00  0.00    +0.180 C 
BRANCH  20  21
ATOM     21  C   LIG    1        5.172   4.847   3.410  0.00  0.00    -0.060 A 
ATOM     22  C   LIG    1        5.247   4.218   4.638  0.00  0.00    +0.070 A 
ATOM     23  C   LIG    1        6.413   4.284   5.378  0.00  0.00    +0.010 A 
ATOM     24  C   LIG    1        7.500   4.988   4.895  0.00  0.00    +0.030 A 
ATOM     25  C   LIG    1        7.425   5.621   3.669  0.00  0.00    +0.020 A 
ATOM     26  C   LIG    1        6.260   5.551   2.925  0.00  0.00    -0.030 A 
ATOM     27 CL   LIG    1        6.164   6.347   1.385  0.00  0.00    -0.070 Cl
ENDBRANCH  20  21
BRANCH  20  28
ATOM     28  N   LIG    1        2.759   5.130   3.449  0.00  0.00    -0.530 NA
BRANCH  28  30
ATOM     29  C   LIG    1        3.734   6.792   4.960  0.00  0.00    +0.020 C 
ATOM     30  C   LIG    1        2.782   6.560   3.785  0.00  0.00    +0.160 C 
ENDBRANCH  28  30
BRANCH  28  31
ATOM     31  C   LIG    1        1.490   4.761   2.807  0.00  0.00    +0.150 C 
ATOM     32  C   LIG    1        0.645   3.939   3.782  0.00  0.00    +0.020 C 
ENDBRANCH  28  31
ENDBRANCH  20  28
ENDBRANCH  19  20
ENDBRANCH   1  19
TORSDOF 7
