REMARK  Name = ZINCrD00000l6sPX.0
REMARK                            x       y       z     vdW  Elec       q    Type
REMARK                         _______ _______ _______ _____ _____    ______ ____
ROOT
ATOM      1  C   LIG    1       -3.576   1.938  -1.273  0.00  0.00    +0.010 C 
ATOM      2  C   LIG    1       -3.566   2.707   0.050  0.00  0.00    +0.190 C 
ATOM      3  C   LIG    1       -4.895   3.447   0.218  0.00  0.00    +0.050 C 
ATOM      4  C   LIG    1       -5.072   4.438  -0.937  0.00  0.00    +0.050 C 
ATOM      5  C   LIG    1       -3.881   5.394  -0.964  0.00  0.00    +0.160 C 
ATOM      6  O   LIG    1       -3.863   6.188   0.233  0.00  0.00    -0.330 OA
ATOM      7  C   LIG    1       -3.312   7.455  -0.171  0.00  0.00    +0.260 C 
ATOM      8  C   LIG    1       -3.669   7.617  -1.631  0.00  0.00    -0.120 A 
ATOM      9  C   LIG    1       -3.699   8.711  -2.470  0.00  0.00    +0.040 A 
ATOM     10  C   LIG    1       -4.075   8.557  -3.792  0.00  0.00    +0.020 A 
ATOM     11  C   LIG    1       -4.421   7.308  -4.271  0.00  0.00    +0.010 A 
ATOM     12  C   LIG    1       -4.390   6.210  -3.430  0.00  0.00    +0.030 A 
ATOM     13  C   LIG    1       -2.578   4.607  -1.085  0.00  0.00    +0.210 C 
ATOM     14  C   LIG    1       -4.015   6.363  -2.112  0.00  0.00    -0.120 A 
ATOM     15  N   LIG    1       -2.461   3.674   0.044  0.00  0.00    -0.450 N 
ENDROOT
BRANCH  15  16
ATOM     16  C   LIG    1       -1.236   3.027   0.029  0.00  0.00    +0.360 A 
ATOM     17  C   LIG    1       -0.048   3.760   0.022  0.00  0.00    -0.030 A 
ATOM     18  C   LIG    1        1.156   3.063   0.007  0.00  0.00    +0.240 A 
ATOM     19  N   LIG    1        1.130   1.730   0.001  0.00  0.00    -0.500 NA
ATOM     20  C   LIG    1       -0.013   1.076   0.008  0.00  0.00    +0.520 A 
ATOM     21  N   LIG    1       -1.174   1.699   0.017  0.00  0.00    -0.540 NA
BRANCH  18  22
ATOM     22  C   LIG    1        2.450   3.791  -0.002  0.00  0.00    +0.350 A 
ATOM     23  N   LIG    1        2.445   5.117  -0.001  0.00  0.00    -0.500 NA
ATOM     24  C   LIG    1        3.579   5.796  -0.003  0.00  0.00    +0.330 A 
ATOM     25  C   LIG    1        4.782   5.105  -0.018  0.00  0.00    -0.070 A 
ATOM     26  C   LIG    1        4.749   3.718  -0.025  0.00  0.00    +0.330 A 
ATOM     27  N   LIG    1        3.580   3.101  -0.016  0.00  0.00    -0.470 NA
ENDBRANCH  18  22
ENDBRANCH  15  16
TORSDOF 2
