REMARK  Name = ZINCqH0000008nIa.0
REMARK                            x       y       z     vdW  Elec       q    Type
REMARK                         _______ _______ _______ _____ _____    ______ ____
ROOT
ATOM      1  N   LIG    1       -1.137  -2.041   0.002  0.00  0.00    -0.740 N 
ATOM      2  H   LIG    1       -0.291  -2.515  -0.009  0.00  0.00    +0.400 HD
ATOM      3  C   LIG    1       -1.156  -0.694   0.009  0.00  0.00    +0.710 C 
ATOM      4  N   LIG    1        0.002  -0.004   0.002  0.00  0.00    -0.740 N 
ATOM      5  H   LIG    1        0.849  -0.478  -0.009  0.00  0.00    +0.400 HD
ATOM      6  O   LIG    1       -2.217  -0.100   0.023  0.00  0.00    -0.590 OA
ENDROOT
BRANCH   1   8
ATOM      7  C   LIG    1       -2.885  -2.952   1.451  0.00  0.00    +0.040 C 
ATOM      8  C   LIG    1       -2.396  -2.791   0.010  0.00  0.00    +0.300 C 
BRANCH   8   9
ATOM      9  C   LIG    1       -2.175  -4.151  -0.600  0.00  0.00    -0.090 A 
ATOM     10  C   LIG    1       -1.018  -4.855  -0.324  0.00  0.00    +0.000 A 
ATOM     11  C   LIG    1       -0.821  -6.099  -0.888  0.00  0.00    +0.000 A 
ATOM     12  C   LIG    1       -1.776  -6.650  -1.732  0.00  0.00    -0.070 A 
ATOM     13  C   LIG    1       -1.490  -8.005  -2.325  0.00  0.00    +0.070 C 
ATOM     14  C   LIG    1       -2.774  -8.640  -2.855  0.00  0.00    +0.020 C 
ATOM     15  C   LIG    1       -3.475  -7.627  -3.768  0.00  0.00    +0.020 C 
ATOM     16  C   LIG    1       -4.013  -6.491  -2.901  0.00  0.00    +0.080 C 
ATOM     17  C   LIG    1       -2.931  -5.951  -2.003  0.00  0.00    -0.070 A 
ATOM     18  C   LIG    1       -3.129  -4.701  -1.432  0.00  0.00    +0.010 A 
ENDBRANCH   8   9
ENDBRANCH   1   8
BRANCH   4  19
ATOM     19  C   LIG    1       -0.018   1.461   0.010  0.00  0.00    +0.260 C 
BRANCH  19  20
ATOM     20  C   LIG    1        1.418   1.990  -0.001  0.00  0.00    +0.260 C 
BRANCH  20  21
ATOM     21  C   LIG    1        1.400   3.491   0.131  0.00  0.00    -0.150 A 
ATOM     22  C   LIG    1        1.449   4.285  -0.999  0.00  0.00    +0.050 A 
ATOM     23  C   LIG    1        1.434   5.663  -0.878  0.00  0.00    +0.000 A 
ATOM     24  C   LIG    1        1.369   6.247   0.373  0.00  0.00    +0.050 A 
ATOM     25  C   LIG    1        1.320   5.455   1.505  0.00  0.00    -0.010 A 
ATOM     26  C   LIG    1        1.329   4.076   1.385  0.00  0.00    +0.110 A 
ATOM     27  F   LIG    1        1.276   3.300   2.490  0.00  0.00    -0.130 F 
ENDBRANCH  20  21
BRANCH  20  28
ATOM     28  O   LIG    1        2.050   1.628  -1.230  0.00  0.00    -0.550 OA
ATOM     29  H   LIG    1        1.610   1.978  -2.017  0.00  0.00    +0.380 HD
ENDBRANCH  20  28
ENDBRANCH  19  20
ENDBRANCH   4  19
TORSDOF 6
