REMARK  Name = ZINCpk00000xI3ye.2
REMARK                            x       y       z     vdW  Elec       q    Type
REMARK                         _______ _______ _______ _____ _____    ______ ____
ROOT
ATOM      1  C   LIG    1       -0.718   1.574   1.276  0.00  0.00    +0.020 C 
ATOM      2  C   LIG    1       -0.013   1.086   0.008  0.00  0.00    +0.080 C 
ATOM      3  C   LIG    1       -0.740   1.586  -1.238  0.00  0.00    +0.170 C 
ATOM      4  N   LIG    1       -0.712   3.057  -1.235  0.00  0.00    -0.530 NA
ATOM      5  C   LIG    1       -1.499   3.566  -0.106  0.00  0.00    +0.190 C 
ATOM      6  C   LIG    1       -1.209   3.596  -2.508  0.00  0.00    +0.190 C 
ATOM      7  C   LIG    1        0.310   1.448   2.433  0.00  0.00    +0.270 C 
ATOM      8  N   LIG    1        1.015   2.741   2.525  0.00  0.00    -0.460 N 
ATOM      9  C   LIG    1        0.463   3.655   1.498  0.00  0.00    +0.250 C 
ATOM     10  C   LIG    1       -0.945   3.097   1.218  0.00  0.00    +0.010 C 
ENDROOT
BRANCH   8  11
ATOM     11  C   LIG    1        2.382   2.575   2.358  0.00  0.00    +0.310 A 
ATOM     12  N   LIG    1        2.872   1.362   2.148  0.00  0.00    -0.490 NA
ATOM     13  C   LIG    1        4.162   1.153   1.983  0.00  0.00    +0.360 A 
ATOM     14  C   LIG    1        5.066   2.215   2.024  0.00  0.00    -0.080 A 
ATOM     15  C   LIG    1        4.582   3.514   2.245  0.00  0.00    +0.120 A 
ATOM     16  C   LIG    1        3.222   3.688   2.407  0.00  0.00    +0.040 A 
ATOM     17  F   LIG    1        2.711   4.921   2.616  0.00  0.00    -0.120 F 
BRANCH  14  18
ATOM     18  C   LIG    1        6.468   1.983   1.844  0.00  0.00    +0.250 C 
ATOM     19  N   LIG    1        7.580   1.799   1.701  0.00  0.00    -0.400 NA
ENDBRANCH  14  18
ENDBRANCH   8  11
BRANCH   1  24
ATOM     20  C   LIG    1       -4.074  -2.030   2.187  0.00  0.00    +0.200 C 
ATOM     21  C   LIG    1       -3.422  -0.696   1.927  0.00  0.00    +0.170 A 
ATOM     22  N   LIG    1       -4.025   0.453   1.855  0.00  0.00    -0.380 NA
ATOM     23  O   LIG    1       -3.221   1.336   1.640  0.00  0.00    +0.080 OA
ATOM     24  C   LIG    1       -1.993   0.817   1.542  0.00  0.00    +0.200 A 
ATOM     25  N   LIG    1       -2.110  -0.476   1.727  0.00  0.00    -0.470 NA
ENDBRANCH   1  24
TORSDOF 3
