REMARK  Name = ZINCvU0000000Crg.0
REMARK                            x       y       z     vdW  Elec       q    Type
REMARK                         _______ _______ _______ _____ _____    ______ ____
ROOT
ATOM      1  C   LIG    1       -6.630   0.024   0.594  0.00  0.00    +0.230 A 
ATOM      2  N   LIG    1       -5.923  -1.037   0.283  0.00  0.00    -0.270 NA
ATOM      3  N   LIG    1       -4.671  -0.789   0.429  0.00  0.00    -0.290 NA
ATOM      4  C   LIG    1       -4.501   0.447   0.842  0.00  0.00    +0.140 A 
ATOM      5  N   LIG    1       -5.741   1.006   0.968  0.00  0.00    -0.440 N 
ENDROOT
BRANCH   1  11
ATOM      6  C   LIG    1      -10.726   2.800  -0.053  0.00  0.00    +0.090 C 
ATOM      7  C   LIG    1      -10.077   1.473   0.245  0.00  0.00    -0.080 A 
ATOM      8  C   LIG    1      -10.863   0.359   0.484  0.00  0.00    +0.030 A 
ATOM      9  C   LIG    1      -10.275  -0.863   0.759  0.00  0.00    +0.020 A 
ATOM     10  C   LIG    1       -8.901  -0.980   0.792  0.00  0.00    +0.050 A 
ATOM     11  C   LIG    1       -8.103   0.141   0.556  0.00  0.00    -0.010 A 
ATOM     12  C   LIG    1       -8.702   1.371   0.280  0.00  0.00    +0.020 A 
ENDBRANCH   1  11
BRANCH   5  13
ATOM     13  C   LIG    1       -6.059   2.367   1.405  0.00  0.00    +0.250 C 
ATOM     14  C   LIG    1       -5.516   3.370   0.385  0.00  0.00    +0.010 C 
ATOM     15  C   LIG    1       -5.848   4.793   0.842  0.00  0.00    +0.040 C 
ATOM     16  C   LIG    1       -5.204   5.053   2.205  0.00  0.00    +0.010 C 
ATOM     17  C   LIG    1       -5.747   4.050   3.226  0.00  0.00    +0.040 C 
ATOM     18  C   LIG    1       -5.415   2.628   2.769  0.00  0.00    -0.010 C 
ATOM     19  C   LIG    1       -5.957   1.625   3.789  0.00  0.00    +0.030 C 
ENDBRANCH   5  13
BRANCH   4  20
ATOM     20  S   LIG    1       -2.961   1.235   1.180  0.00  0.00    +0.100 S 
BRANCH  20  21
ATOM     21  C   LIG    1       -1.825  -0.120   0.794  0.00  0.00    +0.110 C 
BRANCH  21  22
ATOM     22  C   LIG    1       -0.406   0.336   1.016  0.00  0.00    +0.540 C 
ATOM     23  N   LIG    1        0.618  -0.511   0.791  0.00  0.00    -0.650 N 
ATOM     24  H   LIG    1        0.449  -1.384   0.403  0.00  0.00    +0.420 HD
ATOM     25  O   LIG    1       -0.185   1.466   1.398  0.00  0.00    -0.500 OA
BRANCH  23  26
ATOM     26  C   LIG    1        1.926  -0.130   1.112  0.00  0.00    +0.120 A 
ATOM     27  C   LIG    1        2.159   0.939   1.973  0.00  0.00    +0.090 A 
ATOM     28  C   LIG    1        3.472   1.278   2.261  0.00  0.00    +0.010 A 
ATOM     29  C   LIG    1        4.498   0.552   1.689  0.00  0.00    +0.270 A 
ATOM     30  N   LIG    1        4.245  -0.456   0.876  0.00  0.00    -0.450 NA
ATOM     31  C   LIG    1        3.012  -0.816   0.580  0.00  0.00    +0.140 A 
ATOM     32 CL   LIG    1        2.741  -2.157  -0.489  0.00  0.00    -0.030 Cl
ENDBRANCH  23  26
ENDBRANCH  21  22
ENDBRANCH  20  21
ENDBRANCH   4  20
TORSDOF 6
