REMARK  Name = ZINCnE000001OKns.0
REMARK                            x       y       z     vdW  Elec       q    Type
REMARK                         _______ _______ _______ _____ _____    ______ ____
ROOT
ATOM      1  C   LIG    1       -1.248   3.352   7.037  0.00  0.00    +0.110 C 
ATOM      2  C   LIG    1       -1.572   3.002   5.608  0.00  0.00    -0.100 A 
ATOM      3  C   LIG    1       -2.763   3.323   5.024  0.00  0.00    -0.170 A 
ATOM      4  S   LIG    1       -2.777   2.762   3.358  0.00  0.00    +0.190 S 
ATOM      5  C   LIG    1       -1.157   2.102   3.530  0.00  0.00    -0.240 A 
ATOM      6  C   LIG    1       -0.696   2.336   4.795  0.00  0.00    +0.090 A 
ENDROOT
BRANCH   5   7
ATOM      7  C   LIG    1       -0.411   1.411   2.475  0.00  0.00    +0.590 C 
ATOM      8  N   LIG    1       -0.968   1.236   1.260  0.00  0.00    -0.610 N 
ATOM      9  C   LIG    1       -2.311   1.685   0.855  0.00  0.00    +0.230 C 
ATOM     10  C   LIG    1       -2.501   1.290  -0.624  0.00  0.00    +0.060 C 
ATOM     11  C   LIG    1       -1.043   1.144  -1.135  0.00  0.00    -0.090 C 
ATOM     12  C   LIG    1       -0.333   0.562   0.113  0.00  0.00    +0.280 C 
ATOM     13  O   LIG    1        0.711   0.995   2.696  0.00  0.00    -0.530 OA
BRANCH  11  14
ATOM     14  C   LIG    1       -0.970   0.184  -2.294  0.00  0.00    +0.510 C 
ATOM     15  O   LIG    1       -1.501   0.468  -3.355  0.00  0.00    -0.690 OA
ATOM     16  O   LIG    1       -0.380  -0.876  -2.172  0.00  0.00    -0.690 OA
ENDBRANCH  11  14
ENDBRANCH   5   7
BRANCH   3  17
ATOM     17  C   LIG    1       -3.871   4.040   5.690  0.00  0.00    -0.020 A 
ATOM     18  C   LIG    1       -5.178   3.559   5.588  0.00  0.00    +0.060 A 
ATOM     19  C   LIG    1       -6.207   4.228   6.217  0.00  0.00    -0.010 A 
ATOM     20  C   LIG    1       -5.947   5.383   6.939  0.00  0.00    +0.100 A 
ATOM     21  C   LIG    1       -4.653   5.868   7.038  0.00  0.00    -0.010 A 
ATOM     22  F   LIG    1       -6.960   6.038   7.547  0.00  0.00    -0.140 F 
ATOM     23  C   LIG    1       -3.615   5.203   6.419  0.00  0.00    +0.070 A 
ENDBRANCH   3  17
TORSDOF 3
