REMARK  Name = ZINCqH0000037kJc.0
REMARK                            x       y       z     vdW  Elec       q    Type
REMARK                         _______ _______ _______ _____ _____    ______ ____
ROOT
ATOM      1  N   LIG    1       -3.514   1.675  -0.960  0.00  0.00    -0.620 N 
ATOM      2  C   LIG    1       -2.541   0.924  -0.158  0.00  0.00    +0.300 C 
ATOM      3  C   LIG    1       -1.336   1.874   0.023  0.00  0.00    +0.010 C 
ATOM      4  C   LIG    1       -1.468   2.791  -1.215  0.00  0.00    +0.070 C 
ATOM      5  C   LIG    1       -2.937   2.725  -1.569  0.00  0.00    +0.520 C 
ATOM      6  O   LIG    1       -3.512   3.507  -2.297  0.00  0.00    -0.510 OA
ENDROOT
BRANCH   3   7
ATOM      7  C   LIG    1       -0.037   1.109  -0.008  0.00  0.00    +0.530 C 
ATOM      8  N   LIG    1        1.136   1.773   0.003  0.00  0.00    -0.670 N 
ATOM      9  H   LIG    1        1.146   2.741  -0.051  0.00  0.00    +0.420 HD
ATOM     10  O   LIG    1       -0.048  -0.103  -0.048  0.00  0.00    -0.500 OA
BRANCH   8  11
ATOM     11  C   LIG    1        2.336   1.066   0.091  0.00  0.00    +0.190 A 
ATOM     12  C   LIG    1        2.361  -0.185   0.698  0.00  0.00    +0.030 A 
ATOM     13  C   LIG    1        3.542  -0.888   0.783  0.00  0.00    +0.120 A 
ATOM     14  C   LIG    1        4.720  -0.338   0.269  0.00  0.00    -0.040 A 
ATOM     15  C   LIG    1        4.692   0.923  -0.336  0.00  0.00    +0.030 A 
ATOM     16 CL   LIG    1        6.151   1.612  -0.978  0.00  0.00    -0.040 Cl
ATOM     17  C   LIG    1        3.505   1.618  -0.422  0.00  0.00    +0.010 A 
BRANCH  14  18
ATOM     18  C   LIG    1        5.951  -1.063   0.361  0.00  0.00    +0.250 C 
ATOM     19  N   LIG    1        6.928  -1.639   0.434  0.00  0.00    -0.390 NA
ENDBRANCH  14  18
ENDBRANCH   8  11
ENDBRANCH   3   7
BRANCH   1  21
ATOM     20  C   LIG    1       -5.237   0.931  -2.528  0.00  0.00    +0.030 C 
ATOM     21  C   LIG    1       -4.931   1.325  -1.081  0.00  0.00    +0.300 C 
BRANCH  21  22
ATOM     22  C   LIG    1       -5.777   2.510  -0.694  0.00  0.00    -0.090 A 
ATOM     23  C   LIG    1       -5.411   3.299   0.381  0.00  0.00    +0.010 A 
ATOM     24  C   LIG    1       -6.184   4.389   0.733  0.00  0.00    +0.000 A 
ATOM     25  C   LIG    1       -7.329   4.685   0.016  0.00  0.00    +0.000 A 
ATOM     26  C   LIG    1       -7.697   3.894  -1.056  0.00  0.00    +0.000 A 
ATOM     27  C   LIG    1       -6.921   2.806  -1.411  0.00  0.00    +0.020 A 
ENDBRANCH  21  22
ENDBRANCH   1  21
TORSDOF 5
