REMARK  Name = ZINCnE000001T6dT.1
REMARK                            x       y       z     vdW  Elec       q    Type
REMARK                         _______ _______ _______ _____ _____    ______ ____
ROOT
ATOM      1  N   LIG    1        1.030  10.266   0.044  0.00  0.00    -0.520 N 
ATOM      2  H   LIG    1        1.877   9.792   0.034  0.00  0.00    +0.360 HD
ATOM      3  C   LIG    1       -0.128   9.576   0.052  0.00  0.00    +0.540 C 
ATOM      4  O   LIG    1       -1.189  10.170   0.065  0.00  0.00    -0.550 OA
ENDROOT
BRANCH   3   5
ATOM      5  C   LIG    1       -0.108   8.099   0.044  0.00  0.00    -0.100 A 
ATOM      6  C   LIG    1       -1.308   7.384   0.051  0.00  0.00    +0.070 A 
ATOM      7  C   LIG    1       -1.288   6.007   0.044  0.00  0.00    +0.010 A 
ATOM      8  C   LIG    1       -0.070   5.327   0.029  0.00  0.00    -0.050 A 
ATOM      9  C   LIG    1        1.129   6.040   0.027  0.00  0.00    +0.020 A 
ATOM     10  C   LIG    1        1.111   7.417   0.029  0.00  0.00    +0.040 A 
BRANCH   8  11
ATOM     11  C   LIG    1       -0.050   3.844   0.022  0.00  0.00    -0.040 A 
ATOM     12  C   LIG    1        1.165   3.161   0.007  0.00  0.00    +0.020 A 
ATOM     13  C   LIG    1        1.177   1.781   0.000  0.00  0.00    +0.000 A 
ATOM     14  C   LIG    1       -0.013   1.076   0.008  0.00  0.00    +0.000 A 
ATOM     15  C   LIG    1       -1.221   1.748   0.017  0.00  0.00    +0.000 A 
ATOM     16  C   LIG    1       -1.246   3.128   0.030  0.00  0.00    +0.020 A 
ENDBRANCH   8  11
ENDBRANCH   3   5
BRANCH   1  19
ATOM     17  O   LIG    1        3.231  11.762   0.032  0.00  0.00    -0.680 OA
ATOM     18  C   LIG    1        2.169  12.357   0.045  0.00  0.00    +0.450 C 
ATOM     19  N   LIG    1        1.011  11.667   0.052  0.00  0.00    -0.490 NA
BRANCH  18  20
ATOM     20  C   LIG    1        2.149  13.822   0.053  0.00  0.00    -0.150 A 
ATOM     21  C   LIG    1        3.251  14.630   0.047  0.00  0.00    +0.010 A 
ATOM     22  C   LIG    1        2.943  15.970   0.056  0.00  0.00    -0.010 A 
ATOM     23  C   LIG    1        1.635  16.252   0.070  0.00  0.00    -0.140 A 
ATOM     24  S   LIG    1        0.703  14.823   0.064  0.00  0.00    +0.210 S 
ENDBRANCH  18  20
ENDBRANCH   1  19
TORSDOF 4
