REMARK  Name = ZINCqH0000007DIy.0
REMARK                            x       y       z     vdW  Elec       q    Type
REMARK                         _______ _______ _______ _____ _____    ______ ____
ROOT
ATOM      1  C   LIG    1        2.205  -5.914  -0.626  0.00  0.00    +0.280 A 
ATOM      2  N   LIG    1        2.063  -4.626  -0.567  0.00  0.00    -0.500 NA
ATOM      3  C   LIG    1        0.853  -4.167  -0.279  0.00  0.00    +0.130 A 
ATOM      4  C   LIG    1       -0.087  -5.106  -0.076  0.00  0.00    -0.110 A 
ATOM      5  S   LIG    1        0.660  -6.688  -0.286  0.00  0.00    +0.210 S 
ENDROOT
BRANCH   3   6
ATOM      6  C   LIG    1        0.559  -2.716  -0.182  0.00  0.00    -0.010 A 
ATOM      7  C   LIG    1       -0.703  -2.286   0.225  0.00  0.00    +0.050 A 
ATOM      8  C   LIG    1       -0.976  -0.935   0.315  0.00  0.00    +0.040 A 
ATOM      9  C   LIG    1        0.002  -0.004   0.002  0.00  0.00    +0.040 A 
ATOM     10  O   LIG    1       -0.016   1.361   0.009  0.00  0.00    -0.310 OA
ATOM     11  C   LIG    1        1.366   1.765  -0.002  0.00  0.00    +0.430 C 
ATOM     12  O   LIG    1        2.037   0.670  -0.653  0.00  0.00    -0.310 OA
ATOM     13  C   LIG    1        1.266  -0.429  -0.406  0.00  0.00    +0.030 A 
ATOM     14  C   LIG    1        1.543  -1.781  -0.498  0.00  0.00    +0.070 A 
ENDBRANCH   3   6
BRANCH   1  16
ATOM     15  C   LIG    1        3.417  -7.926  -0.945  0.00  0.00    +0.510 C 
ATOM     16  N   LIG    1        3.391  -6.579  -0.912  0.00  0.00    -0.620 N 
ATOM     17  H   LIG    1        4.200  -6.073  -1.088  0.00  0.00    +0.430 HD
ATOM     18  O   LIG    1        2.405  -8.558  -0.725  0.00  0.00    -0.490 OA
BRANCH  15  19
ATOM     19  C   LIG    1        4.703  -8.647  -1.256  0.00  0.00    +0.150 C 
BRANCH  19  24
ATOM     20  C   LIG    1        3.866 -12.162  -2.362  0.00  0.00    +0.130 A 
ATOM     21  C   LIG    1        4.026 -12.867  -1.178  0.00  0.00    -0.070 A 
ATOM     22  C   LIG    1        4.404 -12.205  -0.026  0.00  0.00    +0.050 A 
ATOM     23  C   LIG    1        4.628 -10.841  -0.053  0.00  0.00    -0.020 A 
ATOM     24  C   LIG    1        4.464 -10.135  -1.231  0.00  0.00    -0.040 A 
ATOM     25  C   LIG    1        4.086 -10.792  -2.385  0.00  0.00    +0.000 A 
BRANCH  20  27
ATOM     26  C   LIG    1        3.285 -14.221  -3.398  0.00  0.00    +0.250 C 
ATOM     27  O   LIG    1        3.494 -12.811  -3.496  0.00  0.00    -0.320 OA
ENDBRANCH  20  27
ENDBRANCH  19  24
ENDBRANCH  15  19
ENDBRANCH   1  16
TORSDOF 5
