REMARK  Name = ZINCrH00000tj1dA.0
REMARK                            x       y       z     vdW  Elec       q    Type
REMARK                         _______ _______ _______ _____ _____    ______ ____
ROOT
ATOM      1  C   LIG    1       -1.395   2.273  -0.270  0.00  0.00    +0.260 C 
ENDROOT
BRANCH   1  13
ATOM      2  C   LIG    1       -1.622  -1.827   0.286  0.00  0.00    +0.050 C 
ATOM      3  C   LIG    1       -1.583  -0.609  -0.638  0.00  0.00    +0.180 C 
ATOM      4  C   LIG    1       -1.746  -1.060  -2.100  0.00  0.00    +0.040 C 
ATOM      5  C   LIG    1       -0.488  -1.792  -2.516  0.00  0.00    +0.360 C 
ATOM      6  C   LIG    1        0.844  -1.102  -2.317  0.00  0.00    +0.020 C 
ATOM      7  C   LIG    1        0.941  -0.648  -0.855  0.00  0.00    +0.190 C 
ATOM      8  C   LIG    1        1.100  -1.869   0.052  0.00  0.00    +0.040 C 
ATOM      9  C   LIG    1        2.145   0.281  -0.685  0.00  0.00    +0.060 C 
ATOM     10  O   LIG    1       -0.546  -2.898  -2.995  0.00  0.00    -0.450 OA
ATOM     11  C   LIG    1       -2.712   0.355  -0.268  0.00  0.00    +0.060 C 
ATOM     12  N   LIG    1       -0.289   0.072  -0.501  0.00  0.00    -0.620 N 
ATOM     13  C   LIG    1       -0.231   1.341  -0.051  0.00  0.00    +0.530 C 
ATOM     14  O   LIG    1        0.760   1.735   0.526  0.00  0.00    -0.480 OA
ENDBRANCH   1  13
BRANCH   1  15
ATOM     15  O   LIG    1       -0.950   3.647  -0.125  0.00  0.00    -0.320 OA
BRANCH  15  16
ATOM     16  C   LIG    1       -1.876   4.612  -0.291  0.00  0.00    +0.550 C 
ATOM     17  O   LIG    1       -3.025   4.312  -0.551  0.00  0.00    -0.500 OA
BRANCH  16  18
ATOM     18  C   LIG    1       -1.497   6.027  -0.159  0.00  0.00    +0.030 A 
ATOM     19  C   LIG    1       -2.384   7.034  -0.315  0.00  0.00    -0.010 A 
ATOM     20  S   LIG    1       -1.585   8.528  -0.088  0.00  0.00    +0.200 S 
ATOM     21  C   LIG    1       -0.065   7.693   0.212  0.00  0.00    +0.120 A 
ATOM     22  N   LIG    1       -0.253   6.411   0.131  0.00  0.00    -0.420 NA
BRANCH  21  23
ATOM     23  C   LIG    1        1.224   8.350   0.515  0.00  0.00    -0.060 A 
ATOM     24  C   LIG    1        2.359   7.662   0.742  0.00  0.00    -0.010 A 
ATOM     25  S   LIG    1        3.652   8.729   1.056  0.00  0.00    +0.200 S 
ATOM     26  C   LIG    1        2.608  10.131   0.879  0.00  0.00    -0.060 A 
ATOM     27  C   LIG    1        1.368   9.737   0.596  0.00  0.00    +0.030 A 
ENDBRANCH  21  23
ENDBRANCH  16  18
ENDBRANCH  15  16
ENDBRANCH   1  15
TORSDOF 5
