REMARK  Name = ZINCpk00000eavSR.0
REMARK                            x       y       z     vdW  Elec       q    Type
REMARK                         _______ _______ _______ _____ _____    ______ ____
ROOT
ATOM      1  C   LIG    1       -3.715   5.545   1.471  0.00  0.00    +0.440 C 
ATOM      2  O   LIG    1       -4.563   5.579   0.611  0.00  0.00    -0.490 OA
ENDROOT
BRANCH   1   3
ATOM      3  C   LIG    1       -3.896   6.338   2.740  0.00  0.00    +0.320 C 
BRANCH   3   8
ATOM      4  C   LIG    1       -3.043   4.284   5.795  0.00  0.00    +0.130 A 
ATOM      5  C   LIG    1       -4.254   3.659   6.053  0.00  0.00    -0.070 A 
ATOM      6  C   LIG    1       -5.343   3.904   5.239  0.00  0.00    +0.060 A 
ATOM      7  C   LIG    1       -5.226   4.770   4.167  0.00  0.00    -0.010 A 
ATOM      8  C   LIG    1       -4.020   5.394   3.909  0.00  0.00    -0.090 A 
ATOM      9  C   LIG    1       -2.927   5.149   4.717  0.00  0.00    +0.020 A 
BRANCH   4  11
ATOM     10  C   LIG    1       -2.161   3.139   7.683  0.00  0.00    +0.250 C 
ATOM     11  O   LIG    1       -1.970   4.045   6.595  0.00  0.00    -0.320 OA
ENDBRANCH   4  11
ENDBRANCH   3   8
BRANCH   3  12
ATOM     12  O   LIG    1       -5.080   7.131   2.641  0.00  0.00    -0.520 OA
ATOM     13  H   LIG    1       -5.888   6.617   2.508  0.00  0.00    +0.390 HD
ENDBRANCH   3  12
ENDBRANCH   1   3
BRANCH   1  14
ATOM     14  O   LIG    1       -2.612   4.801   1.296  0.00  0.00    -0.330 OA
BRANCH  14  15
ATOM     15  C   LIG    1       -2.505   4.064   0.050  0.00  0.00    +0.320 C 
BRANCH  15  16
ATOM     16  C   LIG    1       -1.210   3.292   0.033  0.00  0.00    +0.210 A 
ATOM     17  C   LIG    1       -1.230   1.911   0.018  0.00  0.00    -0.150 A 
ATOM     18  C   LIG    1       -0.015   1.217   0.009  0.00  0.00    +0.510 A 
ATOM     19  N   LIG    1        1.139   1.918   0.002  0.00  0.00    -0.430 N 
ATOM     20  C   LIG    1        2.330   1.257  -0.013  0.00  0.00    +0.280 A 
ATOM     21  C   LIG    1        3.498   1.938  -0.022  0.00  0.00    +0.000 A 
ATOM     22  C   LIG    1        3.497   3.340  -0.014  0.00  0.00    +0.130 A 
ATOM     23  C   LIG    1        2.311   4.011   0.002  0.00  0.00    +0.040 A 
ATOM     24  C   LIG    1        1.105   3.285   0.010  0.00  0.00    +0.390 A 
ATOM     25  O   LIG    1        0.002  -0.004   0.002  0.00  0.00    -0.530 OA
ATOM     26  N   LIG    1       -0.055   3.939   0.025  0.00  0.00    -0.530 NA
ENDBRANCH  15  16
ENDBRANCH  14  15
ENDBRANCH   1  14
TORSDOF 7
