REMARK  Name = ZINCtV00000L6kj6.0
REMARK                            x       y       z     vdW  Elec       q    Type
REMARK                         _______ _______ _______ _____ _____    ______ ____
ROOT
ATOM      1  N   LIG    1        4.378  -0.797   1.287  0.00  0.00    -0.490 N 
ATOM      2  C   LIG    1        4.245  -1.856   2.171  0.00  0.00    +0.180 A 
ATOM      3  C   LIG    1        5.007  -1.581   3.316  0.00  0.00    -0.090 A 
ATOM      4  C   LIG    1        5.636  -0.264   3.096  0.00  0.00    +0.110 A 
ATOM      5  N   LIG    1        6.443   0.481   3.826  0.00  0.00    -0.380 NA
ATOM      6  C   LIG    1        6.862   1.659   3.355  0.00  0.00    +0.060 A 
ATOM      7  C   LIG    1        7.723   2.474   4.112  0.00  0.00    +0.070 A 
ATOM      8  C   LIG    1        8.134   3.670   3.611  0.00  0.00    +0.030 A 
ATOM      9  C   LIG    1        7.715   4.103   2.354  0.00  0.00    +0.060 A 
ATOM     10  C   LIG    1        6.882   3.342   1.593  0.00  0.00    +0.040 A 
ATOM     11  C   LIG    1        6.435   2.099   2.075  0.00  0.00    +0.130 A 
ATOM     12  N   LIG    1        5.617   1.335   1.345  0.00  0.00    -0.450 NA
ATOM     13  C   LIG    1        5.044  -2.493   4.368  0.00  0.00    +0.120 A 
ATOM     14  C   LIG    1        4.329  -3.670   4.279  0.00  0.00    -0.070 A 
ATOM     15  C   LIG    1        3.576  -3.944   3.147  0.00  0.00    +0.100 A 
ATOM     16 CL   LIG    1        4.373  -4.811   5.587  0.00  0.00    -0.060 Cl
ATOM     17  C   LIG    1        3.531  -3.048   2.100  0.00  0.00    +0.010 A 
ATOM     18  C   LIG    1        5.211   0.169   1.813  0.00  0.00    +0.330 A 
ENDROOT
BRANCH   1  19
ATOM     19  C   LIG    1        3.731  -0.717  -0.025  0.00  0.00    +0.390 C 
BRANCH  19  25
ATOM     20  C   LIG    1        1.703   0.358  -1.036  0.00  0.00    +0.140 A 
ATOM     21  C   LIG    1        0.512   1.059  -0.917  0.00  0.00    -0.070 A 
ATOM     22  C   LIG    1        0.058   1.443   0.330  0.00  0.00    +0.050 A 
ATOM     23  C   LIG    1        0.790   1.129   1.460  0.00  0.00    -0.030 A 
ATOM     24  C   LIG    1        1.978   0.430   1.345  0.00  0.00    +0.050 A 
ATOM     25  C   LIG    1        2.436   0.044   0.100  0.00  0.00    -0.140 A 
BRANCH  20  26
ATOM     26  O   LIG    1        2.151  -0.021  -2.261  0.00  0.00    -0.320 OA
BRANCH  26  27
ATOM     27  C   LIG    1        1.404   0.429  -3.393  0.00  0.00    +0.180 C 
BRANCH  27  29
ATOM     28  C   LIG    1        1.138   0.224  -5.869  0.00  0.00    +0.040 C 
ATOM     29  C   LIG    1        2.008  -0.159  -4.670  0.00  0.00    +0.020 C 
ENDBRANCH  27  29
ENDBRANCH  26  27
ENDBRANCH  20  26
ENDBRANCH  19  25
ENDBRANCH   1  19
TORSDOF 5
