REMARK  Name = ZINCuL0000000372.0
REMARK                            x       y       z     vdW  Elec       q    Type
REMARK                         _______ _______ _______ _____ _____    ______ ____
ROOT
ATOM      1  C   LIG    1        1.383  -3.185   2.252  0.00  0.00    +0.310 A 
ATOM      2  C   LIG    1        1.319  -4.562   2.103  0.00  0.00    -0.150 A 
ATOM      3  C   LIG    1        0.680  -5.110   1.006  0.00  0.00    +0.030 A 
ATOM      4  C   LIG    1        0.105  -4.289   0.054  0.00  0.00    -0.120 A 
ATOM      5  C   LIG    1        0.159  -2.915   0.197  0.00  0.00    +0.010 A 
ATOM      6  C   LIG    1        0.802  -2.356   1.291  0.00  0.00    -0.160 A 
ENDROOT
BRANCH   1   7
ATOM      7  N   LIG    1        2.029  -2.628   3.362  0.00  0.00    -1.070 NA
BRANCH   7   8
ATOM      8  S   LIG    1        2.718  -3.614   4.500  0.00  0.00    +2.620 S 
ATOM      9  O   LIG    1        3.801  -4.272   3.858  0.00  0.00    -1.030 OA
ATOM     10  O   LIG    1        1.649  -4.308   5.129  0.00  0.00    -1.020 OA
BRANCH   8  15
ATOM     11  C   LIG    1        3.494  -1.762   7.992  0.00  0.00    -0.170 A 
ATOM     12  C   LIG    1        4.561  -0.923   7.658  0.00  0.00    +0.120 A 
ATOM     13  C   LIG    1        5.051  -0.916   6.370  0.00  0.00    -0.070 A 
ATOM     14  C   LIG    1        4.487  -1.738   5.406  0.00  0.00    +0.190 A 
ATOM     15  C   LIG    1        3.428  -2.572   5.732  0.00  0.00    -0.670 A 
ATOM     16  F   LIG    1        4.971  -1.726   4.145  0.00  0.00    -0.130 F 
ATOM     17  C   LIG    1        2.926  -2.584   7.014  0.00  0.00    +0.180 A 
BRANCH  11  19
ATOM     18  O   LIG    1        3.461  -1.049  10.220  0.00  0.00    -0.690 OA
ATOM     19  C   LIG    1        2.965  -1.774   9.368  0.00  0.00    +0.530 C 
ATOM     20  O   LIG    1        2.031  -2.508   9.658  0.00  0.00    -0.680 OA
ENDBRANCH  11  19
ENDBRANCH   8  15
ENDBRANCH   7   8
ENDBRANCH   1   7
BRANCH   6  21
ATOM     21  S   LIG    1        0.879  -0.605   1.472  0.00  0.00    -0.040 S 
BRANCH  21  22
ATOM     22  C   LIG    1        0.002  -0.004   0.002  0.00  0.00    -0.010 C 
BRANCH  22  23
ATOM     23  C   LIG    1       -0.019   1.526   0.010  0.00  0.00    +0.280 C 
BRANCH  23  24
ATOM     24  C   LIG    1       -0.748   2.025  -1.210  0.00  0.00    -0.100 A 
ATOM     25  C   LIG    1       -2.126   2.133  -1.197  0.00  0.00    +0.010 A 
ATOM     26  C   LIG    1       -2.794   2.595  -2.315  0.00  0.00    +0.000 A 
ATOM     27  C   LIG    1       -2.085   2.941  -3.450  0.00  0.00    -0.010 A 
ATOM     28  C   LIG    1       -0.707   2.828  -3.466  0.00  0.00    +0.000 A 
ATOM     29  C   LIG    1       -0.038   2.370  -2.346  0.00  0.00    +0.020 A 
ENDBRANCH  23  24
BRANCH  23  30
ATOM     30  O   LIG    1       -0.688   1.987   1.186  0.00  0.00    -0.540 OA
ATOM     31  H   LIG    1       -1.605   1.688   1.259  0.00  0.00    +0.370 HD
ENDBRANCH  23  30
ENDBRANCH  22  23
ENDBRANCH  21  22
ENDBRANCH   6  21
TORSDOF 9
