REMARK  Name = ZINCkj000018RDDy.0
REMARK                            x       y       z     vdW  Elec       q    Type
REMARK                         _______ _______ _______ _____ _____    ______ ____
ROOT
ATOM      1  N   LIG    1        5.507  -1.584   1.373  0.00  0.00    -0.710 N 
ATOM      2  H   LIG    1        5.885  -1.881   0.531  0.00  0.00    +0.410 HD
ATOM      3  C   LIG    1        6.157  -1.833   2.528  0.00  0.00    +0.540 C 
ATOM      4  O   LIG    1        5.684  -1.462   3.582  0.00  0.00    -0.530 OA
ENDROOT
BRANCH   3   5
ATOM      5  C   LIG    1        7.470  -2.572   2.510  0.00  0.00    -0.010 C 
ATOM      6  C   LIG    1        7.497  -3.987   3.107  0.00  0.00    +0.060 C 
ATOM      7  C   LIG    1        8.334  -5.021   2.388  0.00  0.00    +0.090 C 
ATOM      8  C   LIG    1        9.765  -4.975   2.932  0.00  0.00    +0.070 C 
ATOM      9  C   LIG    1       10.252  -3.522   2.877  0.00  0.00    +0.250 C 
ATOM     10  N   LIG    1        9.604  -2.762   3.950  0.00  0.00    -0.470 N 
ATOM     11  H   LIG    1        9.890  -3.142   4.841  0.00  0.00    +0.440 HD
ATOM     12  H   LIG    1        9.896  -1.798   3.894  0.00  0.00    +0.430 HD
ATOM     13  C   LIG    1        8.152  -2.828   3.848  0.00  0.00    +0.150 C 
ENDBRANCH   3   5
BRANCH   1  14
ATOM     14  C   LIG    1        4.231  -0.866   1.391  0.00  0.00    +0.270 C 
BRANCH  14  15
ATOM     15  C   LIG    1        3.710  -0.717  -0.040  0.00  0.00    +0.080 C 
BRANCH  15  21
ATOM     16  C   LIG    1        2.380   1.409  -0.014  0.00  0.00    +0.130 A 
ATOM     17  C   LIG    1        1.170   2.086   0.002  0.00  0.00    -0.080 A 
ATOM     18  C   LIG    1       -0.017   1.378   0.010  0.00  0.00    +0.060 A 
ATOM     19  C   LIG    1        0.002  -0.004   0.002  0.00  0.00    -0.020 A 
ATOM     20  C   LIG    1        1.208  -0.681  -0.014  0.00  0.00    +0.050 A 
ATOM     21  C   LIG    1        2.396   0.022  -0.022  0.00  0.00    -0.120 A 
BRANCH  16  23
ATOM     22  C   LIG    1        3.456   3.530  -0.012  0.00  0.00    +0.250 C 
ATOM     23  O   LIG    1        3.548   2.104  -0.021  0.00  0.00    -0.320 OA
ENDBRANCH  16  23
ENDBRANCH  15  21
ENDBRANCH  14  15
ENDBRANCH   1  14
TORSDOF 5
