REMARK  Name = ZINCrH00000No4Xy.0
REMARK                            x       y       z     vdW  Elec       q    Type
REMARK                         _______ _______ _______ _____ _____    ______ ____
ROOT
ATOM      1  N   LIG    1       -0.862   2.449  -4.798  0.00  0.00    -0.560 N 
ATOM      2  C   LIG    1        0.463   2.218  -4.875  0.00  0.00    +0.550 C 
ATOM      3  O   LIG    1        1.079   1.873  -3.885  0.00  0.00    -0.520 OA
ENDROOT
BRANCH   1   4
ATOM      4  C   LIG    1       -1.508   2.405  -3.559  0.00  0.00    +0.140 A 
ATOM      5  C   LIG    1       -2.075   3.557  -3.027  0.00  0.00    +0.010 A 
ATOM      6  C   LIG    1       -2.711   3.508  -1.804  0.00  0.00    +0.040 A 
ATOM      7  C   LIG    1       -2.789   2.315  -1.103  0.00  0.00    -0.090 A 
ATOM      8  C   LIG    1       -3.422   2.006   0.237  0.00  0.00    +0.070 C 
ATOM      9  C   LIG    1       -2.808   0.656   0.673  0.00  0.00    +0.170 C 
ATOM     10  C   LIG    1       -2.443   0.009  -0.679  0.00  0.00    +0.090 C 
ATOM     11  C   LIG    1       -2.225   1.167  -1.630  0.00  0.00    -0.080 A 
ATOM     12  C   LIG    1       -1.586   1.211  -2.856  0.00  0.00    +0.040 A 
BRANCH   9  13
ATOM     13  O   LIG    1       -3.768  -0.138   1.374  0.00  0.00    -0.380 OA
ATOM     14  C   LIG    1       -3.672  -0.044   2.796  0.00  0.00    +0.200 C 
ENDBRANCH   9  13
ENDBRANCH   1   4
BRANCH   2  15
ATOM     15  C   LIG    1        1.165   2.382  -6.157  0.00  0.00    -0.090 C 
ATOM     16  C   LIG    1        2.450   2.055  -6.259  0.00  0.00    +0.150 C 
ENDBRANCH   2  15
BRANCH   1  17
ATOM     17  C   LIG    1       -1.626   2.746  -6.012  0.00  0.00    +0.360 C 
BRANCH  17  21
ATOM     18  C   LIG    1       -3.403  -0.854  -7.495  0.00  0.00    +0.080 A 
ATOM     19  C   LIG    1       -4.045  -0.113  -6.502  0.00  0.00    +0.000 A 
ATOM     20  C   LIG    1       -3.467   1.049  -6.027  0.00  0.00    +0.160 A 
ATOM     21  C   LIG    1       -2.252   1.478  -6.535  0.00  0.00    -0.180 A 
ATOM     22  C   LIG    1       -1.613   0.750  -7.524  0.00  0.00    +0.150 A 
ATOM     23  F   LIG    1       -0.431   1.178  -8.019  0.00  0.00    -0.120 F 
ATOM     24  F   LIG    1       -4.088   1.767  -5.066  0.00  0.00    -0.120 F 
ATOM     25  C   LIG    1       -2.180  -0.416  -8.003  0.00  0.00    +0.000 A 
BRANCH  18  27
ATOM     26  C   LIG    1       -4.485  -3.045  -8.398  0.00  0.00    +0.100 C 
ATOM     27  C   LIG    1       -3.998  -2.058  -7.991  0.00  0.00    -0.170 C 
ENDBRANCH  18  27
ENDBRANCH  17  21
ENDBRANCH   1  17
TORSDOF 6
