REMARK  Name = ZINCrg000000t24Y.1
REMARK                            x       y       z     vdW  Elec       q    Type
REMARK                         _______ _______ _______ _____ _____    ______ ____
ROOT
ATOM      1  C   LIG    1       -0.513  -0.718   1.023  0.00  0.00    +0.530 C 
ATOM      2  N   LIG    1        0.002  -0.004   0.002  0.00  0.00    -0.610 N 
ATOM      3  C   LIG    1        0.607  -0.664  -1.164  0.00  0.00    +0.320 C 
ATOM      4  C   LIG    1        1.880   0.047  -1.528  0.00  0.00    -0.050 C 
ATOM      5  C   LIG    1        2.233   1.204  -1.019  0.00  0.00    -0.030 C 
ATOM      6  C   LIG    1        1.432   1.961  -0.001  0.00  0.00    +0.070 C 
ATOM      7  C   LIG    1       -0.018   1.469   0.010  0.00  0.00    +0.280 C 
ATOM      8  O   LIG    1       -1.006  -0.148   1.973  0.00  0.00    -0.530 OA
ENDROOT
BRANCH   5   9
ATOM      9  C   LIG    1        3.502   1.801  -1.478  0.00  0.00    -0.140 A 
ATOM     10  C   LIG    1        3.646   2.846  -2.333  0.00  0.00    +0.260 A 
ATOM     11  N   LIG    1        4.973   3.111  -2.518  0.00  0.00    -0.580 N 
ATOM     12  H   LIG    1        5.323   3.815  -3.086  0.00  0.00    +0.420 HD
ATOM     13  C   LIG    1        5.741   2.239  -1.783  0.00  0.00    +0.280 A 
ATOM     14  N   LIG    1        7.051   2.095  -1.631  0.00  0.00    -0.500 NA
ATOM     15  C   LIG    1        7.559   1.171  -0.843  0.00  0.00    +0.300 A 
ATOM     16  C   LIG    1        6.750   0.294  -0.140  0.00  0.00    -0.060 A 
ATOM     17  C   LIG    1        5.375   0.394  -0.261  0.00  0.00    +0.100 A 
ATOM     18  C   LIG    1        4.861   1.384  -1.095  0.00  0.00    -0.140 A 
ENDBRANCH   5   9
BRANCH   1  23
ATOM     19  N   LIG    1       -1.199  -4.247   2.140  0.00  0.00    -1.000 NA
ATOM     20  C   LIG    1       -1.841  -4.833   0.954  0.00  0.00    +0.290 C 
ATOM     21  C   LIG    1       -1.184  -4.249  -0.300  0.00  0.00    +0.020 C 
ATOM     22  C   LIG    1       -1.248  -2.721  -0.241  0.00  0.00    +0.040 C 
ATOM     23  C   LIG    1       -0.477  -2.224   0.983  0.00  0.00    -0.020 C 
ATOM     24  C   LIG    1       -1.126  -2.784   2.253  0.00  0.00    +0.330 C 
BRANCH  19  25
ATOM     25  S   LIG    1       -0.572  -5.218   3.325  0.00  0.00    +2.790 S 
ATOM     26  O   LIG    1       -1.253  -6.461   3.228  0.00  0.00    -0.980 OA
ATOM     27  O   LIG    1       -0.546  -4.436   4.512  0.00  0.00    -0.980 OA
BRANCH  25  28
ATOM     28  N   LIG    1        1.008  -5.518   2.929  0.00  0.00    -1.260 NA
ATOM     29  H   LIG    1        1.278  -5.540   1.997  0.00  0.00    +0.410 HD
ATOM     30  H   LIG    1        1.663  -5.671   3.627  0.00  0.00    +0.420 HD
ENDBRANCH  25  28
ENDBRANCH  19  25
ENDBRANCH   1  23
TORSDOF 4
