REMARK  Name = ZINCrg000000t24Y.0
REMARK                            x       y       z     vdW  Elec       q    Type
REMARK                         _______ _______ _______ _____ _____    ______ ____
ROOT
ATOM      1  C   LIG    1        0.465   5.872  -2.482  0.00  0.00    +0.530 C 
ATOM      2  N   LIG    1        1.371   6.102  -3.453  0.00  0.00    -0.610 N 
ATOM      3  C   LIG    1        1.980   4.997  -4.207  0.00  0.00    +0.320 C 
ATOM      4  C   LIG    1        3.454   5.253  -4.353  0.00  0.00    -0.060 C 
ATOM      5  C   LIG    1        4.022   6.400  -4.055  0.00  0.00    -0.020 C 
ATOM      6  C   LIG    1        3.288   7.593  -3.517  0.00  0.00    +0.070 C 
ATOM      7  C   LIG    1        1.785   7.471  -3.806  0.00  0.00    +0.280 C 
ATOM      8  O   LIG    1       -0.022   6.802  -1.875  0.00  0.00    -0.530 OA
ENDROOT
BRANCH   5   9
ATOM      9  C   LIG    1        5.476   6.523  -4.262  0.00  0.00    -0.200 A 
ATOM     10  C   LIG    1        6.163   6.484  -5.466  0.00  0.00    +0.250 A 
ATOM     11  N   LIG    1        7.463   6.633  -5.242  0.00  0.00    -0.550 NA
ATOM     12  C   LIG    1        7.737   6.766  -3.954  0.00  0.00    +0.260 A 
ATOM     13  N   LIG    1        8.905   6.935  -3.253  0.00  0.00    -0.500 N 
ATOM     14  H   LIG    1        9.748   6.977  -3.730  0.00  0.00    +0.420 HD
ATOM     15  C   LIG    1        8.892   7.044  -1.915  0.00  0.00    +0.330 A 
ATOM     16  C   LIG    1        7.733   6.992  -1.202  0.00  0.00    -0.070 A 
ATOM     17  C   LIG    1        6.516   6.820  -1.855  0.00  0.00    +0.180 A 
ATOM     18  C   LIG    1        6.511   6.707  -3.239  0.00  0.00    -0.160 A 
ENDBRANCH   5   9
BRANCH   1  23
ATOM     19  N   LIG    1       -1.460   3.107  -0.800  0.00  0.00    -1.010 NA
ATOM     20  C   LIG    1       -1.985   2.349  -1.944  0.00  0.00    +0.290 C 
ATOM     21  C   LIG    1       -0.937   2.354  -3.062  0.00  0.00    +0.020 C 
ATOM     22  C   LIG    1       -0.553   3.800  -3.389  0.00  0.00    +0.030 C 
ATOM     23  C   LIG    1        0.058   4.459  -2.150  0.00  0.00    -0.020 C 
ATOM     24  C   LIG    1       -0.984   4.479  -1.021  0.00  0.00    +0.330 C 
BRANCH  19  25
ATOM     25  S   LIG    1       -1.413   2.430   0.710  0.00  0.00    +2.790 S 
ATOM     26  O   LIG    1       -1.403   3.511   1.634  0.00  0.00    -0.970 OA
ATOM     27  O   LIG    1       -2.398   1.407   0.722  0.00  0.00    -0.980 OA
BRANCH  25  28
ATOM     28  N   LIG    1        0.051   1.672   0.862  0.00  0.00    -1.260 NA
ATOM     29  H   LIG    1        0.872   2.182   0.779  0.00  0.00    +0.410 HD
ATOM     30  H   LIG    1        0.088   0.718   1.031  0.00  0.00    +0.420 HD
ENDBRANCH  25  28
ENDBRANCH  19  25
ENDBRANCH   1  23
TORSDOF 4
