REMARK  Name = ZINCqH0000051sXS.0
REMARK                            x       y       z     vdW  Elec       q    Type
REMARK                         _______ _______ _______ _____ _____    ______ ____
ROOT
ATOM      1  C   LIG    1       -1.564   3.272   7.008  0.00  0.00    -0.120 A 
ATOM      2  C   LIG    1       -0.320   2.841   7.472  0.00  0.00    +0.030 A 
ATOM      3  C   LIG    1        0.031   3.042   8.792  0.00  0.00    +0.040 A 
ATOM      4  C   LIG    1       -0.848   3.661   9.659  0.00  0.00    +0.020 A 
ATOM      5  C   LIG    1       -2.091   4.089   9.208  0.00  0.00    +0.140 A 
ATOM      6  C   LIG    1       -2.452   3.896   7.884  0.00  0.00    +0.090 A 
ENDROOT
BRANCH   1   8
ATOM      7  O   LIG    1       -3.027   3.433   5.193  0.00  0.00    -0.510 OA
ATOM      8  C   LIG    1       -1.941   3.062   5.594  0.00  0.00    +0.560 C 
ATOM      9  N   LIG    1       -1.082   2.458   4.750  0.00  0.00    -0.670 N 
ATOM     10  H   LIG    1       -0.247   2.095   5.085  0.00  0.00    +0.410 HD
BRANCH   9  11
ATOM     11  C   LIG    1       -1.394   2.354   3.389  0.00  0.00    +0.120 A 
ATOM     12  C   LIG    1       -0.978   1.248   2.659  0.00  0.00    +0.030 A 
ATOM     13  C   LIG    1       -1.281   1.146   1.318  0.00  0.00    +0.010 A 
ATOM     14  C   LIG    1       -2.006   2.151   0.682  0.00  0.00    +0.090 A 
ATOM     15  O   LIG    1       -2.402   2.251  -0.618  0.00  0.00    -0.300 OA
ATOM     16  C   LIG    1       -3.469   3.210  -0.717  0.00  0.00    +0.240 C 
ATOM     17  C   LIG    1       -3.192   4.155   0.477  0.00  0.00    +0.070 C 
ATOM     18  C   LIG    1       -2.425   3.251   1.422  0.00  0.00    -0.150 A 
ATOM     19  C   LIG    1       -2.121   3.358   2.760  0.00  0.00    +0.070 A 
ENDBRANCH   9  11
ENDBRANCH   1   8
BRANCH   5  20
ATOM     20  N   LIG    1       -2.978   4.715  10.091  0.00  0.00    -0.670 N 
ATOM     21  H   LIG    1       -2.639   5.300  10.786  0.00  0.00    +0.420 HD
ATOM     22  C   LIG    1       -4.305   4.504   9.975  0.00  0.00    +0.610 C 
ATOM     23  O   LIG    1       -4.737   3.837   9.053  0.00  0.00    -0.490 OA
BRANCH  22  24
ATOM     24  C   LIG    1       -5.227   5.077  10.960  0.00  0.00    -0.090 A 
ATOM     25  C   LIG    1       -6.586   4.947  10.959  0.00  0.00    +0.050 A 
ATOM     26  C   LIG    1       -7.060   5.649  12.077  0.00  0.00    -0.070 A 
ATOM     27  C   LIG    1       -5.984   6.179  12.700  0.00  0.00    +0.210 A 
ATOM     28  O   LIG    1       -4.881   5.832  12.024  0.00  0.00    -0.170 OA
ENDBRANCH  22  24
ENDBRANCH   5  20
TORSDOF 4
