REMARK  Name = ZINCqH0000000tXj.0
REMARK                            x       y       z     vdW  Elec       q    Type
REMARK                         _______ _______ _______ _____ _____    ______ ____
ROOT
ATOM      1  N   LIG    1        1.505  -0.368   0.024  0.00  0.00    -0.320 N 
ATOM      2  N   LIG    1        2.210   0.848   0.040  0.00  0.00    -0.070 NA
ATOM      3  N   LIG    1        1.331   1.790   0.074  0.00  0.00    -0.020 NA
ATOM      4  N   LIG    1        0.145   1.299   0.081  0.00  0.00    -0.320 NA
ATOM      5  C   LIG    1        0.189  -0.016   0.051  0.00  0.00    +0.220 A 
ENDROOT
BRANCH   1  10
ATOM      6  C   LIG    1        3.729  -3.198  -0.761  0.00  0.00    +0.160 A 
ATOM      7  C   LIG    1        3.090  -4.227  -0.082  0.00  0.00    +0.040 A 
ATOM      8  C   LIG    1        1.931  -3.974   0.627  0.00  0.00    +0.080 A 
ATOM      9  C   LIG    1        1.405  -2.697   0.663  0.00  0.00    +0.010 A 
ATOM     10  C   LIG    1        2.040  -1.664  -0.013  0.00  0.00    +0.140 A 
ATOM     11  C   LIG    1        3.200  -1.915  -0.730  0.00  0.00    +0.020 A 
BRANCH   6  14
ATOM     12  C   LIG    1        6.274  -4.869  -2.975  0.00  0.00    +0.110 C 
ATOM     13  C   LIG    1        5.058  -4.632  -2.117  0.00  0.00    +0.510 C 
ATOM     14  N   LIG    1        4.902  -3.455  -1.479  0.00  0.00    -0.680 N 
ATOM     15  H   LIG    1        5.603  -2.786  -1.518  0.00  0.00    +0.420 HD
ATOM     16  O   LIG    1        4.219  -5.500  -2.000  0.00  0.00    -0.520 OA
ENDBRANCH   6  14
ENDBRANCH   1  10
BRANCH   5  17
ATOM     17  S   LIG    1       -1.190  -1.112   0.047  0.00  0.00    +0.060 S 
BRANCH  17  18
ATOM     18  C   LIG    1       -2.539   0.079   0.246  0.00  0.00    +0.080 C 
ATOM     19  C   LIG    1       -2.678   0.902  -1.033  0.00  0.00    +0.050 C 
ATOM     20  C   LIG    1       -3.952   1.748  -0.927  0.00  0.00    +0.040 C 
ATOM     21  C   LIG    1       -5.158   0.815  -1.014  0.00  0.00    +0.070 C 
ATOM     22  C   LIG    1       -5.020  -0.321  -0.035  0.00  0.00    -0.050 A 
ATOM     23  C   LIG    1       -6.164  -1.042   0.284  0.00  0.00    +0.010 A 
ATOM     24  C   LIG    1       -6.103  -2.098   1.167  0.00  0.00    +0.020 A 
ATOM     25  C   LIG    1       -4.894  -2.443   1.742  0.00  0.00    +0.010 A 
ATOM     26  C   LIG    1       -3.757  -1.727   1.429  0.00  0.00    +0.020 A 
ATOM     27  C   LIG    1       -3.817  -0.662   0.539  0.00  0.00    -0.070 A 
ENDBRANCH  17  18
ENDBRANCH   5  17
TORSDOF 4
