REMARK  Name = ZINCvU0000000DkF.0
REMARK                            x       y       z     vdW  Elec       q    Type
REMARK                         _______ _______ _______ _____ _____    ______ ____
ROOT
ATOM      1  C   LIG    1        0.743   2.405  -6.306  0.00  0.00    +0.160 C 
ENDROOT
BRANCH   1   4
ATOM      2  C   LIG    1       -0.181   2.413  -2.784  0.00  0.00    +0.110 A 
ATOM      3  N   LIG    1        0.559   2.547  -3.848  0.00  0.00    -0.430 NA
ATOM      4  C   LIG    1       -0.008   2.291  -5.005  0.00  0.00    +0.080 A 
ATOM      5  C   LIG    1       -1.293   1.929  -4.957  0.00  0.00    -0.080 A 
ATOM      6  S   LIG    1       -1.800   1.914  -3.268  0.00  0.00    +0.150 S 
BRANCH   2  11
ATOM      7  C   LIG    1       -0.200   2.702   0.971  0.00  0.00    +0.110 A 
ATOM      8  C   LIG    1        1.108   3.088   1.213  0.00  0.00    -0.040 A 
ATOM      9  C   LIG    1        1.992   3.258   0.161  0.00  0.00    +0.060 A 
ATOM     10  C   LIG    1        1.579   3.041  -1.136  0.00  0.00    +0.050 A 
ATOM     11  C   LIG    1        0.265   2.647  -1.394  0.00  0.00    -0.010 A 
ATOM     12  C   LIG    1       -0.628   2.474  -0.332  0.00  0.00    +0.080 A 
BRANCH   7  14
ATOM     13  C   LIG    1       -0.558   2.792   3.321  0.00  0.00    +0.240 C 
ATOM     14  O   LIG    1       -1.065   2.541   2.008  0.00  0.00    -0.300 OA
ENDBRANCH   7  14
BRANCH  12  15
ATOM     15  O   LIG    1       -1.910   2.091  -0.573  0.00  0.00    -0.320 OA
ATOM     16  C   LIG    1       -2.174   0.687  -0.594  0.00  0.00    +0.230 C 
ENDBRANCH  12  15
ENDBRANCH   2  11
ENDBRANCH   1   4
BRANCH   1  17
ATOM     17  C   LIG    1        1.346   3.781  -6.420  0.00  0.00    +0.520 C 
ATOM     18  N   LIG    1        2.106   4.098  -7.487  0.00  0.00    -0.480 N 
ATOM     19  O   LIG    1        1.148   4.604  -5.551  0.00  0.00    -0.440 OA
BRANCH  18  20
ATOM     20  C   LIG    1        2.749   5.331  -7.541  0.00  0.00    +0.270 A 
ATOM     21  N   LIG    1        2.607   6.281  -6.672  0.00  0.00    -0.470 NA
ATOM     22  C   LIG    1        3.299   7.387  -6.876  0.00  0.00    +0.100 A 
ATOM     23  C   LIG    1        4.053   7.373  -7.977  0.00  0.00    -0.100 A 
ATOM     24  C   LIG    1        3.236   8.571  -5.946  0.00  0.00    +0.160 C 
ATOM     25  S   LIG    1        3.836   5.815  -8.769  0.00  0.00    +0.130 S 
ENDBRANCH  18  20
BRANCH  18  26
ATOM     26  C   LIG    1        2.248   3.187  -8.541  0.00  0.00    +0.100 A 
ATOM     27  C   LIG    1        2.980   2.022  -8.360  0.00  0.00    +0.020 A 
ATOM     28  C   LIG    1        3.115   1.123  -9.400  0.00  0.00    +0.030 A 
ATOM     29  C   LIG    1        2.529   1.388 -10.624  0.00  0.00    +0.030 A 
ATOM     30  C   LIG    1        1.802   2.550 -10.810  0.00  0.00    +0.030 A 
ATOM     31  C   LIG    1        1.661   3.450  -9.772  0.00  0.00    +0.020 A 
ENDBRANCH  18  26
ENDBRANCH   1  17
TORSDOF 7
