REMARK  Name = ZINCrD0000073wAI.0
REMARK                            x       y       z     vdW  Elec       q    Type
REMARK                         _______ _______ _______ _____ _____    ______ ____
ROOT
ATOM      1  N   LIG    1        1.278   1.386   2.700  0.00  0.00    -0.730 N 
ATOM      2  H   LIG    1        1.747   1.952   2.067  0.00  0.00    +0.400 HD
ATOM      3  C   LIG    1       -0.013   1.062   2.488  0.00  0.00    +0.530 C 
ATOM      4  O   LIG    1       -0.598   0.354   3.280  0.00  0.00    -0.530 OA
ENDROOT
BRANCH   3   5
ATOM      5  C   LIG    1       -0.729   1.579   1.267  0.00  0.00    +0.000 C 
ATOM      6  C   LIG    1       -2.170   1.064   1.264  0.00  0.00    +0.050 C 
ATOM      7  C   LIG    1       -2.873   1.544  -0.009  0.00  0.00    +0.040 C 
ATOM      8  C   LIG    1       -2.095   1.052  -1.231  0.00  0.00    +0.190 C 
ATOM      9  N   LIG    1       -0.723   1.572  -1.182  0.00  0.00    -0.460 N 
ATOM     10  C   LIG    1       -0.013   1.086   0.008  0.00  0.00    +0.220 C 
BRANCH   9  11
ATOM     11  C   LIG    1       -0.026   1.252  -2.343  0.00  0.00    +0.260 A 
ATOM     12  C   LIG    1       -0.535   1.621  -3.588  0.00  0.00    +0.040 A 
ATOM     13  C   LIG    1        0.200   1.284  -4.714  0.00  0.00    +0.080 A 
ATOM     14  C   LIG    1        1.390   0.591  -4.534  0.00  0.00    +0.090 A 
ATOM     15  N   LIG    1        1.793   0.278  -3.318  0.00  0.00    -0.200 NA
ATOM     16 CL   LIG    1        2.347   0.138  -5.910  0.00  0.00    -0.000 Cl
ATOM     17  N   LIG    1        1.120   0.592  -2.271  0.00  0.00    -0.260 NA
ENDBRANCH   9  11
ENDBRANCH   3   5
BRANCH   1  18
ATOM     18  C   LIG    1        1.975   0.883   3.887  0.00  0.00    +0.290 C 
ATOM     19  C   LIG    1        1.700   1.812   5.071  0.00  0.00    +0.040 C 
BRANCH  18  23
ATOM     20  C   LIG    1        6.179   0.750   3.125  0.00  0.00    +0.100 A 
ATOM     21  C   LIG    1        5.568  -0.274   3.833  0.00  0.00    -0.040 A 
ATOM     22  C   LIG    1        4.208  -0.228   4.078  0.00  0.00    +0.070 A 
ATOM     23  C   LIG    1        3.457   0.837   3.618  0.00  0.00    -0.100 A 
ATOM     24  C   LIG    1        4.061   1.858   2.907  0.00  0.00    +0.030 A 
ATOM     25  C   LIG    1        5.422   1.820   2.664  0.00  0.00    +0.080 A 
ATOM     26  F   LIG    1        6.014   2.819   1.974  0.00  0.00    -0.130 F 
BRANCH  20  28
ATOM     27  C   LIG    1        8.230  -0.424   3.387  0.00  0.00    +0.250 C 
ATOM     28  O   LIG    1        7.516   0.706   2.883  0.00  0.00    -0.310 OA
ENDBRANCH  20  28
ENDBRANCH  18  23
ENDBRANCH   1  18
TORSDOF 5
