REMARK  Name = ZINCqH00000392pF.0
REMARK                            x       y       z     vdW  Elec       q    Type
REMARK                         _______ _______ _______ _____ _____    ______ ____
ROOT
ATOM      1  C   LIG    1       -0.718   1.572   1.248  0.00  0.00    +0.520 C 
ATOM      2  N   LIG    1       -0.242   1.246   2.466  0.00  0.00    -0.730 N 
ATOM      3  H   LIG    1        0.555   0.699   2.544  0.00  0.00    +0.400 HD
ATOM      4  O   LIG    1       -1.714   2.256   1.150  0.00  0.00    -0.520 OA
ENDROOT
BRANCH   1   5
ATOM      5  C   LIG    1       -0.013   1.086   0.008  0.00  0.00    +0.110 C 
BRANCH   5   9
ATOM      6  C   LIG    1       -2.079   2.501  -3.454  0.00  0.00    +0.130 A 
ATOM      7  C   LIG    1       -1.063   3.261  -2.893  0.00  0.00    -0.010 A 
ATOM      8  C   LIG    1       -0.397   2.801  -1.773  0.00  0.00    +0.070 A 
ATOM      9  C   LIG    1       -0.742   1.585  -1.213  0.00  0.00    -0.100 A 
ATOM     10  C   LIG    1       -1.750   0.824  -1.774  0.00  0.00    +0.070 A 
ATOM     11  C   LIG    1       -2.423   1.282  -2.890  0.00  0.00    -0.070 A 
BRANCH   6  12
ATOM     12  O   LIG    1       -2.736   2.951  -4.556  0.00  0.00    -0.310 OA
BRANCH  12  13
ATOM     13  C   LIG    1       -3.771   2.116  -5.080  0.00  0.00    +0.380 C 
BRANCH  13  15
ATOM     14  N   LIG    1       -4.827   3.254  -7.176  0.00  0.00    -0.390 NA
ATOM     15  C   LIG    1       -4.367   2.758  -6.263  0.00  0.00    +0.210 C 
ENDBRANCH  13  15
ENDBRANCH  12  13
ENDBRANCH   6  12
ENDBRANCH   5   9
ENDBRANCH   1   5
BRANCH   2  16
ATOM     16  C   LIG    1       -0.927   1.718   3.671  0.00  0.00    +0.390 C 
BRANCH  16  17
ATOM     17  C   LIG    1       -0.198   1.219   4.892  0.00  0.00    -0.040 A 
ATOM     18  C   LIG    1        0.801   1.861   5.527  0.00  0.00    -0.020 A 
ATOM     19  C   LIG    1        1.192   1.048   6.610  0.00  0.00    -0.040 A 
ATOM     20  C   LIG    1        0.401  -0.057   6.575  0.00  0.00    +0.040 A 
ATOM     21  O   LIG    1       -0.441   0.063   5.531  0.00  0.00    -0.160 OA
BRANCH  20  22
ATOM     22  C   LIG    1        0.453  -1.191   7.521  0.00  0.00    -0.020 A 
ATOM     23  C   LIG    1        1.379  -1.191   8.566  0.00  0.00    +0.030 A 
ATOM     24  C   LIG    1        1.418  -2.250   9.449  0.00  0.00    +0.010 A 
ATOM     25  C   LIG    1        0.549  -3.316   9.295  0.00  0.00    +0.020 A 
ATOM     26  C   LIG    1       -0.367  -3.325   8.259  0.00  0.00    +0.010 A 
ATOM     27  C   LIG    1       -0.421  -2.270   7.372  0.00  0.00    +0.030 A 
ENDBRANCH  20  22
ENDBRANCH  16  17
ENDBRANCH   2  16
TORSDOF 8
