REMARK  Name = ZINCqH0000003PkH.0
REMARK                            x       y       z     vdW  Elec       q    Type
REMARK                         _______ _______ _______ _____ _____    ______ ____
ROOT
ATOM      1  N   LIG    1        4.812  -1.322  -4.266  0.00  0.00    -0.720 N 
ATOM      2  H   LIG    1        4.440  -0.640  -4.848  0.00  0.00    +0.400 HD
ATOM      3  C   LIG    1        5.022  -1.054  -2.962  0.00  0.00    +0.520 C 
ATOM      4  O   LIG    1        5.486  -1.906  -2.235  0.00  0.00    -0.520 OA
ENDROOT
BRANCH   1   5
ATOM      5  C   LIG    1        5.146  -2.643  -4.805  0.00  0.00    +0.290 C 
ATOM      6  C   LIG    1        6.627  -2.679  -5.187  0.00  0.00    +0.040 C 
BRANCH   5  11
ATOM      7  C   LIG    1        3.006  -4.422  -7.362  0.00  0.00    +0.140 A 
ATOM      8  C   LIG    1        2.762  -3.404  -8.272  0.00  0.00    -0.080 A 
ATOM      9  C   LIG    1        3.289  -2.146  -8.056  0.00  0.00    +0.060 A 
ATOM     10  C   LIG    1        4.056  -1.899  -6.933  0.00  0.00    -0.030 A 
ATOM     11  C   LIG    1        4.305  -2.914  -6.027  0.00  0.00    -0.050 A 
ATOM     12  C   LIG    1        3.780  -4.174  -6.238  0.00  0.00    -0.010 A 
BRANCH   7  13
ATOM     13  O   LIG    1        2.489  -5.661  -7.572  0.00  0.00    -0.310 OA
BRANCH  13  15
ATOM     14  C   LIG    1        1.210  -7.292  -8.815  0.00  0.00    +0.070 C 
ATOM     15  C   LIG    1        1.702  -5.845  -8.751  0.00  0.00    +0.170 C 
ENDBRANCH  13  15
ENDBRANCH   7  13
ENDBRANCH   5  11
ENDBRANCH   1   5
BRANCH   3  16
ATOM     16  C   LIG    1        4.679   0.305  -2.408  0.00  0.00    +0.080 C 
BRANCH  16  17
ATOM     17  C   LIG    1        5.011   0.345  -0.915  0.00  0.00    +0.080 C 
ATOM     18  S   LIG    1        3.942  -0.821  -0.020  0.00  0.00    -0.040 S 
ATOM     19  C   LIG    1        2.398   0.036  -0.016  0.00  0.00    -0.140 A 
ATOM     20  C   LIG    1        1.210  -0.677  -0.009  0.00  0.00    +0.080 A 
ATOM     21  C   LIG    1        0.002  -0.004   0.002  0.00  0.00    +0.000 A 
ATOM     22  C   LIG    1       -0.017   1.378   0.010  0.00  0.00    +0.050 A 
ATOM     23  C   LIG    1        1.165   2.094   0.002  0.00  0.00    -0.010 A 
ATOM     24  C   LIG    1        2.387   1.430  -0.015  0.00  0.00    +0.160 A 
ATOM     25  N   LIG    1        3.562   2.176  -0.038  0.00  0.00    -0.650 N 
ATOM     26  H   LIG    1        3.495   3.109   0.219  0.00  0.00    +0.410 HD
ATOM     27  C   LIG    1        4.769   1.731  -0.377  0.00  0.00    +0.530 C 
ATOM     28  O   LIG    1        5.717   2.476  -0.248  0.00  0.00    -0.510 OA
ENDBRANCH  16  17
ENDBRANCH   3  16
TORSDOF 6
