REMARK  Name = ZINCpe000000YuPy.0
REMARK                            x       y       z     vdW  Elec       q    Type
REMARK                         _______ _______ _______ _____ _____    ______ ____
ROOT
ATOM      1  C   LIG    1        0.714  -4.560  -3.682  0.00  0.00    +0.260 C 
ATOM      2  C   LIG    1        1.321  -4.128  -2.337  0.00  0.00    +0.330 C 
ATOM      3  N   LIG    1        1.331  -2.658  -2.288  0.00  0.00    -0.620 N 
ATOM      4  C   LIG    1        1.926  -1.927  -3.417  0.00  0.00    +0.300 C 
ATOM      5  C   LIG    1        1.301  -2.447  -4.716  0.00  0.00    +0.190 C 
ATOM      6  C   LIG    1        0.814  -1.998  -1.233  0.00  0.00    +0.530 C 
ATOM      7  O   LIG    1        0.406  -2.615  -0.272  0.00  0.00    -0.530 OA
ATOM      8  N   LIG    1        1.446  -3.908  -4.776  0.00  0.00    -0.500 NA
ENDROOT
BRANCH   6   9
ATOM      9  C   LIG    1        0.742  -0.493  -1.247  0.00  0.00    -0.010 C 
ATOM     10  C   LIG    1       -0.534  -0.048  -1.968  0.00  0.00    +0.050 C 
ATOM     11  C   LIG    1       -0.632   1.479  -1.926  0.00  0.00    +0.210 C 
ATOM     12  N   LIG    1       -0.655   1.931  -0.529  0.00  0.00    -0.470 N 
ATOM     13  C   LIG    1        0.580   1.556   0.171  0.00  0.00    +0.200 C 
ATOM     14  C   LIG    1        0.715   0.032   0.191  0.00  0.00    +0.070 C 
BRANCH  12  15
ATOM     15  C   LIG    1       -0.875   3.301  -0.453  0.00  0.00    +0.260 A 
ATOM     16  C   LIG    1       -0.939   3.930   0.788  0.00  0.00    +0.210 A 
ATOM     17  N   LIG    1       -1.143   5.232   0.856  0.00  0.00    -0.420 NA
ATOM     18  C   LIG    1       -1.298   5.937  -0.252  0.00  0.00    +0.180 A 
ATOM     19  C   LIG    1       -1.241   5.316  -1.485  0.00  0.00    +0.250 A 
ATOM     20  N   LIG    1       -1.031   4.013  -1.562  0.00  0.00    -0.480 NA
ENDBRANCH  12  15
ENDBRANCH   6   9
BRANCH   8  21
ATOM     21  C   LIG    1        1.014  -4.427  -6.081  0.00  0.00    +0.140 C 
ATOM     22  C   LIG    1        0.683  -3.407  -7.172  0.00  0.00    +0.040 C 
ATOM     23  C   LIG    1       -0.441  -4.190  -6.489  0.00  0.00    -0.010 C 
ENDBRANCH   8  21
BRANCH   1  25
ATOM     24  N   LIG    1        0.909  -7.149  -3.928  0.00  0.00    -0.400 NA
ATOM     25  C   LIG    1        0.824  -6.022  -3.821  0.00  0.00    +0.210 C 
ENDBRANCH   1  25
TORSDOF 4
