REMARK  Name = ZINCrD000000Ca3L.0
REMARK                            x       y       z     vdW  Elec       q    Type
REMARK                         _______ _______ _______ _____ _____    ______ ____
ROOT
ATOM      1  C   LIG    1       -2.366   1.109  -0.074  0.00  0.00    +0.150 A 
ATOM      2  C   LIG    1       -2.301  -0.276  -0.080  0.00  0.00    +0.020 A 
ATOM      3  C   LIG    1       -3.462  -1.022  -0.164  0.00  0.00    +0.040 A 
ATOM      4  C   LIG    1       -4.689  -0.391  -0.255  0.00  0.00    +0.000 A 
ATOM      5  C   LIG    1       -4.763   0.990  -0.255  0.00  0.00    +0.040 A 
ATOM      6  C   LIG    1       -3.604   1.746  -0.165  0.00  0.00    +0.120 A 
ENDROOT
BRANCH   6   7
ATOM      7  N   LIG    1       -3.676   3.143  -0.165  0.00  0.00    -0.590 N 
ATOM      8  C   LIG    1       -3.622   3.986  -1.361  0.00  0.00    +0.260 C 
ATOM      9  C   LIG    1       -3.742   5.429  -0.844  0.00  0.00    +0.100 C 
ATOM     10  C   LIG    1       -3.848   5.286   0.658  0.00  0.00    -0.170 A 
ATOM     11  C   LIG    1       -3.972   6.236   1.652  0.00  0.00    +0.060 A 
ATOM     12  C   LIG    1       -4.053   5.849   2.978  0.00  0.00    -0.050 A 
ATOM     13  C   LIG    1       -4.008   4.507   3.306  0.00  0.00    +0.040 A 
ATOM     14  C   LIG    1       -3.884   3.554   2.317  0.00  0.00    -0.060 A 
ATOM     15  C   LIG    1       -3.803   3.937   0.976  0.00  0.00    +0.190 A 
ENDBRANCH   6   7
BRANCH   1  18
ATOM     16  O   LIG    1       -0.142   0.242   1.106  0.00  0.00    -0.510 OA
ATOM     17  C   LIG    1       -0.089   1.336   0.585  0.00  0.00    +0.530 C 
ATOM     18  N   LIG    1       -1.191   1.867   0.018  0.00  0.00    -0.660 N 
ATOM     19  H   LIG    1       -1.170   2.773  -0.327  0.00  0.00    +0.410 HD
BRANCH  17  20
ATOM     20  C   LIG    1        1.210   2.100   0.567  0.00  0.00    +0.000 C 
ATOM     21  C   LIG    1        1.760   2.222  -0.873  0.00  0.00    +0.080 C 
ATOM     22  C   LIG    1        3.258   2.095  -0.710  0.00  0.00    +0.520 C 
ATOM     23  N   LIG    1        3.550   1.581   0.497  0.00  0.00    -0.590 N 
ATOM     24  O   LIG    1        4.077   2.411  -1.547  0.00  0.00    -0.520 OA
ATOM     25  C   LIG    1        2.332   1.299   1.265  0.00  0.00    +0.310 C 
BRANCH  23  26
ATOM     26  C   LIG    1        4.910   1.333   0.984  0.00  0.00    +0.210 C 
ATOM     27  C   LIG    1        6.070   1.868   0.141  0.00  0.00    +0.040 C 
ATOM     28  C   LIG    1        5.782   0.366   0.181  0.00  0.00    +0.000 C 
ENDBRANCH  23  26
ENDBRANCH  17  20
ENDBRANCH   1  18
TORSDOF 4
