REMARK  Name = ZINCvU00000006NB.0
REMARK                            x       y       z     vdW  Elec       q    Type
REMARK                         _______ _______ _______ _____ _____    ______ ____
ROOT
ATOM      1  O   LIG    1        0.194   5.573  -4.075  0.00  0.00    -0.530 OA
ATOM      2  C   LIG    1        1.196   5.377  -3.421  0.00  0.00    +0.520 C 
ATOM      3  N   LIG    1        1.159   5.497  -2.079  0.00  0.00    -0.720 N 
ATOM      4  H   LIG    1        1.961   5.339  -1.556  0.00  0.00    +0.400 HD
ENDROOT
BRANCH   3   5
ATOM      5  C   LIG    1       -0.091   5.864  -1.410  0.00  0.00    +0.310 C 
BRANCH   5   6
ATOM      6  C   LIG    1       -0.235   7.364  -1.404  0.00  0.00    -0.070 A 
ATOM      7  C   LIG    1        0.867   8.163  -1.163  0.00  0.00    +0.050 A 
ATOM      8  C   LIG    1        0.736   9.540  -1.163  0.00  0.00    -0.020 A 
ATOM      9  C   LIG    1       -0.500  10.117  -1.391  0.00  0.00    +0.050 A 
ATOM     10  C   LIG    1       -1.604   9.317  -1.625  0.00  0.00    -0.020 A 
ATOM     11 CL   LIG    1       -3.156  10.041  -1.912  0.00  0.00    -0.050 Cl
ATOM     12 CL   LIG    1        2.122  10.544  -0.868  0.00  0.00    -0.050 Cl
ATOM     13  C   LIG    1       -1.471   7.940  -1.632  0.00  0.00    +0.050 A 
ENDBRANCH   5   6
BRANCH   5  14
ATOM     14  C   LIG    1       -0.070   5.347   0.030  0.00  0.00    +0.080 C 
BRANCH  14  15
ATOM     15  C   LIG    1       -0.050   3.840   0.022  0.00  0.00    -0.080 A 
ATOM     16  C   LIG    1        1.156   3.165   0.008  0.00  0.00    +0.010 A 
ATOM     17  C   LIG    1        1.175   1.783   0.000  0.00  0.00    +0.000 A 
ATOM     18  C   LIG    1       -0.013   1.076   0.008  0.00  0.00    +0.000 A 
ATOM     19  C   LIG    1       -1.219   1.751   0.017  0.00  0.00    +0.000 A 
ATOM     20  C   LIG    1       -1.238   3.133   0.030  0.00  0.00    +0.010 A 
ENDBRANCH  14  15
ENDBRANCH   5  14
ENDBRANCH   3   5
BRANCH   2  21
ATOM     21  C   LIG    1        2.483   4.999  -4.109  0.00  0.00    +0.060 C 
BRANCH  21  22
ATOM     22  C   LIG    1        2.252   4.932  -5.620  0.00  0.00    +0.040 C 
BRANCH  22  23
ATOM     23  C   LIG    1        3.558   4.548  -6.318  0.00  0.00    +0.260 C 
BRANCH  23  24
ATOM     24  N   LIG    1        3.338   4.484  -7.765  0.00  0.00    -0.730 N 
ATOM     25  H   LIG    1        2.460   4.673  -8.131  0.00  0.00    +0.400 HD
ATOM     26  C   LIG    1        4.356   4.162  -8.588  0.00  0.00    +0.520 C 
ATOM     27  O   LIG    1        5.454   3.925  -8.131  0.00  0.00    -0.540 OA
BRANCH  26  28
ATOM     28  C   LIG    1        4.129   4.096 -10.077  0.00  0.00    -0.010 C 
ATOM     29  C   LIG    1        3.687   5.468 -10.591  0.00  0.00    +0.080 C 
ATOM     30  C   LIG    1        3.713   5.490 -12.091  0.00  0.00    -0.050 C 
ATOM     31  C   LIG    1        4.348   4.627 -12.819  0.00  0.00    -0.040 C 
ATOM     32  C   LIG    1        5.137   3.478 -12.263  0.00  0.00    +0.070 C 
ATOM     33  C   LIG    1        5.436   3.711 -10.781  0.00  0.00    +0.050 C 
ENDBRANCH  26  28
ENDBRANCH  23  24
ENDBRANCH  22  23
ENDBRANCH  21  22
ENDBRANCH   2  21
TORSDOF 9
