REMARK  Name = ZINCrD000000BEqn.0
REMARK                            x       y       z     vdW  Elec       q    Type
REMARK                         _______ _______ _______ _____ _____    ______ ____
ROOT
ATOM      1  O   LIG    1       -2.430   3.270   0.035  0.00  0.00    -0.490 OA
ATOM      2  C   LIG    1       -1.547   3.799   0.682  0.00  0.00    +0.550 C 
ATOM      3  N   LIG    1       -0.645   3.040   1.336  0.00  0.00    -0.730 N 
ATOM      4  H   LIG    1        0.060   3.462   1.852  0.00  0.00    +0.400 HD
ENDROOT
BRANCH   2   5
ATOM      5  C   LIG    1       -1.462   5.271   0.751  0.00  0.00    -0.140 A 
ATOM      6  C   LIG    1       -0.451   5.880   1.498  0.00  0.00    +0.070 A 
ATOM      7  C   LIG    1       -0.371   7.254   1.557  0.00  0.00    -0.010 A 
ATOM      8  C   LIG    1       -1.303   8.035   0.881  0.00  0.00    +0.190 A 
ATOM      9  C   LIG    1       -2.314   7.432   0.140  0.00  0.00    +0.010 A 
ATOM     10  C   LIG    1       -2.396   6.059   0.074  0.00  0.00    +0.120 A 
BRANCH   8  11
ATOM     11  N   LIG    1       -1.222   9.429   0.946  0.00  0.00    -0.330 N 
ATOM     12  C   LIG    1       -0.295  10.146   1.633  0.00  0.00    +0.230 A 
ATOM     13  C   LIG    1       -0.564  11.457   1.437  0.00  0.00    -0.090 A 
ATOM     14  C   LIG    1       -1.692  11.548   0.615  0.00  0.00    +0.250 A 
ATOM     15  N   LIG    1       -2.087  10.336   0.321  0.00  0.00    -0.290 NA
ENDBRANCH   8  11
ENDBRANCH   2   5
BRANCH   3  16
ATOM     16  C   LIG    1       -0.729   1.579   1.267  0.00  0.00    +0.310 C 
BRANCH  16  17
ATOM     17  C   LIG    1       -0.074   0.981   2.485  0.00  0.00    -0.100 A 
ATOM     18  C   LIG    1        1.100   1.522   2.975  0.00  0.00    +0.000 A 
ATOM     19  C   LIG    1        1.698   0.976   4.095  0.00  0.00    +0.000 A 
ATOM     20  C   LIG    1        1.128  -0.118   4.719  0.00  0.00    +0.000 A 
ATOM     21  C   LIG    1       -0.042  -0.663   4.225  0.00  0.00    +0.020 A 
ATOM     22  C   LIG    1       -0.643  -0.114   3.108  0.00  0.00    +0.030 A 
ENDBRANCH  16  17
BRANCH  16  23
ATOM     23  C   LIG    1       -0.013   1.086   0.008  0.00  0.00    +0.140 C 
BRANCH  23  24
ATOM     24  C   LIG    1       -0.742   1.585  -1.213  0.00  0.00    +0.200 A 
ATOM     25  N   LIG    1       -2.006   1.395  -1.474  0.00  0.00    -0.450 NA
ATOM     26  C   LIG    1       -2.309   1.981  -2.642  0.00  0.00    +0.150 A 
ATOM     27  C   LIG    1       -1.188   2.549  -3.127  0.00  0.00    +0.110 A 
ATOM     28  N   LIG    1       -0.193   2.298  -2.220  0.00  0.00    -0.570 N 
ATOM     29  H   LIG    1        0.733   2.579  -2.289  0.00  0.00    +0.410 HD
ENDBRANCH  23  24
ENDBRANCH  16  23
ENDBRANCH   3  16
TORSDOF 6
