REMARK  Name = ZINCkj000005eSov.0
REMARK                            x       y       z     vdW  Elec       q    Type
REMARK                         _______ _______ _______ _____ _____    ______ ____
ROOT
ATOM      1  N   LIG    1       -0.012   1.005   0.008  0.00  0.00    -0.390 N 
ATOM      2  C   LIG    1       -0.701   1.478   1.215  0.00  0.00    +0.270 C 
ATOM      3  C   LIG    1        0.028   0.957   2.456  0.00  0.00    +0.210 C 
ATOM      4  N   LIG    1        1.417   1.437   2.443  0.00  0.00    -0.540 NA
ATOM      5  C   LIG    1        2.112   0.992   1.228  0.00  0.00    +0.210 C 
ATOM      6  C   LIG    1        1.367   1.513  -0.003  0.00  0.00    +0.270 C 
ATOM      7  H   LIG    1        0.002  -0.004   0.002  0.00  0.00    +0.420 HD
ENDROOT
BRANCH   1   8
ATOM      8  C   LIG    1       -0.722   1.491  -1.183  0.00  0.00    +0.240 C 
BRANCH   8   9
ATOM      9  C   LIG    1       -0.080   0.896  -2.438  0.00  0.00    +0.040 C 
BRANCH   9  11
ATOM     10  C   LIG    1       -0.732   2.929  -3.735  0.00  0.00    +0.030 C 
ATOM     11  C   LIG    1       -0.819   1.403  -3.678  0.00  0.00    -0.060 C 
ATOM     12  C   LIG    1       -2.287   0.978  -3.606  0.00  0.00    +0.030 C 
ATOM     13  C   LIG    1       -0.177   0.808  -4.933  0.00  0.00    +0.040 C 
ENDBRANCH   9  11
ENDBRANCH   8   9
ENDBRANCH   1   8
BRANCH   4  14
ATOM     14  C   LIG    1        2.134   1.003   3.649  0.00  0.00    +0.210 C 
BRANCH  14  15
ATOM     15  C   LIG    1        1.265   1.262   4.881  0.00  0.00    +0.180 C 
BRANCH  15  16
ATOM     16  N   LIG    1        1.983   0.829   6.087  0.00  0.00    -0.540 NA
ATOM     17  C   LIG    1        2.165  -0.630   6.096  0.00  0.00    +0.130 C 
ATOM     18  C   LIG    1        2.967  -1.032   7.337  0.00  0.00    +0.220 C 
ATOM     19  O   LIG    1        2.292  -0.563   8.507  0.00  0.00    -0.380 OA
ATOM     20  C   LIG    1        2.098   0.854   8.532  0.00  0.00    +0.220 C 
ATOM     21  C   LIG    1        1.287   1.274   7.303  0.00  0.00    +0.160 C 
ENDBRANCH  15  16
ENDBRANCH  14  15
ENDBRANCH   4  14
TORSDOF 6
