REMARK  Name = ZINCAx0000000fuv.0
REMARK                            x       y       z     vdW  Elec       q    Type
REMARK                         _______ _______ _______ _____ _____    ______ ____
ROOT
ATOM      1  C   LIG    1       -2.655   3.918  -3.162  0.00  0.00    +0.250 C 
ENDROOT
BRANCH   1   2
ATOM      2  C   LIG    1       -2.053   4.509  -4.439  0.00  0.00    +0.000 C 
ATOM      3  C   LIG    1       -0.586   4.874  -4.193  0.00  0.00    +0.000 C 
ATOM      4  C   LIG    1       -0.016   5.537  -5.449  0.00  0.00    +0.200 C 
ATOM      5  O   LIG    1       -0.798   6.688  -5.777  0.00  0.00    -0.380 OA
ATOM      6  C   LIG    1       -2.168   6.399  -6.065  0.00  0.00    +0.210 C 
ATOM      7  C   LIG    1       -2.825   5.772  -4.832  0.00  0.00    -0.020 C 
ENDBRANCH   1   2
BRANCH   1   8
ATOM      8  C   LIG    1       -1.818   2.751  -2.706  0.00  0.00    +0.000 A 
ATOM      9  C   LIG    1       -1.255   2.586  -1.486  0.00  0.00    +0.130 A 
ATOM     10  N   LIG    1       -0.599   1.403  -1.531  0.00  0.00    -0.290 N 
ATOM     11  N   LIG    1       -0.768   0.892  -2.701  0.00  0.00    -0.080 NA
ATOM     12  N   LIG    1       -1.490   1.672  -3.425  0.00  0.00    -0.230 NA
BRANCH  10  13
ATOM     13  C   LIG    1        0.166   0.804  -0.435  0.00  0.00    +0.270 C 
BRANCH  13  14
ATOM     14  C   LIG    1       -0.495   1.133   0.878  0.00  0.00    +0.520 C 
ATOM     15  O   LIG    1        0.113   1.754   1.725  0.00  0.00    -0.500 OA
ATOM     16  N   LIG    1       -1.763   0.739   1.112  0.00  0.00    -0.840 N 
ATOM     17  H   LIG    1       -2.188   0.951   1.958  0.00  0.00    +0.410 HD
ATOM     18  H   LIG    1       -2.249   0.243   0.435  0.00  0.00    +0.400 HD
ENDBRANCH  13  14
BRANCH  13  19
ATOM     19  C   LIG    1        1.591   1.362  -0.443  0.00  0.00    +0.110 C 
BRANCH  19  20
ATOM     20  C   LIG    1        2.412   0.657   0.606  0.00  0.00    -0.100 A 
ATOM     21  C   LIG    1        2.474   1.162   1.891  0.00  0.00    +0.070 A 
ATOM     22  C   LIG    1        3.224   0.513   2.853  0.00  0.00    -0.010 A 
ATOM     23  C   LIG    1        3.920  -0.636   2.528  0.00  0.00    +0.010 A 
ATOM     24  C   LIG    1        3.862  -1.139   1.242  0.00  0.00    -0.010 A 
ATOM     25  C   LIG    1        3.108  -0.492   0.281  0.00  0.00    +0.010 A 
ENDBRANCH  19  20
ENDBRANCH  13  19
ENDBRANCH  10  13
ENDBRANCH   1   8
BRANCH   1  26
ATOM     26  N   LIG    1       -4.025   3.463  -3.432  0.00  0.00    -0.670 NA
ATOM     27  H   LIG    1       -4.452   4.012  -4.163  0.00  0.00    +0.350 HD
BRANCH  26  28
ATOM     28  C   LIG    1       -4.839   3.492  -2.209  0.00  0.00    +0.240 C 
BRANCH  28  31
ATOM     29  C   LIG    1       -7.656   1.002  -2.592  0.00  0.00    +0.140 A 
ATOM     30  C   LIG    1       -6.407   1.545  -2.328  0.00  0.00    +0.070 A 
ATOM     31  C   LIG    1       -6.196   2.900  -2.495  0.00  0.00    -0.040 A 
ATOM     32  C   LIG    1       -7.229   3.715  -2.919  0.00  0.00    +0.060 A 
ATOM     33  C   LIG    1       -8.473   3.175  -3.188  0.00  0.00    -0.000 A 
ATOM     34  C   LIG    1       -8.690   1.821  -3.022  0.00  0.00    +0.010 A 
BRANCH  33  35
ATOM     35  N   LIG    1       -9.575   4.049  -3.648  0.00  0.00    +0.030 N 
ATOM     36  O   LIG    1       -9.385   5.243  -3.794  0.00  0.00    -0.150 OA
ATOM     37  O   LIG    1      -10.673   3.575  -3.880  0.00  0.00    -0.160 OA
ENDBRANCH  33  35
BRANCH  29  39
ATOM     38  C   LIG    1       -9.177  -0.821  -2.717  0.00  0.00    +0.250 C 
ATOM     39  O   LIG    1       -7.867  -0.331  -2.428  0.00  0.00    -0.300 OA
ENDBRANCH  29  39
ENDBRANCH  28  31
ENDBRANCH  26  28
ENDBRANCH   1  26
TORSDOF 11
