REMARK  Name = ZINCrH000004mgPr.0
REMARK                            x       y       z     vdW  Elec       q    Type
REMARK                         _______ _______ _______ _____ _____    ______ ____
ROOT
ATOM      1  C   LIG    1       -3.049   1.656   0.247  0.00  0.00    +0.390 C 
ENDROOT
BRANCH   1   6
ATOM      2  C   LIG    1       -4.712   5.038  -0.046  0.00  0.00    +0.170 A 
ATOM      3  C   LIG    1       -4.163   5.516  -1.226  0.00  0.00    -0.150 A 
ATOM      4  C   LIG    1       -3.252   4.742  -1.927  0.00  0.00    +0.170 A 
ATOM      5  C   LIG    1       -2.892   3.490  -1.447  0.00  0.00    -0.040 A 
ATOM      6  C   LIG    1       -3.441   3.016  -0.271  0.00  0.00    -0.020 A 
ATOM      7  C   LIG    1       -4.353   3.784   0.427  0.00  0.00    -0.020 A 
BRANCH   2   9
ATOM      8  C   LIG    1       -5.934   7.072   0.095  0.00  0.00    +0.250 C 
ATOM      9  O   LIG    1       -5.606   5.794   0.644  0.00  0.00    -0.310 OA
ENDBRANCH   2   9
BRANCH   4  10
ATOM     10  O   LIG    1       -2.712   5.207  -3.084  0.00  0.00    -0.310 OA
ATOM     11  C   LIG    1       -3.129   6.503  -3.519  0.00  0.00    +0.250 C 
ENDBRANCH   4  10
ENDBRANCH   1   6
BRANCH   1  12
ATOM     12  C   LIG    1       -2.019   1.812   1.337  0.00  0.00    +0.190 A 
ATOM     13  N   LIG    1       -2.256   2.211   2.556  0.00  0.00    -0.470 NA
ATOM     14  C   LIG    1       -1.106   2.236   3.245  0.00  0.00    +0.140 A 
ATOM     15  C   LIG    1       -0.119   1.831   2.423  0.00  0.00    +0.130 A 
ATOM     16  N   LIG    1       -0.698   1.558   1.213  0.00  0.00    -0.450 N 
ATOM     17  C   LIG    1       -0.013   1.086   0.008  0.00  0.00    +0.330 C 
ENDBRANCH   1  12
BRANCH   1  18
ATOM     18  N   LIG    1       -4.231   0.979   0.786  0.00  0.00    -0.700 N 
ATOM     19  H   LIG    1       -4.985   1.500   1.105  0.00  0.00    +0.410 HD
ATOM     20  C   LIG    1       -4.271  -0.367   0.838  0.00  0.00    +0.570 C 
ATOM     21  O   LIG    1       -3.327  -1.019   0.439  0.00  0.00    -0.530 OA
BRANCH  20  22
ATOM     22  C   LIG    1       -5.465  -1.050   1.382  0.00  0.00    -0.130 A 
ATOM     23  C   LIG    1       -6.548  -0.303   1.847  0.00  0.00    +0.060 A 
ATOM     24  C   LIG    1       -7.661  -0.947   2.349  0.00  0.00    +0.020 A 
ATOM     25  C   LIG    1       -7.700  -2.329   2.401  0.00  0.00    +0.080 A 
ATOM     26  C   LIG    1       -6.627  -3.075   1.947  0.00  0.00    -0.100 A 
ATOM     27 BR   LIG    1       -6.691  -4.964   2.023  0.00  0.00    -0.040 Br
ATOM     28  C   LIG    1       -5.510  -2.444   1.438  0.00  0.00    +0.120 A 
ENDBRANCH  20  22
ENDBRANCH   1  18
TORSDOF 6
