REMARK  Name = ZINCkj00000xLYii.0
REMARK                            x       y       z     vdW  Elec       q    Type
REMARK                         _______ _______ _______ _____ _____    ______ ____
ROOT
ATOM      1  N   LIG    1       -1.156  -0.694   0.009  0.00  0.00    -0.660 N 
ATOM      2  H   LIG    1       -1.998  -0.214  -0.027  0.00  0.00    +0.410 HD
ATOM      3  C   LIG    1       -0.001  -0.018   0.169  0.00  0.00    +0.600 C 
ATOM      4  O   LIG    1        1.044  -0.624   0.311  0.00  0.00    -0.530 OA
ENDROOT
BRANCH   1  10
ATOM      5  C   LIG    1       -3.321  -5.028   0.843  0.00  0.00    +0.100 C 
ATOM      6  C   LIG    1       -2.178  -4.215   0.292  0.00  0.00    -0.040 A 
ATOM      7  C   LIG    1       -1.115  -4.849  -0.324  0.00  0.00    -0.030 A 
ATOM      8  C   LIG    1       -0.060  -4.104  -0.833  0.00  0.00    +0.130 A 
ATOM      9  C   LIG    1       -0.075  -2.722  -0.728  0.00  0.00    -0.010 A 
ATOM     10  C   LIG    1       -1.140  -2.088  -0.104  0.00  0.00    +0.160 A 
ATOM     11  C   LIG    1       -2.193  -2.838   0.403  0.00  0.00    -0.020 A 
BRANCH   8  12
ATOM     12  O   LIG    1        0.984  -4.729  -1.438  0.00  0.00    -0.500 OA
ATOM     13  H   LIG    1        0.870  -4.852  -2.391  0.00  0.00    +0.390 HD
ENDBRANCH   8  12
ENDBRANCH   1  10
BRANCH   3  14
ATOM     14  C   LIG    1       -0.004   1.456   0.172  0.00  0.00    -0.250 A 
ATOM     15  C   LIG    1        1.095   2.278   0.324  0.00  0.00    +0.130 A 
ATOM     16  N   LIG    1        0.659   3.547   0.266  0.00  0.00    -0.460 N 
ATOM     17  H   LIG    1        1.212   4.340   0.343  0.00  0.00    +0.440 HD
ATOM     18  N   LIG    1       -0.727   3.532   0.076  0.00  0.00    -0.250 NA
ATOM     19  C   LIG    1       -1.132   2.293   0.013  0.00  0.00    +0.290 A 
BRANCH  15  20
ATOM     20  C   LIG    1        2.521   1.833   0.520  0.00  0.00    +0.100 C 
ATOM     21  C   LIG    1        3.309   2.698   1.520  0.00  0.00    +0.320 C 
ATOM     22  N   LIG    1        4.433   2.607   0.558  0.00  0.00    -0.530 N 
ATOM     23  H   LIG    1        4.940   3.474   0.461  0.00  0.00    +0.430 HD
ATOM     24  H   LIG    1        5.040   1.823   0.739  0.00  0.00    +0.450 HD
ATOM     25  C   LIG    1        3.489   2.363  -0.554  0.00  0.00    +0.320 C 
ENDBRANCH  15  20
ENDBRANCH   3  14
TORSDOF 4
