REMARK  Name = ZINCkj00000xLYii.1
REMARK                            x       y       z     vdW  Elec       q    Type
REMARK                         _______ _______ _______ _____ _____    ______ ____
ROOT
ATOM      1  N   LIG    1        0.953  -2.815  -0.021  0.00  0.00    -0.660 N 
ATOM      2  H   LIG    1        0.001  -2.635  -0.058  0.00  0.00    +0.410 HD
ATOM      3  C   LIG    1        1.825  -1.801   0.143  0.00  0.00    +0.600 C 
ATOM      4  O   LIG    1        3.010  -2.034   0.285  0.00  0.00    -0.530 OA
ENDROOT
BRANCH   1  10
ATOM      5  C   LIG    1        0.316  -7.621   0.797  0.00  0.00    +0.100 C 
ATOM      6  C   LIG    1        1.133  -6.479   0.251  0.00  0.00    -0.040 A 
ATOM      7  C   LIG    1        2.345  -6.730  -0.364  0.00  0.00    -0.030 A 
ATOM      8  C   LIG    1        3.101  -5.681  -0.869  0.00  0.00    +0.130 A 
ATOM      9  C   LIG    1        2.637  -4.380  -0.761  0.00  0.00    -0.010 A 
ATOM     10  C   LIG    1        1.422  -4.128  -0.138  0.00  0.00    +0.160 A 
ATOM     11  C   LIG    1        0.670  -5.182   0.365  0.00  0.00    -0.020 A 
BRANCH   8  12
ATOM     12  O   LIG    1        4.292  -5.930  -1.473  0.00  0.00    -0.500 OA
ATOM     13  H   LIG    1        4.226  -6.080  -2.426  0.00  0.00    +0.390 HD
ENDBRANCH   8  12
ENDBRANCH   1  10
BRANCH   3  14
ATOM     14  C   LIG    1        1.342  -0.408   0.149  0.00  0.00    -0.280 A 
ATOM     15  C   LIG    1        0.034   0.006  -0.001  0.00  0.00    +0.330 A 
ATOM     16  N   LIG    1        0.027   1.347   0.066  0.00  0.00    -0.440 N 
ATOM     17  H   LIG    1       -0.756   1.915  -0.012  0.00  0.00    +0.460 HD
ATOM     18  N   LIG    1        1.341   1.789   0.258  0.00  0.00    -0.280 NA
ATOM     19  C   LIG    1        2.131   0.753   0.309  0.00  0.00    +0.120 A 
BRANCH  19  20
ATOM     20  C   LIG    1        3.625   0.788   0.506  0.00  0.00    +0.110 C 
ATOM     21  C   LIG    1        4.097   1.889   1.473  0.00  0.00    +0.330 C 
ATOM     22  N   LIG    1        5.193   2.128   0.508  0.00  0.00    -0.530 N 
ATOM     23  H   LIG    1        5.400   3.108   0.383  0.00  0.00    +0.430 HD
ATOM     24  H   LIG    1        6.018   1.582   0.705  0.00  0.00    +0.440 HD
ATOM     25  C   LIG    1        4.376   1.566  -0.590  0.00  0.00    +0.320 C 
ENDBRANCH  19  20
ENDBRANCH   3  14
TORSDOF 4
