REMARK  Name = ZINCpk00000eawlG.0
REMARK                            x       y       z     vdW  Elec       q    Type
REMARK                         _______ _______ _______ _____ _____    ______ ____
ROOT
ATOM      1  N   LIG    1        3.809  -0.752  -0.104  0.00  0.00    -0.310 N 
ATOM      2  N   LIG    1        5.123  -0.270  -0.158  0.00  0.00    -0.270 NA
ATOM      3  C   LIG    1        5.937  -1.284  -0.009  0.00  0.00    +0.240 A 
ATOM      4  C   LIG    1        5.170  -2.445   0.135  0.00  0.00    -0.090 A 
ATOM      5  C   LIG    1        3.865  -2.091   0.073  0.00  0.00    +0.090 A 
ENDROOT
BRANCH   1  11
ATOM      6  C   LIG    1        2.504   1.192   0.518  0.00  0.00    +0.140 A 
ATOM      7  C   LIG    1        1.349   1.948   0.400  0.00  0.00    -0.060 A 
ATOM      8  C   LIG    1        0.337   1.537  -0.447  0.00  0.00    +0.060 A 
ATOM      9  C   LIG    1        0.473   0.372  -1.179  0.00  0.00    +0.000 A 
ATOM     10  C   LIG    1        1.622  -0.388  -1.067  0.00  0.00    +0.050 A 
ATOM     11  C   LIG    1        2.642   0.018  -0.219  0.00  0.00    +0.120 A 
BRANCH   6  13
ATOM     12  C   LIG    1        3.289   2.808   2.075  0.00  0.00    +0.240 C 
ATOM     13  O   LIG    1        3.500   1.595   1.351  0.00  0.00    -0.290 OA
ENDBRANCH   6  13
ENDBRANCH   1  11
BRANCH   5  14
ATOM     14  C   LIG    1        2.685  -3.023   0.180  0.00  0.00    +0.280 C 
BRANCH  14  15
ATOM     15  N   LIG    1        2.234  -3.083   1.577  0.00  0.00    -0.520 NA
ATOM     16  C   LIG    1        1.485  -1.869   1.942  0.00  0.00    +0.170 C 
ATOM     17  C   LIG    1        1.343  -1.853   3.461  0.00  0.00    +0.060 C 
ATOM     18  C   LIG    1        0.730  -3.110   4.000  0.00  0.00    +0.200 C 
ATOM     19  C   LIG    1        0.973  -4.406   3.256  0.00  0.00    +0.240 C 
ATOM     20  N   LIG    1       -0.357  -5.059   3.273  0.00  0.00    -0.740 N 
ATOM     21  H   LIG    1       -0.547  -5.963   2.977  0.00  0.00    +0.430 HD
ATOM     22  C   LIG    1       -1.256  -4.195   3.767  0.00  0.00    +0.700 C 
ATOM     23  O   LIG    1       -2.444  -4.443   3.843  0.00  0.00    -0.580 OA
ATOM     24  N   LIG    1       -0.722  -3.030   4.171  0.00  0.00    -0.630 N 
ATOM     25  C   LIG    1       -1.464  -1.879   4.691  0.00  0.00    +0.320 C 
ATOM     26  C   LIG    1        1.403  -4.261   1.808  0.00  0.00    +0.170 C 
ENDBRANCH  14  15
ENDBRANCH   5  14
TORSDOF 4
