REMARK  Name = ZINCrH000004pVuJ.0
REMARK                            x       y       z     vdW  Elec       q    Type
REMARK                         _______ _______ _______ _____ _____    ______ ____
ROOT
ATOM      1  C   LIG    1        5.947   2.114  -0.067  0.00  0.00    +0.550 C 
ATOM      2  N   LIG    1        7.152   1.547   0.136  0.00  0.00    -0.640 N 
ATOM      3  H   LIG    1        7.211   0.645   0.488  0.00  0.00    +0.420 HD
ATOM      4  O   LIG    1        5.870   3.205  -0.592  0.00  0.00    -0.480 OA
ENDROOT
BRANCH   1  15
ATOM      5  C   LIG    1        3.652   3.556   1.072  0.00  0.00    +0.100 C 
ATOM      6  C   LIG    1        4.032   2.143   1.520  0.00  0.00    +0.160 C 
ATOM      7  O   LIG    1        2.854   1.426   1.906  0.00  0.00    -0.290 OA
ATOM      8  C   LIG    1        2.978   0.077   2.045  0.00  0.00    +0.050 A 
ATOM      9  C   LIG    1        2.009  -0.626   2.744  0.00  0.00    +0.030 A 
ATOM     10  C   LIG    1        2.118  -1.996   2.891  0.00  0.00    +0.030 A 
ATOM     11  C   LIG    1        3.193  -2.669   2.340  0.00  0.00    +0.030 A 
ATOM     12  C   LIG    1        4.162  -1.974   1.642  0.00  0.00    +0.030 A 
ATOM     13  C   LIG    1        4.059  -0.599   1.493  0.00  0.00    +0.050 A 
ATOM     14  O   LIG    1        5.024   0.073   0.806  0.00  0.00    -0.310 OA
ATOM     15  C   LIG    1        4.694   1.392   0.357  0.00  0.00    +0.170 C 
ENDBRANCH   1  15
BRANCH   2  16
ATOM     16  C   LIG    1        8.316   2.258  -0.159  0.00  0.00    +0.300 A 
ATOM     17  C   LIG    1        8.382   3.477  -0.762  0.00  0.00    -0.100 A 
ATOM     18  C   LIG    1        9.730   3.829  -0.867  0.00  0.00    +0.250 A 
ATOM     19  N   LIG    1       10.449   2.861  -0.358  0.00  0.00    -0.280 NA
ATOM     20  N   LIG    1        9.582   1.859   0.095  0.00  0.00    -0.380 N 
BRANCH  20  21
ATOM     21  C   LIG    1        9.978   0.600   0.733  0.00  0.00    +0.380 C 
BRANCH  21  22
ATOM     22  C   LIG    1       10.299  -0.421  -0.328  0.00  0.00    -0.120 A 
ATOM     23  C   LIG    1        9.287  -1.183  -0.882  0.00  0.00    +0.040 A 
ATOM     24  C   LIG    1        9.581  -2.117  -1.858  0.00  0.00    +0.030 A 
ATOM     25  C   LIG    1       10.888  -2.296  -2.274  0.00  0.00    -0.020 A 
ATOM     26  C   LIG    1       11.901  -1.536  -1.716  0.00  0.00    +0.030 A 
ATOM     27 CL   LIG    1       11.258  -3.473  -3.494  0.00  0.00    -0.060 Cl
ATOM     28  C   LIG    1       11.606  -0.599  -0.743  0.00  0.00    +0.070 A 
ENDBRANCH  21  22
ENDBRANCH  20  21
ENDBRANCH   2  16
TORSDOF 4
