REMARK  Name = ZINCpe00000MJI4j.0
REMARK                            x       y       z     vdW  Elec       q    Type
REMARK                         _______ _______ _______ _____ _____    ______ ____
ROOT
ATOM      1  C   LIG    1       -0.190   1.157  -0.604  0.00  0.00    +0.620 C 
ATOM      2  N   LIG    1       -1.365   1.766  -0.861  0.00  0.00    -0.620 N 
ATOM      3  C   LIG    1       -1.824   3.153  -1.030  0.00  0.00    +0.280 C 
ATOM      4  C   LIG    1       -2.954   2.611  -1.920  0.00  0.00    +0.250 C 
ATOM      5  C   LIG    1       -2.753   1.337  -1.088  0.00  0.00    +0.270 C 
ATOM      6  O   LIG    1       -0.121  -0.057  -0.608  0.00  0.00    -0.530 OA
ENDROOT
BRANCH   1  13
ATOM      7  C   LIG    1        2.286   1.420  -0.522  0.00  0.00    -0.030 A 
ATOM      8  C   LIG    1        3.408   2.178  -0.260  0.00  0.00    +0.040 A 
ATOM      9  C   LIG    1        3.278   3.477   0.196  0.00  0.00    +0.010 A 
ATOM     10  C   LIG    1        2.022   4.026   0.394  0.00  0.00    +0.080 A 
ATOM     11  C   LIG    1        0.890   3.278   0.130  0.00  0.00    +0.020 A 
ATOM     12  F   LIG    1        1.902   5.296   0.839  0.00  0.00    -0.140 F 
ATOM     13  C   LIG    1        1.016   1.965  -0.325  0.00  0.00    -0.080 A 
BRANCH   7  15
ATOM     14  C   LIG    1        2.159  -0.038  -2.524  0.00  0.00    +0.020 C 
ATOM     15  C   LIG    1        2.430   0.004  -1.019  0.00  0.00    +0.070 C 
ENDBRANCH   7  15
ENDBRANCH   1  13
BRANCH   4  16
ATOM     16  N   LIG    1       -2.594   2.468  -3.333  0.00  0.00    -0.600 N 
ATOM     17  C   LIG    1       -3.528   2.662  -4.449  0.00  0.00    +0.300 C 
ATOM     18  C   LIG    1       -2.639   2.845  -5.701  0.00  0.00    +0.000 C 
ATOM     19  C   LIG    1       -1.355   2.091  -5.287  0.00  0.00    +0.070 C 
ATOM     20  C   LIG    1       -1.368   2.137  -3.775  0.00  0.00    +0.520 C 
ATOM     21  O   LIG    1       -0.412   1.910  -3.064  0.00  0.00    -0.500 OA
BRANCH  18  22
ATOM     22  C   LIG    1       -3.275   2.205  -6.908  0.00  0.00    +0.520 C 
ATOM     23  N   LIG    1       -2.599   2.143  -8.073  0.00  0.00    -0.730 N 
ATOM     24  H   LIG    1       -1.703   2.510  -8.134  0.00  0.00    +0.400 HD
ATOM     25  C   LIG    1       -3.217   1.521  -9.246  0.00  0.00    +0.280 C 
ATOM     26  O   LIG    1       -4.395   1.746  -6.832  0.00  0.00    -0.530 OA
ENDBRANCH  18  22
ENDBRANCH   4  16
TORSDOF 4
