REMARK  Name = ZINCrH000004sMq1.0
REMARK                            x       y       z     vdW  Elec       q    Type
REMARK                         _______ _______ _______ _____ _____    ______ ____
ROOT
ATOM      1  S   LIG    1        4.515   5.623   0.712  0.00  0.00    +0.000 S 
ENDROOT
BRANCH   1   6
ATOM      2  C   LIG    1        8.826   8.673   1.312  0.00  0.00    +0.200 C 
ATOM      3  C   LIG    1        7.912   7.524   0.973  0.00  0.00    +0.200 A 
ATOM      4  N   LIG    1        8.265   6.389   0.439  0.00  0.00    -0.280 NA
ATOM      5  N   LIG    1        7.236   5.633   0.289  0.00  0.00    -0.280 NA
ATOM      6  C   LIG    1        6.161   6.254   0.716  0.00  0.00    +0.160 A 
ATOM      7  N   LIG    1        6.559   7.479   1.168  0.00  0.00    -0.450 N 
BRANCH   7   8
ATOM      8  C   LIG    1        5.714   8.528   1.744  0.00  0.00    +0.370 C 
BRANCH   8   9
ATOM      9  C   LIG    1        5.629   8.341   3.237  0.00  0.00    -0.130 A 
ATOM     10  C   LIG    1        4.624   7.562   3.780  0.00  0.00    +0.030 A 
ATOM     11  C   LIG    1        4.549   7.387   5.149  0.00  0.00    +0.010 A 
ATOM     12  C   LIG    1        5.472   8.000   5.976  0.00  0.00    +0.030 A 
ATOM     13  C   LIG    1        6.474   8.783   5.433  0.00  0.00    +0.010 A 
ATOM     14  C   LIG    1        6.552   8.954   4.064  0.00  0.00    +0.020 A 
ENDBRANCH   8   9
ENDBRANCH   7   8
ENDBRANCH   1   6
BRANCH   1  15
ATOM     15  C   LIG    1        4.805   3.994  -0.021  0.00  0.00    +0.110 C 
ATOM     16  C   LIG    1        5.292   4.162  -1.462  0.00  0.00    +0.110 C 
BRANCH  15  17
ATOM     17  C   LIG    1        3.522   3.204  -0.013  0.00  0.00    +0.470 A 
ATOM     18  N   LIG    1        3.597   1.902  -0.021  0.00  0.00    -0.580 NA
ATOM     19  C   LIG    1        2.495   1.128  -0.015  0.00  0.00    +0.540 A 
ATOM     20  C   LIG    1        1.180   1.794   0.000  0.00  0.00    -0.210 A 
ATOM     21  C   LIG    1       -0.013   1.076   0.008  0.00  0.00    +0.120 A 
ATOM     22  C   LIG    1       -1.212   1.754   0.017  0.00  0.00    -0.010 A 
ATOM     23  C   LIG    1       -1.236   3.142   0.029  0.00  0.00    +0.090 A 
ATOM     24  C   LIG    1       -0.062   3.866   0.023  0.00  0.00    -0.020 A 
ATOM     25  C   LIG    1        1.156   3.201   0.008  0.00  0.00    +0.170 A 
ATOM     26  O   LIG    1        2.582  -0.087  -0.022  0.00  0.00    -0.470 OA
ATOM     27  N   LIG    1        2.359   3.879   0.001  0.00  0.00    -0.620 N 
ATOM     28  H   LIG    1        2.365   4.849   0.007  0.00  0.00    +0.420 HD
ENDBRANCH  15  17
ENDBRANCH   1  15
TORSDOF 5
