REMARK  Name = ZINCpk00000ebao1.1
REMARK                            x       y       z     vdW  Elec       q    Type
REMARK                         _______ _______ _______ _____ _____    ______ ____
ROOT
ATOM      1  N   LIG    1       -3.951  -1.402   0.031  0.00  0.00    -1.000 NA
ATOM      2  C   LIG    1       -3.206  -1.561   1.288  0.00  0.00    +0.300 C 
ATOM      3  C   LIG    1       -1.999  -0.617   1.268  0.00  0.00    +0.020 C 
ATOM      4  C   LIG    1       -1.171  -0.882   0.008  0.00  0.00    +0.270 C 
ATOM      5  C   LIG    1       -2.023  -0.603  -1.232  0.00  0.00    +0.020 C 
ATOM      6  C   LIG    1       -3.230  -1.546  -1.241  0.00  0.00    +0.300 C 
ENDROOT
BRANCH   4   7
ATOM      7  N   LIG    1        0.002  -0.004   0.002  0.00  0.00    -0.340 N 
ATOM      8  N   LIG    1       -0.017   1.397   0.010  0.00  0.00    -0.280 NA
ATOM      9  C   LIG    1        1.220   1.822   0.000  0.00  0.00    +0.260 A 
ATOM     10  C   LIG    1        2.066   0.709  -0.014  0.00  0.00    -0.290 A 
ATOM     11  C   LIG    1        3.518   0.287  -0.030  0.00  0.00    +0.290 C 
ATOM     12  N   LIG    1        3.515  -1.130  -0.462  0.00  0.00    -0.650 NA
ATOM     13  H   LIG    1        3.618  -1.202  -1.464  0.00  0.00    +0.340 HD
ATOM     14  C   LIG    1        2.187  -1.619  -0.028  0.00  0.00    +0.300 C 
ATOM     15  C   LIG    1        1.291  -0.402  -0.013  0.00  0.00    +0.020 A 
ENDBRANCH   4   7
BRANCH   1  16
ATOM     16  S   LIG    1       -5.573  -1.069   0.048  0.00  0.00    +2.610 S 
ATOM     17  O   LIG    1       -6.027  -1.598   1.287  0.00  0.00    -0.950 OA
ATOM     18  O   LIG    1       -6.050  -1.584  -1.187  0.00  0.00    -0.940 OA
BRANCH  16  19
ATOM     19  C   LIG    1       -5.662   0.743   0.060  0.00  0.00    -0.350 C 
BRANCH  19  20
ATOM     20  C   LIG    1       -7.128   1.181   0.076  0.00  0.00    +0.160 C 
BRANCH  20  23
ATOM     21  C   LIG    1       -7.237   2.942  -2.398  0.00  0.00    +0.140 C 
ATOM     22  C   LIG    1       -7.251   3.478  -0.990  0.00  0.00    +0.070 A 
ATOM     23  C   LIG    1       -7.202   2.687   0.086  0.00  0.00    -0.220 A 
ATOM     24  S   LIG    1       -7.247   3.713   1.517  0.00  0.00    +0.130 S 
ATOM     25  C   LIG    1       -7.317   5.105   0.526  0.00  0.00    +0.230 A 
ATOM     26  N   LIG    1       -7.312   4.766  -0.719  0.00  0.00    -0.470 NA
ENDBRANCH  20  23
ENDBRANCH  19  20
ENDBRANCH  16  19
ENDBRANCH   1  16
TORSDOF 5
