REMARK  Name = ZINCpe000027pHvD.0
REMARK                            x       y       z     vdW  Elec       q    Type
REMARK                         _______ _______ _______ _____ _____    ______ ____
ROOT
ATOM      1  C   LIG    1        6.792  -2.762  -3.191  0.00  0.00    +0.150 C 
ATOM      2  C   LIG    1        8.068  -2.098  -3.755  0.00  0.00    +0.210 C 
ATOM      3  O   LIG    1        7.941  -0.701  -3.409  0.00  0.00    -0.360 OA
ATOM      4  C   LIG    1        6.548  -0.377  -3.635  0.00  0.00    +0.210 C 
ATOM      5  C   LIG    1        5.771  -1.605  -3.109  0.00  0.00    +0.230 C 
ENDROOT
BRANCH   5   6
ATOM      6  N   LIG    1        5.349  -1.390  -1.723  0.00  0.00    -0.710 N 
ATOM      7  H   LIG    1        5.918  -1.680  -0.992  0.00  0.00    +0.410 HD
ATOM      8  C   LIG    1        4.171  -0.790  -1.462  0.00  0.00    +0.530 C 
ATOM      9  O   LIG    1        3.460  -0.428  -2.376  0.00  0.00    -0.530 OA
BRANCH   8  10
ATOM     10  C   LIG    1        3.736  -0.569  -0.036  0.00  0.00    +0.140 C 
BRANCH  10  11
ATOM     11  C   LIG    1        2.394   0.115  -0.020  0.00  0.00    +0.120 A 
ATOM     12  N   LIG    1        2.332   1.431  -0.013  0.00  0.00    -0.440 NA
ATOM     13  C   LIG    1        1.180   2.073   0.002  0.00  0.00    +0.220 A 
ATOM     14  C   LIG    1       -0.017   1.382   0.010  0.00  0.00    +0.010 A 
ATOM     15  C   LIG    1        0.002  -0.004   0.002  0.00  0.00    -0.020 A 
ATOM     16  C   LIG    1        1.235  -0.648  -0.013  0.00  0.00    +0.090 A 
BRANCH  16  17
ATOM     17  O   LIG    1        1.303  -2.006  -0.021  0.00  0.00    -0.310 OA
ATOM     18  C   LIG    1        0.064  -2.718  -0.012  0.00  0.00    +0.240 C 
ENDBRANCH  16  17
ENDBRANCH  10  11
ENDBRANCH   8  10
ENDBRANCH   5   6
BRANCH   1  19
ATOM     19  O   LIG    1        7.042  -3.302  -1.892  0.00  0.00    -0.290 OA
BRANCH  19  22
ATOM     20  N   LIG    1        7.919  -6.600  -1.058  0.00  0.00    -0.360 N 
ATOM     21  C   LIG    1        7.641  -5.320  -0.694  0.00  0.00    +0.210 A 
ATOM     22  C   LIG    1        7.369  -4.623  -1.824  0.00  0.00    -0.030 A 
ATOM     23  C   LIG    1        7.477  -5.503  -2.909  0.00  0.00    +0.170 A 
ATOM     24  N   LIG    1        7.811  -6.682  -2.452  0.00  0.00    -0.260 NA
BRANCH  20  26
ATOM     25  C   LIG    1        7.312  -8.870  -0.379  0.00  0.00    +0.040 C 
ATOM     26  C   LIG    1        8.269  -7.697  -0.153  0.00  0.00    +0.320 C 
ENDBRANCH  20  26
ENDBRANCH  19  22
ENDBRANCH   1  19
TORSDOF 7
