REMARK  Name = ZINCqH0000006pqx.0
REMARK                            x       y       z     vdW  Elec       q    Type
REMARK                         _______ _______ _______ _____ _____    ______ ____
ROOT
ATOM      1  C   LIG    1        2.321   5.714   0.012  0.00  0.00    +0.280 C 
ATOM      2  C   LIG    1        2.205   6.214   1.453  0.00  0.00    +0.040 C 
ENDROOT
BRANCH   1   3
ATOM      3  C   LIG    1        3.598   6.230  -0.598  0.00  0.00    -0.080 A 
ATOM      4  C   LIG    1        4.799   5.606  -0.314  0.00  0.00    +0.020 A 
ATOM      5  C   LIG    1        5.971   6.072  -0.874  0.00  0.00    +0.030 A 
ATOM      6  C   LIG    1        5.945   7.180  -1.718  0.00  0.00    -0.040 A 
ATOM      7  C   LIG    1        4.733   7.809  -1.997  0.00  0.00    +0.030 A 
ATOM      8  C   LIG    1        3.566   7.331  -1.436  0.00  0.00    +0.030 A 
BRANCH   6   9
ATOM      9  C   LIG    1        7.203   7.690  -2.318  0.00  0.00    -0.150 A 
ATOM     10  C   LIG    1        7.195   8.796  -3.171  0.00  0.00    +0.330 A 
ATOM     11  N   LIG    1        8.339   9.220  -3.680  0.00  0.00    -0.510 NA
ATOM     12  C   LIG    1        9.473   8.608  -3.401  0.00  0.00    +0.490 A 
ATOM     13  N   LIG    1        9.524   7.558  -2.606  0.00  0.00    -0.510 NA
ATOM     14  C   LIG    1        8.427   7.072  -2.050  0.00  0.00    +0.330 A 
ENDBRANCH   6   9
ENDBRANCH   1   3
BRANCH   1  16
ATOM     15  C   LIG    1        1.172   3.565   0.011  0.00  0.00    +0.560 C 
ATOM     16  N   LIG    1        2.333   4.249   0.003  0.00  0.00    -0.720 N 
ATOM     17  H   LIG    1        3.177   3.771  -0.008  0.00  0.00    +0.400 HD
ATOM     18  O   LIG    1        0.114   4.164   0.024  0.00  0.00    -0.530 OA
BRANCH  15  23
ATOM     19  C   LIG    1        0.002  -0.004   0.002  0.00  0.00    -0.100 A 
ATOM     20  C   LIG    1        1.208  -0.682  -0.013  0.00  0.00    +0.060 A 
ATOM     21  C   LIG    1        2.402   0.017  -0.021  0.00  0.00    +0.000 A 
ATOM     22  C   LIG    1        2.397   1.396  -0.014  0.00  0.00    +0.050 A 
ATOM     23  C   LIG    1        1.184   2.087   0.002  0.00  0.00    -0.140 A 
ATOM     24  C   LIG    1       -0.017   1.376   0.010  0.00  0.00    +0.100 A 
BRANCH  19  25
ATOM     25  C   LIG    1       -1.294  -0.774   0.010  0.00  0.00    +0.220 C 
BRANCH  25  27
ATOM     26  C   LIG    1       -2.941  -1.736  -1.440  0.00  0.00    +0.200 C 
ATOM     27  O   LIG    1       -1.716  -1.010  -1.335  0.00  0.00    -0.390 OA
ENDBRANCH  25  27
ENDBRANCH  19  25
ENDBRANCH  15  23
ENDBRANCH   1  16
TORSDOF 6
