REMARK  Name = ZINCpe00000gMY1v.0
REMARK                            x       y       z     vdW  Elec       q    Type
REMARK                         _______ _______ _______ _____ _____    ______ ____
ROOT
ATOM      1  C   LIG    1       -1.354  -4.138  -3.385  0.00  0.00    +0.160 C 
ATOM      2  C   LIG    1       -2.539  -3.265  -3.710  0.00  0.00    +0.090 A 
ATOM      3  N   LIG    1       -3.287  -3.355  -4.779  0.00  0.00    -0.290 NA
ATOM      4  N   LIG    1       -4.279  -2.369  -4.709  0.00  0.00    -0.350 N 
ATOM      5  C   LIG    1       -4.105  -1.685  -3.555  0.00  0.00    +0.290 A 
ATOM      6  C   LIG    1       -5.325  -2.126  -5.706  0.00  0.00    +0.360 C 
ATOM      7  C   LIG    1       -3.026  -2.220  -2.920  0.00  0.00    -0.260 A 
ENDROOT
BRANCH   5   8
ATOM      8  N   LIG    1       -4.885  -0.625  -3.102  0.00  0.00    -0.490 N 
ATOM      9  C   LIG    1       -4.064   0.574  -2.877  0.00  0.00    +0.180 C 
ATOM     10  C   LIG    1       -4.968   1.730  -2.438  0.00  0.00    +0.230 C 
ATOM     11  O   LIG    1       -5.693   1.343  -1.268  0.00  0.00    -0.380 OA
ATOM     12  C   LIG    1       -6.503   0.178  -1.451  0.00  0.00    +0.220 C 
ATOM     13  C   LIG    1       -5.615  -0.992  -1.880  0.00  0.00    +0.180 C 
ENDBRANCH   5   8
BRANCH   7  14
ATOM     14  C   LIG    1       -2.462  -1.769  -1.597  0.00  0.00    +0.260 C 
BRANCH  14  15
ATOM     15  N   LIG    1       -1.343  -0.846  -1.830  0.00  0.00    -0.680 NA
ATOM     16  H   LIG    1       -0.639  -1.271  -2.414  0.00  0.00    +0.340 HD
BRANCH  15  17
ATOM     17  C   LIG    1       -0.767  -0.385  -0.560  0.00  0.00    +0.310 C 
BRANCH  17  18
ATOM     18  C   LIG    1        0.374   0.558  -0.839  0.00  0.00    +0.140 A 
ATOM     19  N   LIG    1        0.290   1.857  -0.973  0.00  0.00    -0.230 NA
ATOM     20  N   LIG    1        1.452   2.358  -1.205  0.00  0.00    -0.290 NA
ATOM     21  C   LIG    1        2.353   1.390  -1.231  0.00  0.00    +0.190 A 
ATOM     22  C   LIG    1        3.746   1.368  -1.438  0.00  0.00    +0.080 A 
ATOM     23  C   LIG    1        4.404   0.178  -1.403  0.00  0.00    +0.060 A 
ATOM     24  C   LIG    1        3.689  -1.007  -1.162  0.00  0.00    +0.030 A 
ATOM     25  C   LIG    1        2.354  -0.971  -0.965  0.00  0.00    +0.230 A 
ATOM     26  N   LIG    1        1.681   0.215  -0.997  0.00  0.00    -0.390 N 
ENDBRANCH  17  18
ENDBRANCH  15  17
ENDBRANCH  14  15
ENDBRANCH   7  14
TORSDOF 5
