REMARK  Name = ZINCnE00000le7PI.0
REMARK                            x       y       z     vdW  Elec       q    Type
REMARK                         _______ _______ _______ _____ _____    ______ ____
ROOT
ATOM      1  C   LIG    1       -0.490   2.313  -1.168  0.00  0.00    +0.490 C 
ATOM      2  O   LIG    1       -1.038   1.768  -2.097  0.00  0.00    -0.520 OA
ENDROOT
BRANCH   1   3
ATOM      3  C   LIG    1       -0.018   1.500   0.010  0.00  0.00    -0.120 C 
ATOM      4  C   LIG    1        1.493   1.730   0.201  0.00  0.00    +0.040 C 
ATOM      5  C   LIG    1        2.156   0.650   1.077  0.00  0.00    +0.010 C 
ATOM      6  C   LIG    1        1.314   0.279   2.268  0.00  0.00    +0.000 C 
ATOM      7  C   LIG    1        0.459  -0.951   1.900  0.00  0.00    -0.010 C 
ATOM      8  C   LIG    1       -0.718  -0.595   1.122  0.00  0.00    +0.000 C 
ATOM      9  C   LIG    1       -0.355   0.054  -0.230  0.00  0.00    +0.040 C 
BRANCH   3  11
ATOM     10  O   LIG    1       -0.142   2.595   2.104  0.00  0.00    -0.660 OA
ATOM     11  C   LIG    1       -0.743   1.972   1.245  0.00  0.00    +0.530 C 
ATOM     12  O   LIG    1       -1.930   1.730   1.385  0.00  0.00    -0.670 OA
ENDBRANCH   3  11
ENDBRANCH   1   3
BRANCH   1  13
ATOM     13  O   LIG    1       -0.301   3.641  -1.186  0.00  0.00    -0.340 OA
BRANCH  13  14
ATOM     14  C   LIG    1       -0.781   4.360  -2.353  0.00  0.00    +0.320 C 
BRANCH  14  15
ATOM     15  C   LIG    1       -0.483   5.829  -2.197  0.00  0.00    -0.010 A 
ATOM     16  C   LIG    1        0.634   6.458  -2.598  0.00  0.00    -0.000 A 
ATOM     17  O   LIG    1        0.497   7.758  -2.270  0.00  0.00    -0.200 OA
ATOM     18  C   LIG    1       -0.695   7.905  -1.676  0.00  0.00    +0.420 A 
ATOM     19  N   LIG    1       -1.290   6.747  -1.636  0.00  0.00    -0.470 NA
BRANCH  16  20
ATOM     20  C   LIG    1        1.819   5.829  -3.285  0.00  0.00    +0.090 C 
ATOM     21  C   LIG    1        3.172   6.385  -2.812  0.00  0.00    +0.040 C 
ATOM     22  C   LIG    1        3.619   6.328  -4.285  0.00  0.00    +0.020 C 
ATOM     23  C   LIG    1        2.132   6.444  -4.659  0.00  0.00    +0.030 C 
ENDBRANCH  16  20
ENDBRANCH  14  15
ENDBRANCH  13  14
ENDBRANCH   1  13
TORSDOF 6
