REMARK  Name = ZINCvU00000008oE.0
REMARK                            x       y       z     vdW  Elec       q    Type
REMARK                         _______ _______ _______ _____ _____    ______ ____
ROOT
ATOM      1  C   LIG    1       -1.704  -0.423  -0.134  0.00  0.00    +0.210 A 
ATOM      2  N   LIG    1       -2.702   0.424  -0.206  0.00  0.00    -0.300 NA
ATOM      3  N   LIG    1       -3.890  -0.313  -0.303  0.00  0.00    -0.330 NA
ATOM      4  C   LIG    1       -3.581  -1.586  -0.287  0.00  0.00    +0.420 A 
ATOM      5  N   LIG    1       -2.220  -1.690  -0.188  0.00  0.00    -0.440 N 
ENDROOT
BRANCH   5   6
ATOM      6  C   LIG    1       -1.484  -2.883  -0.145  0.00  0.00    +0.110 A 
ATOM      7  C   LIG    1       -1.212  -3.489   1.074  0.00  0.00    +0.050 A 
ATOM      8  C   LIG    1       -0.487  -4.665   1.113  0.00  0.00    +0.040 A 
ATOM      9  C   LIG    1       -0.034  -5.239  -0.060  0.00  0.00    +0.060 A 
ATOM     10  C   LIG    1       -0.303  -4.638  -1.276  0.00  0.00    +0.050 A 
ATOM     11  C   LIG    1       -1.032  -3.465  -1.323  0.00  0.00    -0.010 A 
ATOM     12 CL   LIG    1       -1.376  -2.715  -2.850  0.00  0.00    -0.040 Cl
ENDBRANCH   5   6
BRANCH   4  13
ATOM     13  N   LIG    1       -4.477  -2.645  -0.364  0.00  0.00    -0.440 N 
ATOM     14  C   LIG    1       -4.431  -3.471   0.869  0.00  0.00    +0.190 C 
ATOM     15  C   LIG    1       -5.786  -4.222   0.843  0.00  0.00    +0.040 C 
ATOM     16  C   LIG    1       -6.760  -3.160   0.284  0.00  0.00    +0.030 C 
ATOM     17  C   LIG    1       -5.869  -2.155  -0.469  0.00  0.00    +0.210 C 
ENDBRANCH   4  13
BRANCH   1  18
ATOM     18  S   LIG    1        0.002  -0.004   0.002  0.00  0.00    +0.070 S 
BRANCH  18  20
ATOM     19  C   LIG    1       -0.739   2.303   1.271  0.00  0.00    +0.110 C 
ATOM     20  C   LIG    1       -0.022   1.810   0.012  0.00  0.00    +0.140 C 
BRANCH  20  21
ATOM     21  C   LIG    1        1.391   2.331   0.001  0.00  0.00    +0.170 A 
ATOM     22  N   LIG    1        2.378   1.895   0.733  0.00  0.00    -0.250 NA
ATOM     23  N   LIG    1        3.442   2.568   0.466  0.00  0.00    -0.270 NA
ATOM     24  C   LIG    1        3.168   3.463  -0.454  0.00  0.00    +0.220 A 
ATOM     25  O   LIG    1        1.864   3.326  -0.769  0.00  0.00    -0.210 OA
BRANCH  24  26
ATOM     26  C   LIG    1        4.114   4.437  -1.039  0.00  0.00    -0.030 A 
ATOM     27  C   LIG    1        3.682   5.332  -2.019  0.00  0.00    +0.050 A 
ATOM     28  C   LIG    1        4.568   6.242  -2.558  0.00  0.00    +0.010 A 
ATOM     29  C   LIG    1        5.886   6.261  -2.136  0.00  0.00    +0.040 A 
ATOM     30  C   LIG    1        6.322   5.373  -1.169  0.00  0.00    +0.020 A 
ATOM     31  C   LIG    1        5.444   4.462  -0.618  0.00  0.00    +0.080 A 
ENDBRANCH  24  26
ENDBRANCH  20  21
ENDBRANCH  18  20
ENDBRANCH   1  18
TORSDOF 6
