REMARK  Name = ZINCrH000004mWmI.0
REMARK                            x       y       z     vdW  Elec       q    Type
REMARK                         _______ _______ _______ _____ _____    ______ ____
ROOT
ATOM      1  C   LIG    1       -3.361   1.671   2.455  0.00  0.00    +0.160 A 
ATOM      2  C   LIG    1       -4.031   2.796   1.996  0.00  0.00    +0.070 A 
ATOM      3  C   LIG    1       -4.243   3.868   2.843  0.00  0.00    -0.160 A 
ATOM      4  C   LIG    1       -3.788   3.823   4.148  0.00  0.00    +0.090 A 
ATOM      5  C   LIG    1       -3.120   2.707   4.614  0.00  0.00    +0.030 A 
ATOM      6  C   LIG    1       -2.907   1.625   3.773  0.00  0.00    +0.170 A 
ENDROOT
BRANCH   6   7
ATOM      7  N   LIG    1       -2.233   0.489   4.246  0.00  0.00    -0.320 N 
ATOM      8  C   LIG    1       -1.745   0.315   5.495  0.00  0.00    +0.240 A 
ATOM      9  C   LIG    1       -1.170  -0.909   5.546  0.00  0.00    -0.090 A 
ATOM     10  C   LIG    1       -1.311  -1.504   4.288  0.00  0.00    +0.270 A 
ATOM     11  N   LIG    1       -1.953  -0.669   3.510  0.00  0.00    -0.300 NA
ENDBRANCH   6   7
BRANCH   3  12
ATOM     12  C   LIG    1       -4.971   5.088   2.342  0.00  0.00    +0.510 C 
ATOM     13  F   LIG    1       -4.739   5.240   0.971  0.00  0.00    -0.170 F 
ATOM     14  F   LIG    1       -4.508   6.219   3.021  0.00  0.00    -0.170 F 
ATOM     15  F   LIG    1       -6.344   4.938   2.568  0.00  0.00    -0.170 F 
ENDBRANCH   3  12
BRANCH   1  16
ATOM     16  N   LIG    1       -3.146   0.586   1.601  0.00  0.00    -1.040 N 
ATOM     17  H   LIG    1       -3.177  -0.319   1.950  0.00  0.00    +0.440 HD
BRANCH  16  18
ATOM     18  S   LIG    1       -2.837   0.845  -0.005  0.00  0.00    +2.690 S 
ATOM     19  O   LIG    1       -2.527  -0.425  -0.564  0.00  0.00    -0.940 OA
ATOM     20  O   LIG    1       -3.888   1.671  -0.488  0.00  0.00    -0.950 OA
BRANCH  18  24
ATOM     21  C   LIG    1        0.950   3.313  -0.268  0.00  0.00    +0.190 A 
ATOM     22  C   LIG    1        1.023   1.927  -0.265  0.00  0.00    -0.030 A 
ATOM     23  C   LIG    1       -0.134   1.177  -0.180  0.00  0.00    +0.180 A 
ATOM     24  C   LIG    1       -1.363   1.805  -0.105  0.00  0.00    -0.720 A 
ATOM     25  C   LIG    1       -1.438   3.186  -0.102  0.00  0.00    +0.160 A 
ATOM     26  C   LIG    1       -0.284   3.941  -0.186  0.00  0.00    -0.090 A 
BRANCH  21  28
ATOM     27  C   LIG    1        1.936   5.475  -0.350  0.00  0.00    +0.250 C 
ATOM     28  O   LIG    1        2.087   4.054  -0.352  0.00  0.00    -0.310 OA
ENDBRANCH  21  28
ENDBRANCH  18  24
ENDBRANCH  16  18
ENDBRANCH   1  16
TORSDOF 6
