REMARK  Name = ZINCkj00000cLVTQ.1
REMARK                            x       y       z     vdW  Elec       q    Type
REMARK                         _______ _______ _______ _____ _____    ______ ____
ROOT
ATOM      1  N   LIG    1       -0.699   1.559   1.217  0.00  0.00    -0.390 N 
ATOM      2  C   LIG    1       -0.013   1.086   0.008  0.00  0.00    +0.280 C 
ATOM      3  C   LIG    1       -0.752   1.592  -1.233  0.00  0.00    +0.060 C 
ATOM      4  C   LIG    1       -0.769   3.123  -1.220  0.00  0.00    +0.290 C 
ATOM      5  C   LIG    1       -1.420   3.606   0.080  0.00  0.00    +0.060 C 
ATOM      6  C   LIG    1       -0.656   3.025   1.272  0.00  0.00    +0.270 C 
ATOM      7  H   LIG    1       -1.659   1.251   1.199  0.00  0.00    +0.430 HD
ENDROOT
BRANCH   4   8
ATOM      8  N   LIG    1       -1.541   3.614  -2.365  0.00  0.00    -0.640 N 
ATOM      9  C   LIG    1       -1.021   4.479  -3.435  0.00  0.00    +0.270 C 
ATOM     10  C   LIG    1       -2.233   4.685  -4.364  0.00  0.00    +0.270 C 
ATOM     11  N   LIG    1       -3.307   3.914  -3.719  0.00  0.00    -0.630 N 
ATOM     12  C   LIG    1       -4.678   3.788  -4.218  0.00  0.00    +0.340 C 
ATOM     13  C   LIG    1       -2.830   3.341  -2.607  0.00  0.00    +0.700 C 
ATOM     14  O   LIG    1       -3.507   2.640  -1.879  0.00  0.00    -0.590 OA
ENDBRANCH   4   8
BRANCH   1  15
ATOM     15  C   LIG    1       -0.032   1.006   2.404  0.00  0.00    +0.400 C 
BRANCH  15  20
ATOM     16  C   LIG    1       -2.929   1.925   6.487  0.00  0.00    +0.180 C 
ATOM     17  C   LIG    1       -1.888   1.998   5.400  0.00  0.00    +0.020 A 
ATOM     18  N   LIG    1       -0.976   2.915   5.254  0.00  0.00    -0.330 NA
ATOM     19  O   LIG    1       -0.283   2.704   4.286  0.00  0.00    +0.120 OA
ATOM     20  C   LIG    1       -0.657   1.587   3.646  0.00  0.00    -0.120 A 
ATOM     21  C   LIG    1       -1.712   1.087   4.333  0.00  0.00    +0.030 A 
ENDBRANCH  15  20
ENDBRANCH   1  15
TORSDOF 3
