REMARK  Name = ZINCpe000000XZaC.0
REMARK                            x       y       z     vdW  Elec       q    Type
REMARK                         _______ _______ _______ _____ _____    ______ ____
ROOT
ATOM      1  C   LIG    1       -1.859   3.286   0.476  0.00  0.00    +0.160 C 
ATOM      2  C   LIG    1       -0.678   2.372   0.270  0.00  0.00    +0.200 A 
ATOM      3  C   LIG    1       -0.877   1.038   0.065  0.00  0.00    -0.240 A 
ATOM      4  C   LIG    1        0.242   0.203  -0.119  0.00  0.00    +0.540 A 
ATOM      5  N   LIG    1        1.474   0.757  -0.098  0.00  0.00    -0.630 N 
ATOM      6  H   LIG    1        2.259   0.202  -0.226  0.00  0.00    +0.420 HD
ATOM      7  C   LIG    1        1.609   2.098   0.106  0.00  0.00    +0.450 A 
ATOM      8  O   LIG    1        0.102  -0.995  -0.299  0.00  0.00    -0.530 OA
ATOM      9  N   LIG    1        0.557   2.869   0.283  0.00  0.00    -0.520 NA
ENDROOT
BRANCH   7  10
ATOM     10  C   LIG    1        2.960   2.696   0.128  0.00  0.00    -0.130 A 
ATOM     11  C   LIG    1        3.127   4.070   0.335  0.00  0.00    +0.150 A 
ATOM     12  C   LIG    1        4.413   4.581   0.346  0.00  0.00    -0.020 A 
ATOM     13  C   LIG    1        5.482   3.725   0.155  0.00  0.00    +0.300 A 
ATOM     14  N   LIG    1        5.296   2.433  -0.037  0.00  0.00    -0.480 NA
ATOM     15  C   LIG    1        4.092   1.899  -0.051  0.00  0.00    +0.290 A 
ENDBRANCH   7  10
BRANCH   3  16
ATOM     16  C   LIG    1       -2.272   0.467   0.043  0.00  0.00    +0.140 C 
BRANCH  16  17
ATOM     17  C   LIG    1       -2.756   0.382  -1.382  0.00  0.00    +0.520 C 
ATOM     18  N   LIG    1       -3.986  -0.103  -1.647  0.00  0.00    -0.610 N 
ATOM     19  C   LIG    1       -4.827  -0.655  -0.575  0.00  0.00    +0.280 C 
ATOM     20  C   LIG    1       -5.322  -2.037  -1.002  0.00  0.00    +0.170 C 
ATOM     21  N   LIG    1       -5.973  -1.939  -2.315  0.00  0.00    -0.540 NA
ATOM     22  C   LIG    1       -5.023  -1.507  -3.349  0.00  0.00    +0.170 C 
ATOM     23  C   LIG    1       -6.609  -3.211  -2.683  0.00  0.00    +0.190 C 
ATOM     24  C   LIG    1       -4.519  -0.098  -3.018  0.00  0.00    +0.230 C 
ATOM     25  C   LIG    1       -3.414   0.300  -3.998  0.00  0.00    +0.050 C 
ATOM     26  O   LIG    1       -2.040   0.749  -2.289  0.00  0.00    -0.520 OA
ENDBRANCH  16  17
ENDBRANCH   3  16
TORSDOF 3
