REMARK  Name = ZINC650000002rTp.0
REMARK                            x       y       z     vdW  Elec       q    Type
REMARK                         _______ _______ _______ _____ _____    ______ ____
ROOT
ATOM      1  C   LIG    1       -1.413  -2.063   0.004  0.00  0.00    +0.010 C 
ATOM      2  C   LIG    1       -1.433  -0.534   0.013  0.00  0.00    +0.170 C 
ENDROOT
BRANCH   2   3
ATOM      3  C   LIG    1        0.002  -0.004   0.002  0.00  0.00    +0.170 C 
ATOM      4  C   LIG    1       -0.019   1.526   0.010  0.00  0.00    +0.010 C 
BRANCH   3   5
ATOM      5  O   LIG    1        0.693  -0.477   1.160  0.00  0.00    -0.560 OA
ATOM      6  H   LIG    1        0.294  -0.202   1.996  0.00  0.00    +0.380 HD
ENDBRANCH   3   5
ENDBRANCH   2   3
BRANCH   2   7
ATOM      7  O   LIG    1       -2.124  -0.060  -1.145  0.00  0.00    -0.560 OA
ATOM      8  H   LIG    1       -1.725  -0.336  -1.981  0.00  0.00    +0.380 HD
ENDBRANCH   2   7
TORSDOF 3
