REMARK  Name = ZINCtV000002vURX.0
REMARK                            x       y       z     vdW  Elec       q    Type
REMARK                         _______ _______ _______ _____ _____    ______ ____
ROOT
ATOM      1  C   LIG    1        3.011   3.204  -1.439  0.00  0.00    +0.190 C 
ENDROOT
BRANCH   1   2
ATOM      2  C   LIG    1        2.889   4.218  -2.547  0.00  0.00    -0.120 A 
ATOM      3  C   LIG    1        2.553   3.809  -3.824  0.00  0.00    +0.090 A 
ATOM      4  C   LIG    1        2.435   4.737  -4.840  0.00  0.00    -0.060 A 
ATOM      5  C   LIG    1        2.665   6.081  -4.580  0.00  0.00    +0.120 A 
ATOM      6  C   LIG    1        3.006   6.489  -3.299  0.00  0.00    -0.020 A 
ATOM      7  C   LIG    1        3.117   5.557  -2.285  0.00  0.00    +0.050 A 
BRANCH   5   8
ATOM      8  O   LIG    1        2.555   6.995  -5.579  0.00  0.00    -0.260 OA
BRANCH   8   9
ATOM      9  C   LIG    1        2.152   6.560  -6.801  0.00  0.00    +0.080 A 
ATOM     10  C   LIG    1        3.077   6.400  -7.823  0.00  0.00    +0.010 A 
ATOM     11  C   LIG    1        2.665   5.951  -9.062  0.00  0.00    +0.020 A 
ATOM     12  C   LIG    1        1.330   5.673  -9.290  0.00  0.00    +0.010 A 
ATOM     13  C   LIG    1        0.405   5.838  -8.275  0.00  0.00    +0.030 A 
ATOM     14  C   LIG    1        0.812   6.280  -7.032  0.00  0.00    +0.000 A 
ENDBRANCH   8   9
ENDBRANCH   5   8
ENDBRANCH   1   2
BRANCH   1  15
ATOM     15  N   LIG    1        1.937   2.210  -1.565  0.00  0.00    -0.670 NA
ATOM     16  H   LIG    1        2.212   1.327  -1.160  0.00  0.00    +0.350 HD
BRANCH  15  17
ATOM     17  C   LIG    1        0.692   2.701  -0.960  0.00  0.00    +0.220 C 
ATOM     18  C   LIG    1        0.566   2.229   0.508  0.00  0.00    +0.220 C 
ATOM     19  O   LIG    1       -0.183   1.008   0.387  0.00  0.00    -0.290 OA
ATOM     20  C   LIG    1       -0.965   1.069  -0.726  0.00  0.00    +0.170 A 
ATOM     21  C   LIG    1       -2.084   0.317  -1.072  0.00  0.00    -0.040 A 
ATOM     22  C   LIG    1       -2.731   0.542  -2.272  0.00  0.00    +0.170 A 
ATOM     23  C   LIG    1       -2.273   1.518  -3.141  0.00  0.00    -0.080 A 
ATOM     24  C   LIG    1       -1.162   2.273  -2.801  0.00  0.00    +0.200 A 
ATOM     25  F   LIG    1       -0.709   3.227  -3.645  0.00  0.00    -0.120 F 
ATOM     26  F   LIG    1       -3.817  -0.193  -2.599  0.00  0.00    -0.120 F 
ATOM     27  C   LIG    1       -0.517   2.049  -1.603  0.00  0.00    -0.210 A 
ENDBRANCH  15  17
ENDBRANCH   1  15
BRANCH   1  28
ATOM     28  C   LIG    1        4.368   2.504  -1.537  0.00  0.00    +0.040 C 
BRANCH  28  30
ATOM     29  C   LIG    1        5.879   0.828  -0.463  0.00  0.00    +0.030 C 
ATOM     30  C   LIG    1        4.560   1.591  -0.324  0.00  0.00    -0.010 C 
ENDBRANCH  28  30
ENDBRANCH   1  28
TORSDOF 7
