REMARK  Name = ZINCpe000000WlRD.0
REMARK                            x       y       z     vdW  Elec       q    Type
REMARK                         _______ _______ _______ _____ _____    ______ ____
ROOT
ATOM      1  C   LIG    1        0.591   3.681   1.816  0.00  0.00    +0.240 A 
ATOM      2  C   LIG    1        0.665   4.367   3.019  0.00  0.00    -0.090 A 
ATOM      3  C   LIG    1        1.659   4.054   3.930  0.00  0.00    +0.200 A 
ATOM      4  C   LIG    1        2.582   3.051   3.638  0.00  0.00    +0.020 A 
ATOM      5  O   LIG    1        3.555   2.753   4.542  0.00  0.00    -0.290 OA
ATOM      6  C   LIG    1        4.048   3.835   5.336  0.00  0.00    +0.310 C 
ATOM      7  C   LIG    1        2.890   4.638   5.872  0.00  0.00    +0.490 C 
ATOM      8  O   LIG    1        2.980   5.194   6.946  0.00  0.00    -0.490 OA
ATOM      9  C   LIG    1        2.501   2.365   2.439  0.00  0.00    +0.200 A 
ATOM     10  N   LIG    1        1.751   4.735   5.152  0.00  0.00    -0.660 N 
ATOM     11  H   LIG    1        1.008   5.269   5.476  0.00  0.00    +0.420 HD
ATOM     12  C   LIG    1        1.510   2.683   1.528  0.00  0.00    -0.710 A 
ENDROOT
BRANCH  12  13
ATOM     13  S   LIG    1        1.412   1.813  -0.002  0.00  0.00    +2.700 S 
ATOM     14  O   LIG    1        1.285   2.800  -1.017  0.00  0.00    -0.940 OA
ATOM     15  O   LIG    1        2.454   0.848   0.018  0.00  0.00    -0.960 OA
BRANCH  13  16
ATOM     16  N   LIG    1       -0.011   0.966   0.007  0.00  0.00    -1.110 NA
ATOM     17  H   LIG    1        0.002  -0.004   0.002  0.00  0.00    +0.420 HD
BRANCH  16  18
ATOM     18  C   LIG    1       -1.290   1.681   0.017  0.00  0.00    +0.270 C 
ATOM     19  C   LIG    1       -1.789   1.812   1.457  0.00  0.00    +0.000 C 
ATOM     20  C   LIG    1       -3.124   2.559   1.468  0.00  0.00    +0.010 C 
ATOM     21  C   LIG    1       -4.150   1.782   0.641  0.00  0.00    +0.010 C 
ATOM     22  C   LIG    1       -3.651   1.650  -0.799  0.00  0.00    +0.030 C 
ATOM     23  C   LIG    1       -2.316   0.903  -0.809  0.00  0.00    -0.010 C 
BRANCH  23  24
ATOM     24  C   LIG    1       -1.816   0.772  -2.250  0.00  0.00    +0.180 C 
BRANCH  24  25
ATOM     25  O   LIG    1       -2.716  -0.053  -2.993  0.00  0.00    -0.570 OA
ATOM     26  H   LIG    1       -2.461  -0.180  -3.917  0.00  0.00    +0.380 HD
ENDBRANCH  24  25
ENDBRANCH  23  24
ENDBRANCH  16  18
ENDBRANCH  13  16
ENDBRANCH  12  13
BRANCH   1  28
ATOM     27  C   LIG    1       -1.297   5.024   1.280  0.00  0.00    +0.260 C 
ATOM     28  O   LIG    1       -0.384   3.986   0.919  0.00  0.00    -0.300 OA
ENDBRANCH   1  28
TORSDOF 6
