REMARK  Name = ZINCvU0000000GRk.0
REMARK                            x       y       z     vdW  Elec       q    Type
REMARK                         _______ _______ _______ _____ _____    ______ ____
ROOT
ATOM      1  O   LIG    1       -6.204   6.938   0.226  0.00  0.00    -0.500 OA
ATOM      2  C   LIG    1       -6.520   5.767   0.211  0.00  0.00    +0.510 C 
ATOM      3  N   LIG    1       -5.572   4.816   0.099  0.00  0.00    -0.680 N 
ATOM      4  H   LIG    1       -5.829   3.884   0.011  0.00  0.00    +0.410 HD
ENDROOT
BRANCH   3   5
ATOM      5  C   LIG    1       -4.219   5.171   0.110  0.00  0.00    +0.150 A 
ATOM      6  C   LIG    1       -3.303   4.443  -0.640  0.00  0.00    +0.000 A 
ATOM      7  C   LIG    1       -1.965   4.791  -0.633  0.00  0.00    +0.040 A 
ATOM      8  C   LIG    1       -1.530   5.862   0.119  0.00  0.00    +0.020 A 
ATOM      9  C   LIG    1       -2.442   6.599   0.877  0.00  0.00    -0.020 A 
ATOM     10  C   LIG    1       -3.790   6.246   0.874  0.00  0.00    +0.080 A 
BRANCH   9  11
ATOM     11  C   LIG    1       -1.978   7.748   1.685  0.00  0.00    +0.160 A 
ATOM     12  N   LIG    1       -2.738   8.486   2.421  0.00  0.00    -0.450 NA
ATOM     13  C   LIG    1       -2.170   9.499   3.096  0.00  0.00    +0.080 A 
ATOM     14  C   LIG    1       -2.777  10.441   3.955  0.00  0.00    +0.080 A 
ATOM     15  C   LIG    1       -2.032  11.405   4.563  0.00  0.00    +0.030 A 
ATOM     16  C   LIG    1       -0.662  11.482   4.353  0.00  0.00    +0.040 A 
ATOM     17  C   LIG    1       -0.042  10.577   3.521  0.00  0.00    +0.060 A 
ATOM     18  C   LIG    1       -0.787   9.584   2.889  0.00  0.00    -0.170 A 
ATOM     19  S   LIG    1       -0.310   8.297   1.785  0.00  0.00    +0.070 S 
ENDBRANCH   9  11
ENDBRANCH   3   5
BRANCH   2  20
ATOM     20  C   LIG    1       -7.971   5.377   0.320  0.00  0.00    +0.120 C 
BRANCH  20  21
ATOM     21  C   LIG    1       -8.818   6.618   0.433  0.00  0.00    -0.100 A 
ATOM     22  C   LIG    1       -9.111   7.142   1.679  0.00  0.00    +0.050 A 
ATOM     23  C   LIG    1       -9.883   8.282   1.787  0.00  0.00    +0.000 A 
ATOM     24  C   LIG    1      -10.374   8.896   0.642  0.00  0.00    +0.170 A 
ATOM     25  C   LIG    1      -10.083   8.365  -0.607  0.00  0.00    -0.030 A 
ATOM     26  C   LIG    1       -9.306   7.227  -0.708  0.00  0.00    +0.050 A 
BRANCH  24  27
ATOM     27  N   LIG    1      -11.162  10.048   0.748  0.00  0.00    -0.560 N 
ATOM     28  C   LIG    1      -11.827  10.703  -0.384  0.00  0.00    +0.260 C 
ATOM     29  C   LIG    1      -12.190  12.120   0.115  0.00  0.00    +0.060 C 
ATOM     30  C   LIG    1      -12.284  11.902   1.643  0.00  0.00    +0.070 C 
ATOM     31  C   LIG    1      -11.410  10.694   1.901  0.00  0.00    +0.510 C 
ATOM     32  O   LIG    1      -10.993  10.358   2.989  0.00  0.00    -0.510 OA
ENDBRANCH  24  27
ENDBRANCH  20  21
ENDBRANCH   2  20
TORSDOF 5
