REMARK  Name = ZINCrD000000Bgnl.0
REMARK                            x       y       z     vdW  Elec       q    Type
REMARK                         _______ _______ _______ _____ _____    ______ ____
ROOT
ATOM      1  C   LIG    1        1.075   3.727  -0.057  0.00  0.00    +0.300 C 
ENDROOT
BRANCH   1   4
ATOM      2  O   LIG    1       -1.533   3.314   0.495  0.00  0.00    -0.510 OA
ATOM      3  C   LIG    1       -0.899   3.882   1.363  0.00  0.00    +0.600 C 
ATOM      4  N   LIG    1        0.413   4.133   1.185  0.00  0.00    -0.720 N 
ATOM      5  H   LIG    1        0.920   4.583   1.880  0.00  0.00    +0.410 HD
BRANCH   3   6
ATOM      6  C   LIG    1       -1.563   4.290   2.610  0.00  0.00    -0.030 A 
ATOM      7  C   LIG    1       -2.876   4.095   2.896  0.00  0.00    +0.070 A 
ATOM      8  C   LIG    1       -3.087   4.654   4.231  0.00  0.00    -0.150 A 
ATOM      9  C   LIG    1       -4.193   4.764   5.076  0.00  0.00    +0.070 A 
ATOM     10  C   LIG    1       -4.056   5.364   6.296  0.00  0.00    -0.010 A 
ATOM     11  C   LIG    1       -2.826   5.863   6.700  0.00  0.00    +0.060 A 
ATOM     12  C   LIG    1       -1.722   5.764   5.881  0.00  0.00    +0.030 A 
ATOM     13  C   LIG    1       -1.837   5.158   4.635  0.00  0.00    +0.070 A 
ATOM     14  O   LIG    1       -0.960   4.920   3.640  0.00  0.00    -0.190 OA
ENDBRANCH   3   6
ENDBRANCH   1   4
BRANCH   1  15
ATOM     15  C   LIG    1        2.513   4.250  -0.064  0.00  0.00    +0.180 C 
BRANCH  15  16
ATOM     16  C   LIG    1        2.500   5.756  -0.051  0.00  0.00    -0.100 A 
ATOM     17  C   LIG    1        2.282   6.455  -1.224  0.00  0.00    +0.080 A 
ATOM     18  C   LIG    1        2.264   7.837  -1.213  0.00  0.00    -0.010 A 
ATOM     19  C   LIG    1        2.476   8.522  -0.028  0.00  0.00    +0.100 A 
ATOM     20  C   LIG    1        2.699   7.821   1.145  0.00  0.00    -0.010 A 
ATOM     21  F   LIG    1        2.465   9.873  -0.017  0.00  0.00    -0.140 F 
ATOM     22  C   LIG    1        2.711   6.439   1.132  0.00  0.00    +0.040 A 
ENDBRANCH  15  16
BRANCH  15  23
ATOM     23  N   LIG    1        3.200   3.776  -1.272  0.00  0.00    -0.520 NA
ATOM     24  C   LIG    1        3.164   2.309  -1.358  0.00  0.00    +0.150 C 
ATOM     25  C   LIG    1        3.837   1.862  -2.658  0.00  0.00    +0.220 C 
ATOM     26  O   LIG    1        5.172   2.374  -2.698  0.00  0.00    -0.380 OA
ATOM     27  C   LIG    1        5.245   3.800  -2.618  0.00  0.00    +0.220 C 
ATOM     28  C   LIG    1        4.585   4.266  -1.317  0.00  0.00    +0.160 C 
ENDBRANCH  15  23
ENDBRANCH   1  15
TORSDOF 5
