REMARK  Name = ZINCqH0000003SoP.0
REMARK                            x       y       z     vdW  Elec       q    Type
REMARK                         _______ _______ _______ _____ _____    ______ ____
ROOT
ATOM      1  C   LIG    1       -2.742  -0.926   7.388  0.00  0.00    +0.520 C 
ATOM      2  N   LIG    1       -3.348   0.257   7.165  0.00  0.00    -0.670 N 
ATOM      3  H   LIG    1       -3.786   0.723   7.895  0.00  0.00    +0.410 HD
ATOM      4  O   LIG    1       -2.113  -1.462   6.500  0.00  0.00    -0.510 OA
ENDROOT
BRANCH   1   8
ATOM      5  N   LIG    1       -1.776  -2.645  11.134  0.00  0.00    -1.000 NA
ATOM      6  C   LIG    1       -2.209  -3.585  10.091  0.00  0.00    +0.300 C 
ATOM      7  C   LIG    1       -2.073  -2.904   8.726  0.00  0.00    +0.050 C 
ATOM      8  C   LIG    1       -2.845  -1.582   8.741  0.00  0.00    +0.010 C 
ATOM      9  C   LIG    1       -2.252  -0.655   9.804  0.00  0.00    +0.030 C 
ATOM     10  C   LIG    1       -2.390  -1.311  11.182  0.00  0.00    +0.300 C 
BRANCH   5  11
ATOM     11  S   LIG    1       -0.617  -3.081  12.234  0.00  0.00    +2.610 S 
ATOM     12  O   LIG    1       -0.714  -4.497  12.303  0.00  0.00    -0.950 OA
ATOM     13  O   LIG    1       -0.891  -2.272  13.370  0.00  0.00    -0.950 OA
BRANCH  11  15
ATOM     14  C   LIG    1        2.110  -2.941  12.393  0.00  0.00    +0.070 C 
ATOM     15  C   LIG    1        0.948  -2.586  11.463  0.00  0.00    -0.370 C 
ENDBRANCH  11  15
ENDBRANCH   5  11
ENDBRANCH   1   8
BRANCH   2  16
ATOM     16  C   LIG    1       -3.346   0.815   5.880  0.00  0.00    +0.140 A 
ATOM     17  C   LIG    1       -3.304   2.194   5.721  0.00  0.00    +0.000 A 
ATOM     18  C   LIG    1       -3.303   2.743   4.455  0.00  0.00    +0.050 A 
ATOM     19  C   LIG    1       -3.343   1.916   3.339  0.00  0.00    -0.090 A 
ATOM     20  C   LIG    1       -3.390   0.537   3.498  0.00  0.00    +0.010 A 
ATOM     21  C   LIG    1       -3.386  -0.012   4.765  0.00  0.00    +0.040 A 
BRANCH  19  22
ATOM     22  S   LIG    1       -3.342   2.617   1.722  0.00  0.00    -0.110 S 
BRANCH  22  23
ATOM     23  C   LIG    1       -3.402   1.159   0.645  0.00  0.00    +0.020 C 
ATOM     24  C   LIG    1       -2.058   0.384   0.701  0.00  0.00    +0.030 C 
ATOM     25  C   LIG    1       -2.058  -0.389  -0.642  0.00  0.00    +0.020 C 
ATOM     26  C   LIG    1       -2.680   0.600  -1.651  0.00  0.00    +0.020 C 
ATOM     27  C   LIG    1       -3.534   1.583  -0.832  0.00  0.00    +0.050 C 
ENDBRANCH  22  23
ENDBRANCH  19  22
ENDBRANCH   2  16
TORSDOF 6
