REMARK  Name = ZINCrH00000tj15u.0
REMARK                            x       y       z     vdW  Elec       q    Type
REMARK                         _______ _______ _______ _____ _____    ______ ____
ROOT
ATOM      1  C   LIG    1       -1.203   1.754  -0.131  0.00  0.00    -0.120 A 
ATOM      2  C   LIG    1       -1.224   3.150  -0.127  0.00  0.00    +0.100 A 
ATOM      3  C   LIG    1       -0.045   3.862   0.035  0.00  0.00    +0.140 A 
ATOM      4  C   LIG    1        1.158   3.191   0.198  0.00  0.00    +0.150 A 
ATOM      5  C   LIG    1        1.185   1.795   0.202  0.00  0.00    -0.120 A 
ATOM      6  C   LIG    1        0.003   1.076   0.040  0.00  0.00    +0.140 A 
ENDROOT
BRANCH   1   7
ATOM      7  C   LIG    1       -2.459   0.995  -0.308  0.00  0.00    +0.510 C 
ATOM      8  O   LIG    1       -3.510   1.586  -0.457  0.00  0.00    -0.500 OA
BRANCH   7   9
ATOM      9  O   LIG    1       -2.439  -0.352  -0.306  0.00  0.00    -0.350 OA
BRANCH   9  11
ATOM     10  C   LIG    1       -3.488  -2.544  -0.455  0.00  0.00    +0.070 C 
ATOM     11  C   LIG    1       -3.709  -1.031  -0.486  0.00  0.00    +0.200 C 
ENDBRANCH   9  11
ENDBRANCH   7   9
ENDBRANCH   1   7
BRANCH   5  12
ATOM     12  C   LIG    1        2.467   1.081   0.377  0.00  0.00    +0.510 C 
ATOM     13  O   LIG    1        3.498   1.709   0.518  0.00  0.00    -0.500 OA
BRANCH  12  14
ATOM     14  O   LIG    1        2.493  -0.266   0.381  0.00  0.00    -0.350 OA
BRANCH  14  15
ATOM     15  C   LIG    1        3.787  -0.900   0.558  0.00  0.00    +0.200 C 
ATOM     16  C   LIG    1        3.617  -2.420   0.534  0.00  0.00    +0.070 C 
ENDBRANCH  14  15
ENDBRANCH  12  14
ENDBRANCH   5  12
BRANCH   3  17
ATOM     17  N   LIG    1       -0.069   5.261   0.032  0.00  0.00    -0.640 N 
ATOM     18  H   LIG    1       -0.837   5.733   0.390  0.00  0.00    +0.430 HD
BRANCH  17  19
ATOM     19  C   LIG    1        0.999   5.968  -0.479  0.00  0.00    +0.460 A 
ATOM     20  N   LIG    1        2.011   5.344  -1.067  0.00  0.00    -0.580 NA
ATOM     21  C   LIG    1        3.039   6.011  -1.565  0.00  0.00    +0.550 A 
ATOM     22  N   LIG    1        3.138   7.318  -1.508  0.00  0.00    -0.540 NA
ATOM     23  C   LIG    1        2.172   8.048  -0.930  0.00  0.00    +0.190 A 
ATOM     24  C   LIG    1        2.245   9.445  -0.851  0.00  0.00    +0.030 A 
ATOM     25  C   LIG    1        1.235  10.139  -0.252  0.00  0.00    +0.070 A 
ATOM     26  C   LIG    1        0.131   9.481   0.282  0.00  0.00    +0.000 A 
ATOM     27  C   LIG    1        0.029   8.122   0.221  0.00  0.00    +0.050 A 
ATOM     28  C   LIG    1        1.048   7.381  -0.386  0.00  0.00    -0.190 A 
ENDBRANCH  17  19
ENDBRANCH   3  17
TORSDOF 8
