REMARK  Name = ZINCrH000004oJ81.0
REMARK                            x       y       z     vdW  Elec       q    Type
REMARK                         _______ _______ _______ _____ _____    ______ ____
ROOT
ATOM      1  C   LIG    1        4.543  -5.760   0.835  0.00  0.00    -0.050 A 
ATOM      2  C   LIG    1        4.871  -5.375  -0.453  0.00  0.00    +0.010 A 
ATOM      3  C   LIG    1        4.313  -4.239  -1.000  0.00  0.00    +0.080 A 
ATOM      4  C   LIG    1        3.415  -3.476  -0.252  0.00  0.00    -0.140 A 
ATOM      5  C   LIG    1        3.091  -3.867   1.048  0.00  0.00    +0.050 A 
ATOM      6  C   LIG    1        3.653  -5.008   1.582  0.00  0.00    +0.030 A 
ENDROOT
BRANCH   4   7
ATOM      7  C   LIG    1        2.814  -2.256  -0.832  0.00  0.00    +0.560 C 
ATOM      8  N   LIG    1        1.947  -1.522  -0.107  0.00  0.00    -0.720 N 
ATOM      9  H   LIG    1        1.717  -1.794   0.795  0.00  0.00    +0.400 HD
ATOM     10  O   LIG    1        3.101  -1.916  -1.963  0.00  0.00    -0.530 OA
BRANCH   8  11
ATOM     11  C   LIG    1        1.351  -0.313  -0.682  0.00  0.00    +0.290 C 
ATOM     12  C   LIG    1        0.002  -0.004   0.002  0.00  0.00    +0.050 C 
ATOM     13  C   LIG    1       -0.019   1.539   0.011  0.00  0.00    +0.090 C 
ATOM     14  C   LIG    1        1.437   1.955  -0.001  0.00  0.00    -0.090 A 
ATOM     15  C   LIG    1        2.025   3.168   0.312  0.00  0.00    +0.010 A 
ATOM     16  C   LIG    1        3.396   3.318   0.228  0.00  0.00    +0.010 A 
ATOM     17  C   LIG    1        4.183   2.254  -0.170  0.00  0.00    +0.000 A 
ATOM     18  C   LIG    1        3.597   1.043  -0.483  0.00  0.00    +0.030 A 
ATOM     19  C   LIG    1        2.224   0.890  -0.399  0.00  0.00    -0.110 A 
ENDBRANCH   8  11
ENDBRANCH   4   7
BRANCH   1  20
ATOM     20  C   LIG    1        5.157  -7.002   1.426  0.00  0.00    +0.230 C 
BRANCH  20  24
ATOM     21  C   LIG    1        8.756  -8.556   4.402  0.00  0.00    +0.050 C 
ATOM     22  C   LIG    1        8.181  -7.358   3.643  0.00  0.00    +0.160 C 
ATOM     23  C   LIG    1        6.912  -7.785   2.900  0.00  0.00    +0.150 C 
ATOM     24  N   LIG    1        6.407  -6.651   2.112  0.00  0.00    -0.530 NA
ATOM     25  C   LIG    1        7.422  -6.190   1.154  0.00  0.00    +0.150 C 
ATOM     26  C   LIG    1        8.686  -5.779   1.915  0.00  0.00    +0.200 C 
ATOM     27  C   LIG    1        8.368  -4.597   2.833  0.00  0.00    +0.010 C 
ATOM     28  O   LIG    1        9.144  -6.884   2.699  0.00  0.00    -0.380 OA
ENDBRANCH  20  24
ENDBRANCH   1  20
TORSDOF 4
