REMARK  Name = ZINCrD00000leM0y.0
REMARK                            x       y       z     vdW  Elec       q    Type
REMARK                         _______ _______ _______ _____ _____    ______ ____
ROOT
ATOM      1  C   LIG    1        2.416   4.211   0.001  0.00  0.00    +0.560 C 
ATOM      2  N   LIG    1        2.392   5.558   0.008  0.00  0.00    -0.720 N 
ATOM      3  H   LIG    1        1.543   6.028   0.018  0.00  0.00    +0.400 HD
ATOM      4  O   LIG    1        3.480   3.622  -0.013  0.00  0.00    -0.530 OA
ENDROOT
BRANCH   1   8
ATOM      5  C   LIG    1       -1.226   2.022   0.019  0.00  0.00    -0.100 A 
ATOM      6  C   LIG    1       -1.253   3.405   0.031  0.00  0.00    +0.080 A 
ATOM      7  C   LIG    1       -0.073   4.121   0.024  0.00  0.00    +0.030 A 
ATOM      8  C   LIG    1        1.149   3.448   0.009  0.00  0.00    -0.110 A 
ATOM      9  C   LIG    1        1.171   2.053   0.002  0.00  0.00    +0.060 A 
ATOM     10  C   LIG    1       -0.016   1.347   0.009  0.00  0.00    +0.100 A 
ATOM     11  F   LIG    1        0.002  -0.004   0.002  0.00  0.00    -0.130 F 
BRANCH   5  12
ATOM     12  C   LIG    1       -2.519   1.247   0.021  0.00  0.00    +0.240 C 
BRANCH  12  14
ATOM     13  C   LIG    1       -4.900   1.521   0.034  0.00  0.00    +0.220 C 
ATOM     14  O   LIG    1       -3.620   2.158   0.031  0.00  0.00    -0.390 OA
ENDBRANCH  12  14
ENDBRANCH   5  12
ENDBRANCH   1   8
BRANCH   2  15
ATOM     15  C   LIG    1        3.647   6.314  -0.001  0.00  0.00    +0.290 C 
ATOM     16  C   LIG    1        4.135   6.476  -1.442  0.00  0.00    +0.040 C 
BRANCH  15  17
ATOM     17  C   LIG    1        3.419   7.673   0.609  0.00  0.00    -0.080 A 
ATOM     18  C   LIG    1        2.261   8.372   0.327  0.00  0.00    +0.020 A 
ATOM     19  C   LIG    1        2.051   9.616   0.890  0.00  0.00    +0.040 A 
ATOM     20  C   LIG    1        3.004  10.169   1.728  0.00  0.00    -0.110 A 
ATOM     21  C   LIG    1        3.039  11.485   2.461  0.00  0.00    +0.330 C 
ATOM     22  N   LIG    1        4.300  11.547   3.207  0.00  0.00    -0.620 N 
ATOM     23  C   LIG    1        5.017  10.298   2.935  0.00  0.00    +0.330 C 
ATOM     24  C   LIG    1        4.719  12.559   3.993  0.00  0.00    +0.530 C 
ATOM     25  O   LIG    1        5.790  12.485   4.558  0.00  0.00    -0.540 OA
ATOM     26  C   LIG    1        3.858  13.783   4.169  0.00  0.00    +0.110 C 
ATOM     27  C   LIG    1        4.164   9.472   2.006  0.00  0.00    -0.100 A 
ATOM     28  C   LIG    1        4.371   8.224   1.446  0.00  0.00    +0.050 A 
ENDBRANCH  15  17
ENDBRANCH   2  15
TORSDOF 5
