REMARK  Name = ZINCtV000002HSGL.0
REMARK                            x       y       z     vdW  Elec       q    Type
REMARK                         _______ _______ _______ _____ _____    ______ ____
ROOT
ATOM      1  C   LIG    1       -2.589  -4.364   0.212  0.00  0.00    +0.180 A 
ATOM      2  N   LIG    1       -1.365  -4.733   0.518  0.00  0.00    -0.490 NA
ATOM      3  C   LIG    1       -1.348  -6.043   0.796  0.00  0.00    +0.200 A 
ATOM      4  C   LIG    1       -2.610  -6.524   0.653  0.00  0.00    +0.010 A 
ATOM      5  N   LIG    1       -3.403  -5.453   0.281  0.00  0.00    -0.430 N 
ENDROOT
BRANCH   4   6
ATOM      6  C   LIG    1       -3.051  -7.920   0.857  0.00  0.00    +0.010 A 
ATOM      7  C   LIG    1       -2.268  -8.800   1.607  0.00  0.00    +0.040 A 
ATOM      8  C   LIG    1       -2.688 -10.100   1.798  0.00  0.00    +0.060 A 
ATOM      9  C   LIG    1       -3.877 -10.536   1.238  0.00  0.00    -0.090 A 
ATOM     10  C   LIG    1       -4.655  -9.670   0.489  0.00  0.00    +0.060 A 
ATOM     11 BR   LIG    1       -4.442 -12.322   1.500  0.00  0.00    -0.050 Br
ATOM     12  C   LIG    1       -4.249  -8.366   0.295  0.00  0.00    +0.010 A 
ENDBRANCH   4   6
BRANCH   1  13
ATOM     13  S   LIG    1       -3.091  -2.731  -0.221  0.00  0.00    +0.070 S 
BRANCH  13  14
ATOM     14  C   LIG    1       -1.504  -1.870  -0.093  0.00  0.00    +0.110 C 
BRANCH  14  17
ATOM     15  N   LIG    1       -0.642   0.428  -0.402  0.00  0.00    -0.670 N 
ATOM     16  H   LIG    1        0.249   0.085  -0.229  0.00  0.00    +0.410 HD
ATOM     17  C   LIG    1       -1.694  -0.413  -0.430  0.00  0.00    +0.530 C 
ATOM     18  O   LIG    1       -2.795   0.002  -0.728  0.00  0.00    -0.500 OA
BRANCH  15  23
ATOM     19  C   LIG    1       -1.420   5.977  -1.291  0.00  0.00    +0.090 C 
ATOM     20  C   LIG    1       -1.214   4.503  -1.054  0.00  0.00    -0.100 A 
ATOM     21  C   LIG    1       -1.983   3.580  -1.738  0.00  0.00    +0.030 A 
ATOM     22  C   LIG    1       -1.793   2.228  -1.528  0.00  0.00    +0.020 A 
ATOM     23  C   LIG    1       -0.834   1.797  -0.620  0.00  0.00    +0.140 A 
ATOM     24  C   LIG    1       -0.063   2.726   0.065  0.00  0.00    -0.010 A 
ATOM     25  C   LIG    1       -0.255   4.076  -0.153  0.00  0.00    -0.070 A 
ATOM     26  C   LIG    1        0.582   5.085   0.590  0.00  0.00    +0.090 C 
ENDBRANCH  15  23
ENDBRANCH  14  17
ENDBRANCH  13  14
ENDBRANCH   1  13
BRANCH   5  27
ATOM     27  C   LIG    1       -4.843  -5.484   0.010  0.00  0.00    +0.290 C 
BRANCH  27  28
ATOM     28  C   LIG    1       -5.076  -5.689  -1.488  0.00  0.00    -0.040 C 
ATOM     29  C   LIG    1       -4.526  -4.486  -2.258  0.00  0.00    +0.030 C 
ATOM     30  C   LIG    1       -6.576  -5.824  -1.757  0.00  0.00    +0.040 C 
ENDBRANCH  27  28
ENDBRANCH   5  27
TORSDOF 7
