REMARK  Name = ZINCrD000000AU2V.0
REMARK                            x       y       z     vdW  Elec       q    Type
REMARK                         _______ _______ _______ _____ _____    ______ ____
ROOT
ATOM      1  C   LIG    1       -0.878   3.105   1.196  0.00  0.00    -0.010 C 
ATOM      2  C   LIG    1       -0.736   1.583   1.264  0.00  0.00    +0.020 C 
ATOM      3  C   LIG    1       -0.013   1.086   0.008  0.00  0.00    +0.300 C 
ATOM      4  N   LIG    1       -0.729   1.575  -1.178  0.00  0.00    -0.990 NA
ATOM      5  C   LIG    1       -0.997   3.015  -1.297  0.00  0.00    +0.300 C 
ATOM      6  C   LIG    1       -1.712   3.490  -0.028  0.00  0.00    +0.040 C 
ENDROOT
BRANCH   1   8
ATOM      7  O   LIG    1       -2.612   4.202   2.363  0.00  0.00    -0.540 OA
ATOM      8  C   LIG    1       -1.562   3.601   2.445  0.00  0.00    +0.520 C 
ATOM      9  N   LIG    1       -1.007   3.376   3.652  0.00  0.00    -0.730 N 
ATOM     10  H   LIG    1       -0.167   2.894   3.717  0.00  0.00    +0.400 HD
BRANCH   9  11
ATOM     11  C   LIG    1       -1.671   3.857   4.865  0.00  0.00    +0.260 C 
BRANCH  11  12
ATOM     12  C   LIG    1       -0.839   3.473   6.090  0.00  0.00    +0.010 C 
BRANCH  12  13
ATOM     13  C   LIG    1       -1.533   3.976   7.357  0.00  0.00    +0.030 C 
BRANCH  13  14
ATOM     14  C   LIG    1       -0.700   3.591   8.582  0.00  0.00    -0.020 C 
ATOM     15  C   LIG    1       -0.700   2.059   8.760  0.00  0.00    +0.010 C 
ATOM     16  C   LIG    1       -0.746   1.857  10.296  0.00  0.00    +0.000 C 
ATOM     17  C   LIG    1       -1.692   2.990  10.763  0.00  0.00    -0.010 C 
ATOM     18  C   LIG    1       -1.330   4.183   9.854  0.00  0.00    +0.000 C 
ENDBRANCH  13  14
ENDBRANCH  12  13
ENDBRANCH  11  12
ENDBRANCH   9  11
ENDBRANCH   1   8
BRANCH   4  19
ATOM     19  S   LIG    1       -1.225   0.524  -2.357  0.00  0.00    +2.690 S 
ATOM     20  O   LIG    1       -0.385  -0.617  -2.257  0.00  0.00    -0.940 OA
ATOM     21  O   LIG    1       -1.357   1.290  -3.547  0.00  0.00    -0.950 OA
BRANCH  19  22
ATOM     22  C   LIG    1       -2.847  -0.013  -1.929  0.00  0.00    -0.720 A 
ATOM     23  C   LIG    1       -3.921   0.320  -2.733  0.00  0.00    +0.150 A 
ATOM     24  C   LIG    1       -5.193  -0.106  -2.399  0.00  0.00    -0.010 A 
ATOM     25  C   LIG    1       -5.395  -0.856  -1.256  0.00  0.00    +0.100 A 
ATOM     26  C   LIG    1       -4.323  -1.186  -0.448  0.00  0.00    -0.020 A 
ATOM     27  C   LIG    1       -3.048  -0.764  -0.783  0.00  0.00    +0.190 A 
ATOM     28  F   LIG    1       -2.000  -1.086   0.007  0.00  0.00    -0.120 F 
ENDBRANCH  19  22
ENDBRANCH   4  19
TORSDOF 7
