REMARK  Name = ZINCpk00000ebcHu.0
REMARK                            x       y       z     vdW  Elec       q    Type
REMARK                         _______ _______ _______ _____ _____    ______ ____
ROOT
ATOM      1  N   LIG    1        1.804  -6.252   2.208  0.00  0.00    -0.530 NA
ATOM      2  C   LIG    1        0.761  -5.468   2.884  0.00  0.00    +0.180 C 
ATOM      3  C   LIG    1       -0.055  -4.701   1.839  0.00  0.00    +0.300 C 
ATOM      4  N   LIG    1        0.871  -3.918   1.006  0.00  0.00    -0.600 N 
ATOM      5  C   LIG    1        2.017  -4.611   0.400  0.00  0.00    +0.290 C 
ATOM      6  C   LIG    1        0.670  -2.601   0.799  0.00  0.00    +0.510 C 
ATOM      7  O   LIG    1       -0.329  -2.065   1.230  0.00  0.00    -0.510 OA
ATOM      8  C   LIG    1        2.755  -5.380   1.507  0.00  0.00    +0.170 C 
ENDROOT
BRANCH   1   9
ATOM      9  C   LIG    1        2.497  -7.134   3.156  0.00  0.00    +0.280 C 
BRANCH   9  16
ATOM     10  C   LIG    1        5.514  -5.942   3.081  0.00  0.00    +0.160 C 
ATOM     11  C   LIG    1        5.025  -7.222   2.453  0.00  0.00    +0.030 A 
ATOM     12  N   LIG    1        5.732  -8.075   1.769  0.00  0.00    -0.360 NA
ATOM     13  O   LIG    1        5.062  -9.008   1.392  0.00  0.00    +0.100 OA
ATOM     14  C   LIG    1        3.788  -8.893   1.794  0.00  0.00    -0.010 A 
ATOM     15  C   LIG    1        2.666  -9.862   1.522  0.00  0.00    +0.190 C 
ATOM     16  C   LIG    1        3.708  -7.734   2.490  0.00  0.00    -0.210 A 
ENDBRANCH   9  16
ENDBRANCH   1   9
BRANCH   6  17
ATOM     17  C   LIG    1        1.687  -1.795   0.033  0.00  0.00    +0.270 C 
BRANCH  17  18
ATOM     18  N   LIG    1        2.745  -1.351   0.944  0.00  0.00    -0.370 N 
ATOM     19  C   LIG    1        2.602  -0.997   2.233  0.00  0.00    +0.470 A 
ATOM     20  N   LIG    1        3.780  -0.665   2.695  0.00  0.00    -0.540 NA
ATOM     21  C   LIG    1        4.695  -0.793   1.735  0.00  0.00    +0.420 A 
ATOM     22  N   LIG    1        4.110  -1.210   0.644  0.00  0.00    -0.310 NA
ENDBRANCH  17  18
BRANCH  17  23
ATOM     23  C   LIG    1        1.006  -0.575  -0.591  0.00  0.00    +0.000 C 
ATOM     24  C   LIG    1       -0.011  -1.038  -1.636  0.00  0.00    +0.040 C 
ATOM     25  C   LIG    1        2.059   0.310  -1.261  0.00  0.00    +0.040 C 
ENDBRANCH  17  23
ENDBRANCH   6  17
TORSDOF 5
