REMARK  Name = ZINCqH0000004NqZ.0
REMARK                            x       y       z     vdW  Elec       q    Type
REMARK                         _______ _______ _______ _____ _____    ______ ____
ROOT
ATOM      1  C   LIG    1        5.320   2.015  -1.460  0.00  0.00    +0.490 C 
ATOM      2  N   LIG    1        6.625   1.800  -1.721  0.00  0.00    -0.660 N 
ATOM      3  H   LIG    1        7.266   1.766  -0.993  0.00  0.00    +0.420 HD
ATOM      4  O   LIG    1        4.535   2.157  -2.373  0.00  0.00    -0.490 OA
ENDROOT
BRANCH   2   5
ATOM      5  C   LIG    1        7.056   1.625  -3.043  0.00  0.00    +0.180 A 
ATOM      6  C   LIG    1        6.171   1.164  -4.006  0.00  0.00    +0.050 A 
ATOM      7  C   LIG    1        6.596   0.996  -5.315  0.00  0.00    +0.090 A 
ATOM      8  C   LIG    1        7.911   1.282  -5.659  0.00  0.00    +0.040 A 
ATOM      9  O   LIG    1        8.346   1.127  -6.940  0.00  0.00    -0.300 OA
ATOM     10  C   LIG    1        7.537   0.319  -7.801  0.00  0.00    +0.230 C 
ATOM     11  C   LIG    1        6.072   0.743  -7.621  0.00  0.00    +0.230 C 
ATOM     12  C   LIG    1        8.796   1.737  -4.692  0.00  0.00    +0.090 A 
ATOM     13  O   LIG    1        5.714   0.544  -6.250  0.00  0.00    -0.300 OA
ATOM     14  C   LIG    1        8.371   1.909  -3.388  0.00  0.00    -0.120 A 
ATOM     15 BR   LIG    1        9.581   2.530  -2.074  0.00  0.00    -0.030 Br
ENDBRANCH   2   5
BRANCH   1  16
ATOM     16  C   LIG    1        4.838   2.078  -0.034  0.00  0.00    +0.350 C 
BRANCH  16  25
ATOM     17  C   LIG    1        2.778   3.533   0.003  0.00  0.00    +0.300 A 
ATOM     18  N   LIG    1        1.486   3.380   0.012  0.00  0.00    -0.490 NA
ATOM     19  C   LIG    1        1.183   2.056  -0.002  0.00  0.00    +0.050 A 
ATOM     20  C   LIG    1       -0.018   1.343  -0.002  0.00  0.00    +0.070 A 
ATOM     21  C   LIG    1        0.002  -0.024  -0.020  0.00  0.00    +0.000 A 
ATOM     22  C   LIG    1        1.205  -0.714  -0.040  0.00  0.00    +0.030 A 
ATOM     23  C   LIG    1        2.403  -0.030  -0.041  0.00  0.00    +0.010 A 
ATOM     24  C   LIG    1        2.402   1.358  -0.022  0.00  0.00    +0.060 A 
ATOM     25  N   LIG    1        3.393   2.319  -0.018  0.00  0.00    -0.480 N 
BRANCH  17  27
ATOM     26  C   LIG    1        3.743   5.292   1.460  0.00  0.00    +0.040 C 
ATOM     27  C   LIG    1        3.490   4.861   0.014  0.00  0.00    +0.130 C 
ENDBRANCH  17  27
ENDBRANCH  16  25
ENDBRANCH   1  16
TORSDOF 4
