REMARK  Name = ZINCb80000003WvX.0
REMARK                            x       y       z     vdW  Elec       q    Type
REMARK                         _______ _______ _______ _____ _____    ______ ____
ROOT
ATOM      1  O   LIG    1       -0.686   6.111   0.446  0.00  0.00    -0.470 OA
ATOM      2  C   LIG    1        0.154   5.242   0.351  0.00  0.00    +0.540 C 
ATOM      3  N   LIG    1        1.472   5.410   0.066  0.00  0.00    -0.700 N 
ATOM      4  H   LIG    1        1.913   6.273   0.077  0.00  0.00    +0.420 HD
ATOM      5  C   LIG    1        2.111   4.250  -0.237  0.00  0.00    +0.540 C 
ATOM      6  C   LIG    1        1.041   3.222  -0.444  0.00  0.00    +0.000 C 
ATOM      7  C   LIG    1        1.317   1.801  -0.001  0.00  0.00    +0.110 C 
ATOM      8  C   LIG    1       -0.013   1.076   0.008  0.00  0.00    -0.040 C 
ATOM      9  C   LIG    1       -1.169   1.666   0.017  0.00  0.00    -0.040 C 
ATOM     10  C   LIG    1       -1.362   3.168   0.057  0.00  0.00    +0.110 C 
ATOM     11  O   LIG    1        3.309   4.081  -0.323  0.00  0.00    -0.470 OA
ATOM     12  C   LIG    1       -0.053   3.768   0.525  0.00  0.00    +0.000 C 
ENDROOT
TORSDOF 0
