REMARK  Name = ZINCpk000005PlfZ.0
REMARK                            x       y       z     vdW  Elec       q    Type
REMARK                         _______ _______ _______ _____ _____    ______ ____
ROOT
ATOM      1  N   LIG    1        1.941  -0.313  -1.235  0.00  0.00    -0.480 N 
ATOM      2  C   LIG    1        1.504   1.091  -1.226  0.00  0.00    +0.170 C 
ATOM      3  C   LIG    1        0.665   1.351   0.028  0.00  0.00    +0.240 C 
ATOM      4  O   LIG    1       -0.438   0.441   0.055  0.00  0.00    -0.370 OA
ATOM      5  C   LIG    1       -0.049  -0.935   0.048  0.00  0.00    +0.170 C 
ATOM      6  C   LIG    1        0.783  -1.218  -1.206  0.00  0.00    +0.190 C 
ENDROOT
BRANCH   1  14
ATOM      7  C   LIG    1        4.648  -1.161  -0.770  0.00  0.00    +0.120 C 
ATOM      8  C   LIG    1        4.071  -0.989  -2.152  0.00  0.00    -0.170 A 
ATOM      9  C   LIG    1        4.834  -1.242  -3.274  0.00  0.00    +0.320 A 
ATOM     10  N   LIG    1        4.295  -1.076  -4.474  0.00  0.00    -0.520 NA
ATOM     11  C   LIG    1        3.046  -0.679  -4.608  0.00  0.00    +0.320 A 
ATOM     12  N   LIG    1        2.280  -0.431  -3.565  0.00  0.00    -0.540 NA
ATOM     13  C   LIG    1        2.478  -0.503  -5.993  0.00  0.00    +0.170 C 
ATOM     14  C   LIG    1        2.749  -0.575  -2.329  0.00  0.00    +0.340 A 
ENDBRANCH   1  14
BRANCH   5  15
ATOM     15  C   LIG    1       -1.298  -1.819   0.043  0.00  0.00    +0.300 C 
BRANCH  15  16
ATOM     16  N   LIG    1       -2.096  -1.543   1.240  0.00  0.00    -0.720 N 
ATOM     17  H   LIG    1       -1.794  -0.881   1.882  0.00  0.00    +0.400 HD
ATOM     18  C   LIG    1       -3.248  -2.209   1.450  0.00  0.00    +0.510 C 
ATOM     19  O   LIG    1       -3.626  -3.036   0.647  0.00  0.00    -0.520 OA
BRANCH  18  20
ATOM     20  C   LIG    1       -4.069  -1.925   2.682  0.00  0.00    +0.160 C 
ATOM     21  C   LIG    1       -4.590  -0.488   2.627  0.00  0.00    +0.040 C 
BRANCH  20  22
ATOM     22  O   LIG    1       -5.174  -2.830   2.737  0.00  0.00    -0.350 OA
BRANCH  22  23
ATOM     23  C   LIG    1       -5.604  -3.142   4.064  0.00  0.00    +0.160 C 
BRANCH  23  24
ATOM     24  C   LIG    1       -6.784  -4.114   4.002  0.00  0.00    -0.020 C 
ATOM     25  C   LIG    1       -7.979  -3.423   3.341  0.00  0.00    +0.010 C 
ATOM     26  C   LIG    1       -7.164  -4.545   5.420  0.00  0.00    +0.030 C 
ENDBRANCH  23  24
ENDBRANCH  22  23
ENDBRANCH  20  22
ENDBRANCH  18  20
ENDBRANCH  15  16
ENDBRANCH   5  15
TORSDOF 7
