REMARK  Name = ZINCrH000004kZmv.0
REMARK                            x       y       z     vdW  Elec       q    Type
REMARK                         _______ _______ _______ _____ _____    ______ ____
ROOT
ATOM      1  N   LIG    1        2.030  -2.246  -0.918  0.00  0.00    -1.110 NA
ATOM      2  H   LIG    1        1.344  -2.844  -0.583  0.00  0.00    +0.420 HD
ENDROOT
BRANCH   1   3
ATOM      3  S   LIG    1        2.529  -2.358  -2.493  0.00  0.00    +2.690 S 
ATOM      4  O   LIG    1        2.511  -1.036  -3.014  0.00  0.00    -0.930 OA
ATOM      5  O   LIG    1        1.798  -3.431  -3.070  0.00  0.00    -0.940 OA
BRANCH   3   9
ATOM      6  C   LIG    1        6.871  -3.652  -2.436  0.00  0.00    -0.070 A 
ATOM      7  C   LIG    1        5.855  -4.609  -2.472  0.00  0.00    +0.080 A 
ATOM      8  C   LIG    1        4.535  -4.208  -2.489  0.00  0.00    +0.120 A 
ATOM      9  C   LIG    1        4.218  -2.861  -2.470  0.00  0.00    -0.650 A 
ATOM     10  C   LIG    1        5.220  -1.908  -2.441  0.00  0.00    +0.110 A 
ATOM     11  C   LIG    1        6.544  -2.295  -2.417  0.00  0.00    +0.070 A 
BRANCH   6  12
ATOM     12  C   LIG    1        8.287  -4.074  -2.418  0.00  0.00    +0.500 C 
ATOM     13  O   LIG    1        8.569  -5.256  -2.435  0.00  0.00    -0.490 OA
BRANCH  12  15
ATOM     14  C   LIG    1       10.633  -3.636  -2.368  0.00  0.00    +0.290 C 
ATOM     15  O   LIG    1        9.265  -3.149  -2.384  0.00  0.00    -0.350 OA
ENDBRANCH  12  15
ENDBRANCH   6  12
ENDBRANCH   3   9
ENDBRANCH   1   3
BRANCH   1  16
ATOM     16  C   LIG    1        2.625  -1.244  -0.030  0.00  0.00    +0.390 C 
BRANCH  16  17
ATOM     17  C   LIG    1        2.725  -1.805   1.365  0.00  0.00    -0.100 A 
ATOM     18  C   LIG    1        1.694  -2.569   1.878  0.00  0.00    +0.060 A 
ATOM     19  C   LIG    1        1.787  -3.088   3.155  0.00  0.00    -0.010 A 
ATOM     20  C   LIG    1        2.909  -2.834   3.925  0.00  0.00    +0.110 A 
ATOM     21  C   LIG    1        3.939  -2.064   3.413  0.00  0.00    -0.010 A 
ATOM     22  F   LIG    1        2.999  -3.337   5.176  0.00  0.00    -0.140 F 
ATOM     23  C   LIG    1        3.846  -1.550   2.133  0.00  0.00    +0.070 A 
ENDBRANCH  16  17
BRANCH  16  24
ATOM     24  C   LIG    1        1.761  -0.010  -0.015  0.00  0.00    -0.200 A 
ATOM     25  C   LIG    1        2.212   1.245  -0.012  0.00  0.00    +0.030 A 
ATOM     26  C   LIG    1        1.229   2.219   0.002  0.00  0.00    +0.010 A 
ATOM     27  C   LIG    1       -0.022   1.755   0.012  0.00  0.00    -0.040 A 
ATOM     28  S   LIG    1        0.002  -0.004   0.002  0.00  0.00    +0.110 S 
ENDBRANCH  16  24
ENDBRANCH   1  16
TORSDOF 7
