REMARK  Name = ZINCrH000004r5fx.0
REMARK                            x       y       z     vdW  Elec       q    Type
REMARK                         _______ _______ _______ _____ _____    ______ ____
ROOT
ATOM      1  C   LIG    1       -2.522   0.987   1.433  0.00  0.00    +0.100 C 
ATOM      2  C   LIG    1       -1.583   1.914   2.161  0.00  0.00    +0.050 A 
ATOM      3  C   LIG    1       -1.919   2.391   3.415  0.00  0.00    -0.010 A 
ATOM      4  C   LIG    1       -1.063   3.241   4.086  0.00  0.00    +0.100 A 
ATOM      5  C   LIG    1        0.144   3.618   3.497  0.00  0.00    -0.160 A 
ATOM      6  C   LIG    1        0.480   3.130   2.233  0.00  0.00    +0.200 A 
ATOM      7  C   LIG    1       -0.387   2.286   1.570  0.00  0.00    -0.690 A 
ENDROOT
BRANCH   5   8
ATOM      8  C   LIG    1        1.066   4.528   4.210  0.00  0.00    +0.560 C 
ATOM      9  N   LIG    1        0.741   4.994   5.432  0.00  0.00    -0.720 N 
ATOM     10  H   LIG    1       -0.098   4.733   5.844  0.00  0.00    +0.400 HD
ATOM     11  O   LIG    1        2.116   4.855   3.694  0.00  0.00    -0.530 OA
BRANCH   9  12
ATOM     12  C   LIG    1        1.654   5.895   6.139  0.00  0.00    +0.250 C 
ATOM     13  C   LIG    1        2.701   5.072   6.892  0.00  0.00    +0.000 C 
ATOM     14  C   LIG    1        3.655   6.014   7.630  0.00  0.00    +0.020 C 
ATOM     15  C   LIG    1        2.863   6.865   8.625  0.00  0.00    +0.010 C 
ATOM     16  C   LIG    1        1.816   7.688   7.872  0.00  0.00    +0.000 C 
ATOM     17  C   LIG    1        2.515   8.601   6.862  0.00  0.00    +0.020 C 
ATOM     18  C   LIG    1        0.862   6.747   7.133  0.00  0.00    -0.020 C 
ATOM     19  C   LIG    1       -0.185   7.570   6.380  0.00  0.00    +0.020 C 
ENDBRANCH   9  12
ENDBRANCH   5   8
BRANCH   7  20
ATOM     20  S   LIG    1        0.032   1.673  -0.028  0.00  0.00    +2.690 S 
ATOM     21  O   LIG    1       -1.131   1.818  -0.831  0.00  0.00    -0.950 OA
ATOM     22  O   LIG    1        1.285   2.252  -0.363  0.00  0.00    -0.950 OA
BRANCH  20  23
ATOM     23  N   LIG    1        0.295   0.045   0.125  0.00  0.00    -0.990 NA
ATOM     24  C   LIG    1        1.615  -0.467   0.518  0.00  0.00    +0.290 C 
ATOM     25  C   LIG    1        1.439  -1.390   1.733  0.00  0.00    +0.010 C 
ATOM     26  C   LIG    1        0.418  -2.479   1.395  0.00  0.00    +0.020 C 
ATOM     27  C   LIG    1       -0.934  -1.835   1.081  0.00  0.00    +0.010 C 
ATOM     28  C   LIG    1       -0.786  -0.916  -0.136  0.00  0.00    +0.290 C 
ENDBRANCH  20  23
ENDBRANCH   7  20
TORSDOF 4
