REMARK  Name = ZINCrH000004narD.0
REMARK                            x       y       z     vdW  Elec       q    Type
REMARK                         _______ _______ _______ _____ _____    ______ ____
ROOT
ATOM      1  C   LIG    1        1.191   4.567   0.786  0.00  0.00    +0.520 C 
ATOM      2  N   LIG    1       -0.043   4.025   0.771  0.00  0.00    -0.600 N 
ATOM      3  C   LIG    1       -0.508   3.292   1.965  0.00  0.00    +0.260 C 
ATOM      4  C   LIG    1       -1.251   1.995   1.597  0.00  0.00    +0.020 C 
ATOM      5  C   LIG    1       -0.550   1.303   0.454  0.00  0.00    +0.010 C 
ATOM      6  C   LIG    1       -1.157   1.766  -0.867  0.00  0.00    +0.000 C 
ATOM      7  C   LIG    1       -0.584   3.015  -1.392  0.00  0.00    +0.020 C 
ATOM      8  C   LIG    1       -0.856   4.184  -0.414  0.00  0.00    +0.290 C 
ATOM      9  O   LIG    1        1.580   5.216  -0.162  0.00  0.00    -0.500 OA
ENDROOT
BRANCH   1  16
ATOM     10  C   LIG    1        6.174   5.657   4.286  0.00  0.00    +0.100 A 
ATOM     11  C   LIG    1        6.241   4.377   4.815  0.00  0.00    -0.040 A 
ATOM     12  C   LIG    1        5.329   3.420   4.418  0.00  0.00    +0.040 A 
ATOM     13  C   LIG    1        4.342   3.734   3.490  0.00  0.00    +0.090 A 
ATOM     14  O   LIG    1        3.458   2.765   3.134  0.00  0.00    -0.310 OA
ATOM     15  C   LIG    1        2.699   2.962   1.939  0.00  0.00    +0.250 C 
ATOM     16  C   LIG    1        2.087   4.367   1.981  0.00  0.00    -0.040 C 
ATOM     17  C   LIG    1        3.226   5.389   1.948  0.00  0.00    +0.130 C 
ATOM     18  C   LIG    1        4.278   5.011   2.960  0.00  0.00    -0.110 A 
ATOM     19  C   LIG    1        5.193   5.970   3.360  0.00  0.00    +0.010 A 
BRANCH  10  21
ATOM     20  C   LIG    1        8.054   6.209   5.634  0.00  0.00    +0.250 C 
ATOM     21  O   LIG    1        7.070   6.603   4.676  0.00  0.00    -0.320 OA
ENDBRANCH  10  21
ENDBRANCH   1  16
BRANCH   8  22
ATOM     22  C   LIG    1       -0.513   5.489  -1.085  0.00  0.00    -0.010 A 
ATOM     23  C   LIG    1       -0.651   6.693  -0.410  0.00  0.00    -0.050 A 
ATOM     24  C   LIG    1       -0.322   7.869  -1.056  0.00  0.00    +0.250 A 
ATOM     25  N   LIG    1        0.109   7.857  -2.302  0.00  0.00    -0.490 NA
ATOM     26  C   LIG    1        0.248   6.732  -2.977  0.00  0.00    +0.250 A 
ATOM     27  C   LIG    1       -0.056   5.516  -2.394  0.00  0.00    -0.030 A 
ENDBRANCH   8  22
TORSDOF 3
