REMARK  Name = ZINCrH000004pJNX.0
REMARK                            x       y       z     vdW  Elec       q    Type
REMARK                         _______ _______ _______ _____ _____    ______ ____
ROOT
ATOM      1  C   LIG    1        2.467   6.473   1.113  0.00  0.00    +0.030 C 
ATOM      2  C   LIG    1        2.376   5.059   1.690  0.00  0.00    -0.010 C 
ATOM      3  C   LIG    1        3.782   4.463   1.813  0.00  0.00    +0.010 C 
ATOM      4  C   LIG    1        3.668   2.974   2.141  0.00  0.00    +0.120 C 
ATOM      5  C   LIG    1        2.730   2.799   3.329  0.00  0.00    -0.050 A 
ATOM      6  C   LIG    1        1.880   3.748   3.736  0.00  0.00    -0.180 A 
ATOM      7  S   LIG    1        0.947   3.222   5.131  0.00  0.00    +0.170 S 
ATOM      8  C   LIG    1        1.734   1.665   5.162  0.00  0.00    +0.070 A 
ATOM      9  N   LIG    1        1.547   0.635   5.998  0.00  0.00    -0.470 NA
ATOM     10  C   LIG    1        2.280  -0.447   5.804  0.00  0.00    +0.510 A 
ATOM     11  N   LIG    1        3.176  -0.569   4.845  0.00  0.00    -0.560 NA
ATOM     12  C   LIG    1        3.433   0.400   3.965  0.00  0.00    +0.410 A 
ATOM     13  C   LIG    1        2.673   1.591   4.124  0.00  0.00    -0.150 A 
ATOM     14  C   LIG    1        1.737   5.109   3.079  0.00  0.00    +0.120 C 
ENDROOT
BRANCH  12  15
ATOM     15  N   LIG    1        4.377   0.255   2.965  0.00  0.00    -0.470 N 
ATOM     16  C   LIG    1        3.998  -0.816   2.034  0.00  0.00    +0.200 C 
ATOM     17  C   LIG    1        4.985  -0.850   0.865  0.00  0.00    +0.040 C 
ATOM     18  C   LIG    1        6.398  -1.092   1.403  0.00  0.00    +0.230 C 
ATOM     19  C   LIG    1        6.750   0.010   2.406  0.00  0.00    +0.050 C 
ATOM     20  C   LIG    1        5.711   0.020   3.531  0.00  0.00    +0.200 C 
BRANCH  18  21
ATOM     21  N   LIG    1        7.356  -1.069   0.295  0.00  0.00    -0.600 N 
ATOM     22  C   LIG    1        8.158  -2.264   0.060  0.00  0.00    +0.260 C 
ATOM     23  C   LIG    1        8.725  -2.254  -1.362  0.00  0.00    +0.020 C 
ATOM     24  C   LIG    1        9.416  -0.906  -1.601  0.00  0.00    +0.020 C 
ATOM     25  C   LIG    1        8.347   0.189  -1.623  0.00  0.00    +0.060 C 
ATOM     26  C   LIG    1        7.444   0.045  -0.432  0.00  0.00    +0.520 C 
ATOM     27  O   LIG    1        6.758   0.994  -0.113  0.00  0.00    -0.540 OA
ENDBRANCH  18  21
ENDBRANCH  12  15
TORSDOF 2
