REMARK  Name = ZINCpe000000WhbV.0
REMARK                            x       y       z     vdW  Elec       q    Type
REMARK                         _______ _______ _______ _____ _____    ______ ____
ROOT
ATOM      1  C   LIG    1       -3.679   3.612   4.532  0.00  0.00    +0.220 C 
ENDROOT
BRANCH   1   2
ATOM      2  O   LIG    1       -4.681   2.825   3.884  0.00  0.00    -0.530 OA
ATOM      3  H   LIG    1       -4.964   2.053   4.393  0.00  0.00    +0.370 HD
ENDBRANCH   1   2
BRANCH   1   4
ATOM      4  C   LIG    1       -2.437   2.754   4.779  0.00  0.00    +0.160 C 
BRANCH   4   5
ATOM      5  O   LIG    1       -1.865   2.372   3.526  0.00  0.00    -0.280 OA
BRANCH   5  11
ATOM      6  C   LIG    1       -0.140   1.194   2.380  0.00  0.00    +0.090 A 
ATOM      7  C   LIG    1        0.993   0.407   2.419  0.00  0.00    +0.030 A 
ATOM      8  C   LIG    1        1.536   0.029   3.654  0.00  0.00    -0.170 A 
ATOM      9  C   LIG    1        0.920   0.442   4.841  0.00  0.00    +0.070 A 
ATOM     10  C   LIG    1       -0.213   1.223   4.792  0.00  0.00    -0.050 A 
ATOM     11  C   LIG    1       -0.748   1.602   3.568  0.00  0.00    +0.140 A 
BRANCH   8  12
ATOM     12  C   LIG    1        2.744  -0.804   3.703  0.00  0.00    +0.400 C 
ATOM     13  O   LIG    1        3.219  -1.245   2.677  0.00  0.00    -0.460 OA
ATOM     14  C   LIG    1        3.394  -1.112   5.027  0.00  0.00    +0.070 C 
ENDBRANCH   8  12
BRANCH   6  16
ATOM     15  C   LIG    1        0.007   1.114   0.008  0.00  0.00    +0.240 C 
ATOM     16  O   LIG    1       -0.667   1.567   1.183  0.00  0.00    -0.300 OA
ENDBRANCH   6  16
ENDBRANCH   5  11
ENDBRANCH   4   5
ENDBRANCH   1   4
BRANCH   1  17
ATOM     17  C   LIG    1       -4.219   4.125   5.869  0.00  0.00    +0.160 C 
BRANCH  17  18
ATOM     18  N   LIG    1       -5.412   4.949   5.632  0.00  0.00    -0.510 NA
ATOM     19  C   LIG    1       -6.094   5.262   6.894  0.00  0.00    +0.240 C 
ATOM     20  C   LIG    1       -5.092   5.851   7.899  0.00  0.00    +0.110 C 
ATOM     21  C   LIG    1       -4.336   6.949   7.198  0.00  0.00    +0.000 A 
ATOM     22  N   LIG    1       -3.596   7.908   7.667  0.00  0.00    -0.270 NA
ATOM     23  N   LIG    1       -3.158   8.608   6.674  0.00  0.00    -0.270 N 
ATOM     24  H   LIG    1       -2.583   9.385   6.759  0.00  0.00    +0.470 HD
ATOM     25  N   LIG    1       -3.590   8.135   5.553  0.00  0.00    -0.260 NA
ATOM     26  C   LIG    1       -4.331   7.096   5.803  0.00  0.00    -0.030 A 
ATOM     27  C   LIG    1       -5.070   6.168   4.877  0.00  0.00    +0.350 C 
ENDBRANCH  17  18
ENDBRANCH   1  17
TORSDOF 8
