REMARK  Name = ZINCpe000000WhbV.1
REMARK                            x       y       z     vdW  Elec       q    Type
REMARK                         _______ _______ _______ _____ _____    ______ ____
ROOT
ATOM      1  C   LIG    1       -3.106   2.069   5.463  0.00  0.00    +0.230 C 
ENDROOT
BRANCH   1   2
ATOM      2  O   LIG    1       -2.002   1.332   5.993  0.00  0.00    -0.530 OA
ATOM      3  H   LIG    1       -1.380   1.869   6.503  0.00  0.00    +0.370 HD
ENDBRANCH   1   2
BRANCH   1   4
ATOM      4  C   LIG    1       -2.587   3.166   4.532  0.00  0.00    +0.160 C 
BRANCH   4   5
ATOM      5  O   LIG    1       -1.952   2.569   3.399  0.00  0.00    -0.290 OA
BRANCH   5  11
ATOM      6  C   LIG    1       -0.800   2.892   1.339  0.00  0.00    +0.090 A 
ATOM      7  C   LIG    1       -0.267   3.745   0.394  0.00  0.00    +0.030 A 
ATOM      8  C   LIG    1       -0.373   5.131   0.568  0.00  0.00    -0.170 A 
ATOM      9  C   LIG    1       -1.009   5.643   1.705  0.00  0.00    +0.080 A 
ATOM     10  C   LIG    1       -1.534   4.785   2.645  0.00  0.00    -0.050 A 
ATOM     11  C   LIG    1       -1.433   3.410   2.469  0.00  0.00    +0.140 A 
BRANCH   8  12
ATOM     12  C   LIG    1        0.188   6.045  -0.436  0.00  0.00    +0.400 C 
ATOM     13  O   LIG    1        0.826   5.603  -1.369  0.00  0.00    -0.460 OA
ATOM     14  C   LIG    1       -0.029   7.530  -0.308  0.00  0.00    +0.080 C 
ENDBRANCH   8  12
BRANCH   6  16
ATOM     15  C   LIG    1       -0.042   1.086  -0.009  0.00  0.00    +0.240 C 
ATOM     16  O   LIG    1       -0.703   1.546   1.171  0.00  0.00    -0.300 OA
ENDBRANCH   6  16
ENDBRANCH   5  11
ENDBRANCH   4   5
ENDBRANCH   1   4
BRANCH   1  17
ATOM     17  C   LIG    1       -3.894   2.704   6.611  0.00  0.00    +0.160 C 
BRANCH  17  18
ATOM     18  N   LIG    1       -4.392   1.651   7.505  0.00  0.00    -0.500 NA
ATOM     19  C   LIG    1       -4.947   2.225   8.738  0.00  0.00    +0.240 C 
ATOM     20  C   LIG    1       -5.990   3.296   8.388  0.00  0.00    +0.110 C 
ATOM     21  C   LIG    1       -6.932   2.705   7.371  0.00  0.00    -0.020 A 
ATOM     22  C   LIG    1       -6.654   1.577   6.667  0.00  0.00    -0.050 A 
ATOM     23  N   LIG    1       -7.712   1.356   5.872  0.00  0.00    -0.370 N 
ATOM     24  H   LIG    1       -7.814   0.619   5.250  0.00  0.00    +0.450 HD
ATOM     25  N   LIG    1       -8.572   2.297   6.082  0.00  0.00    -0.090 NA
ATOM     26  N   LIG    1       -8.128   3.118   6.974  0.00  0.00    -0.250 NA
ATOM     27  C   LIG    1       -5.376   0.796   6.817  0.00  0.00    +0.330 C 
ENDBRANCH  17  18
ENDBRANCH   1  17
TORSDOF 8
