REMARK  Name = ZINCrD00000f1PZa.0
REMARK                            x       y       z     vdW  Elec       q    Type
REMARK                         _______ _______ _______ _____ _____    ______ ____
ROOT
ATOM      1  C   LIG    1       -0.169   1.068  -0.026  0.00  0.00    +0.230 C 
ATOM      2  C   LIG    1       -0.972   1.524  -1.245  0.00  0.00    +0.060 C 
ENDROOT
BRANCH   1   4
ATOM      3  C   LIG    1       -1.260   0.597   2.102  0.00  0.00    +0.580 C 
ATOM      4  N   LIG    1       -0.846   1.507   1.197  0.00  0.00    -0.600 N 
ATOM      5  C   LIG    1       -1.073   2.934   1.437  0.00  0.00    +0.290 C 
ATOM      6  O   LIG    1       -0.988  -0.577   1.950  0.00  0.00    -0.520 OA
BRANCH   3  14
ATOM      7  C   LIG    1       -4.111   0.122   2.160  0.00  0.00    +0.120 C 
ATOM      8  C   LIG    1       -3.420   0.803   3.314  0.00  0.00    -0.060 A 
ATOM      9  C   LIG    1       -4.143   1.212   4.422  0.00  0.00    +0.050 A 
ATOM     10  C   LIG    1       -3.464   1.835   5.461  0.00  0.00    +0.070 A 
ATOM     11  C   LIG    1       -2.093   2.028   5.359  0.00  0.00    +0.250 A 
ATOM     12  N   LIG    1       -1.433   1.624   4.297  0.00  0.00    -0.420 NA
ATOM     13  F   LIG    1       -4.132   2.250   6.560  0.00  0.00    -0.120 F 
ATOM     14  C   LIG    1       -2.045   1.029   3.280  0.00  0.00    +0.080 A 
ENDBRANCH   3  14
ENDBRANCH   1   4
BRANCH   1  15
ATOM     15  C   LIG    1        1.233   1.680  -0.080  0.00  0.00    +0.280 C 
BRANCH  15  16
ATOM     16  N   LIG    1        1.961   1.342   1.145  0.00  0.00    -0.720 N 
ATOM     17  H   LIG    1        1.534   0.804   1.830  0.00  0.00    +0.400 HD
ATOM     18  C   LIG    1        3.225   1.776   1.319  0.00  0.00    +0.600 C 
ATOM     19  O   LIG    1        3.761   2.450   0.459  0.00  0.00    -0.530 OA
BRANCH  18  20
ATOM     20  C   LIG    1        3.954   1.438   2.545  0.00  0.00    -0.280 A 
ATOM     21  C   LIG    1        5.229   1.816   2.835  0.00  0.00    +0.110 A 
ATOM     22  C   LIG    1        5.687   1.365   4.060  0.00  0.00    -0.120 A 
ATOM     23  C   LIG    1        4.783   0.629   4.746  0.00  0.00    -0.190 A 
ATOM     24  C   LIG    1        5.036   0.019   6.112  0.00  0.00    +0.110 C 
ATOM     25  C   LIG    1        6.544   0.012   6.375  0.00  0.00    +0.020 C 
ATOM     26  C   LIG    1        7.106   1.409   6.096  0.00  0.00    +0.020 C 
ATOM     27  C   LIG    1        7.082   1.669   4.589  0.00  0.00    +0.100 C 
ATOM     28  S   LIG    1        3.320   0.485   3.877  0.00  0.00    +0.200 S 
ENDBRANCH  18  20
ENDBRANCH  15  16
ENDBRANCH   1  15
TORSDOF 5
