REMARK  Name = ZINCtV000002OGzH.0
REMARK                            x       y       z     vdW  Elec       q    Type
REMARK                         _______ _______ _______ _____ _____    ______ ____
ROOT
ATOM      1  O   LIG    1       -0.392   6.275   6.807  0.00  0.00    -0.500 OA
ATOM      2  C   LIG    1       -1.317   5.937   6.099  0.00  0.00    +0.530 C 
ATOM      3  N   LIG    1       -1.316   4.717   5.527  0.00  0.00    -0.650 N 
ATOM      4  H   LIG    1       -2.013   4.476   4.897  0.00  0.00    +0.410 HD
ENDROOT
BRANCH   2   5
ATOM      5  C   LIG    1       -2.467   6.881   5.859  0.00  0.00    +0.050 C 
ATOM      6  C   LIG    1       -2.479   7.956   6.948  0.00  0.00    +0.050 C 
ATOM      7  C   LIG    1       -3.457   9.060   6.524  0.00  0.00    +0.250 C 
ATOM      8  O   LIG    1       -2.949   9.682   5.343  0.00  0.00    -0.310 OA
ATOM      9  C   LIG    1       -2.559   8.878   4.320  0.00  0.00    +0.170 A 
ATOM     10  C   LIG    1       -2.408   9.438   3.056  0.00  0.00    +0.010 A 
ATOM     11  C   LIG    1       -2.009   8.655   1.992  0.00  0.00    +0.090 A 
ATOM     12  C   LIG    1       -1.757   7.309   2.181  0.00  0.00    -0.120 A 
ATOM     13  C   LIG    1       -1.908   6.748   3.436  0.00  0.00    +0.070 A 
ATOM     14 BR   LIG    1       -1.209   6.234   0.725  0.00  0.00    -0.040 Br
ATOM     15  C   LIG    1       -2.310   7.529   4.506  0.00  0.00    -0.160 A 
ENDBRANCH   2   5
BRANCH   3  16
ATOM     16  C   LIG    1       -0.304   3.793   5.843  0.00  0.00    +0.070 A 
ATOM     17  C   LIG    1        0.614   4.016   6.811  0.00  0.00    -0.010 A 
ATOM     18  S   LIG    1        1.625   2.626   6.827  0.00  0.00    +0.310 S 
ATOM     19  N   LIG    1        0.816   1.806   5.582  0.00  0.00    -0.440 NA
ATOM     20  C   LIG    1       -0.166   2.574   5.185  0.00  0.00    +0.140 A 
BRANCH  20  21
ATOM     21  C   LIG    1       -1.086   2.165   4.096  0.00  0.00    -0.030 A 
ATOM     22  C   LIG    1       -2.459   2.369   4.226  0.00  0.00    +0.050 A 
ATOM     23  C   LIG    1       -3.310   1.988   3.209  0.00  0.00    +0.040 A 
ATOM     24  C   LIG    1       -2.804   1.408   2.060  0.00  0.00    +0.080 A 
ATOM     25  C   LIG    1       -1.443   1.198   1.928  0.00  0.00    -0.170 A 
ATOM     26  C   LIG    1       -0.582   1.575   2.938  0.00  0.00    +0.110 A 
BRANCH  25  27
ATOM     27  C   LIG    1       -0.899   0.560   0.675  0.00  0.00    +0.510 C 
ATOM     28  F   LIG    1       -1.728   0.875  -0.406  0.00  0.00    -0.170 F 
ATOM     29  F   LIG    1        0.392   1.041   0.430  0.00  0.00    -0.170 F 
ATOM     30  F   LIG    1       -0.855  -0.829   0.840  0.00  0.00    -0.170 F 
ENDBRANCH  25  27
ENDBRANCH  20  21
ENDBRANCH   3  16
TORSDOF 4
