REMARK  Name = ZINCvU0000000FJD.0
REMARK                            x       y       z     vdW  Elec       q    Type
REMARK                         _______ _______ _______ _____ _____    ______ ____
ROOT
ATOM      1  O   LIG    1       -0.025   1.447   0.025  0.00  0.00    -0.320 OA
ENDROOT
BRANCH   1   2
ATOM      2  C   LIG    1        1.168   2.076   0.028  0.00  0.00    +0.540 C 
ATOM      3  O   LIG    1        2.197   1.428   0.022  0.00  0.00    -0.470 OA
BRANCH   2   9
ATOM      4  C   LIG    1        1.477   8.352   0.068  0.00  0.00    +0.190 A 
ATOM      5  C   LIG    1        2.820   7.978   0.064  0.00  0.00    -0.040 A 
ATOM      6  C   LIG    1        3.174   6.667   0.055  0.00  0.00    +0.140 A 
ATOM      7  C   LIG    1        2.185   5.654   0.050  0.00  0.00    -0.120 A 
ATOM      8  C   LIG    1        2.354   4.259   0.040  0.00  0.00    +0.060 A 
ATOM      9  C   LIG    1        1.224   3.540   0.037  0.00  0.00    -0.240 A 
ATOM     10  S   LIG    1       -0.180   4.593   0.039  0.00  0.00    +0.250 S 
ATOM     11 CL   LIG    1        3.924   3.518   0.033  0.00  0.00    -0.000 Cl
ATOM     12  C   LIG    1        0.835   6.031   0.054  0.00  0.00    -0.090 A 
ATOM     13  C   LIG    1        0.490   7.386   0.063  0.00  0.00    -0.060 A 
ATOM     14 CL   LIG    1       -1.181   7.854   0.068  0.00  0.00    -0.030 Cl
BRANCH   4  16
ATOM     15  C   LIG    1        2.209  10.613   0.081  0.00  0.00    +0.250 C 
ATOM     16  O   LIG    1        1.138   9.668   0.076  0.00  0.00    -0.290 OA
ENDBRANCH   4  16
ENDBRANCH   2   9
ENDBRANCH   1   2
BRANCH   1  17
ATOM     17  C   LIG    1       -0.005  -0.005   0.016  0.00  0.00    +0.210 C 
ATOM     18  C   LIG    1        0.004  -0.524   1.455  0.00  0.00    +0.090 C 
BRANCH  17  19
ATOM     19  C   LIG    1       -1.230  -0.519  -0.696  0.00  0.00    +0.520 C 
ATOM     20  N   LIG    1       -1.425  -1.847  -0.828  0.00  0.00    -0.660 N 
ATOM     21  H   LIG    1       -0.740  -2.469  -0.536  0.00  0.00    +0.420 HD
ATOM     22  O   LIG    1       -2.040   0.261  -1.151  0.00  0.00    -0.480 OA
BRANCH  20  23
ATOM     23  C   LIG    1       -2.615  -2.327  -1.385  0.00  0.00    +0.220 A 
ATOM     24  C   LIG    1       -3.769  -1.557  -1.331  0.00  0.00    +0.060 A 
ATOM     25  C   LIG    1       -4.942  -2.032  -1.886  0.00  0.00    +0.150 A 
ATOM     26  C   LIG    1       -4.970  -3.277  -2.486  0.00  0.00    -0.050 A 
ATOM     27  C   LIG    1       -3.824  -4.050  -2.538  0.00  0.00    +0.150 A 
ATOM     28  C   LIG    1       -2.646  -3.579  -1.989  0.00  0.00    -0.080 A 
ATOM     29 CL   LIG    1       -1.208  -4.549  -2.053  0.00  0.00    -0.030 Cl
BRANCH  26  30
ATOM     30  N   LIG    1       -6.230  -3.785  -3.075  0.00  0.00    +0.030 N 
ATOM     31  O   LIG    1       -7.240  -3.106  -3.030  0.00  0.00    -0.150 OA
ATOM     32  O   LIG    1       -6.256  -4.882  -3.604  0.00  0.00    -0.150 OA
ENDBRANCH  26  30
ENDBRANCH  20  23
ENDBRANCH  17  19
ENDBRANCH   1  17
TORSDOF 7
