REMARK  Name = ZINCpk00000xI2Ee.0
REMARK                            x       y       z     vdW  Elec       q    Type
REMARK                         _______ _______ _______ _____ _____    ______ ____
ROOT
ATOM      1  N   LIG    1        4.169  -0.777   0.804  0.00  0.00    -0.610 N 
ATOM      2  C   LIG    1        4.028  -1.593   1.867  0.00  0.00    +0.590 C 
ATOM      3  O   LIG    1        3.149  -1.384   2.682  0.00  0.00    -0.490 OA
ATOM      4  C   LIG    1        5.138  -1.103  -0.246  0.00  0.00    +0.290 C 
ENDROOT
BRANCH   2   5
ATOM      5  C   LIG    1        4.937  -2.737   2.043  0.00  0.00    -0.030 A 
ATOM      6  C   LIG    1        4.832  -3.744   2.986  0.00  0.00    +0.080 A 
ATOM      7  C   LIG    1        5.921  -4.587   2.751  0.00  0.00    -0.070 A 
ATOM      8  N   LIG    1        6.598  -4.095   1.745  0.00  0.00    -0.210 NA
ATOM      9  N   LIG    1        6.050  -3.020   1.304  0.00  0.00    -0.360 N 
ATOM     10  H   LIG    1        6.378  -2.489   0.561  0.00  0.00    +0.450 HD
BRANCH   7  11
ATOM     11  C   LIG    1        6.256  -5.840   3.518  0.00  0.00    +0.560 C 
ATOM     12  F   LIG    1        5.808  -5.712   4.837  0.00  0.00    -0.160 F 
ATOM     13  F   LIG    1        7.641  -6.034   3.513  0.00  0.00    -0.170 F 
ATOM     14  F   LIG    1        5.629  -6.936   2.916  0.00  0.00    -0.170 F 
ENDBRANCH   7  11
ENDBRANCH   2   5
BRANCH   1  15
ATOM     15  C   LIG    1        3.354   0.436   0.699  0.00  0.00    +0.320 C 
BRANCH  15  20
ATOM     16  C   LIG    1        1.200   1.391  -0.208  0.00  0.00    +0.100 C 
ATOM     17  C   LIG    1       -0.252   0.895  -0.029  0.00  0.00    +0.020 C 
ATOM     18  C   LIG    1       -0.102  -0.622   0.222  0.00  0.00    +0.210 C 
ATOM     19  O   LIG    1        1.237  -0.780   0.740  0.00  0.00    -0.350 OA
ATOM     20  C   LIG    1        2.056   0.115  -0.044  0.00  0.00    +0.150 C 
BRANCH  16  25
ATOM     21  C   LIG    1        1.470   3.930   4.151  0.00  0.00    +0.200 C 
ATOM     22  C   LIG    1        1.664   3.488   2.724  0.00  0.00    +0.180 A 
ATOM     23  N   LIG    1        2.411   4.074   1.827  0.00  0.00    -0.290 NA
ATOM     24  N   LIG    1        2.346   3.424   0.719  0.00  0.00    -0.290 NA
ATOM     25  C   LIG    1        1.548   2.400   0.856  0.00  0.00    +0.180 A 
ATOM     26  N   LIG    1        1.096   2.410   2.133  0.00  0.00    -0.570 N 
ATOM     27  H   LIG    1        0.488   1.773   2.541  0.00  0.00    +0.430 HD
ENDBRANCH  16  25
ENDBRANCH  15  20
ENDBRANCH   1  15
TORSDOF 5
