REMARK  Name = ZINCqH0000007Mph.0
REMARK                            x       y       z     vdW  Elec       q    Type
REMARK                         _______ _______ _______ _____ _____    ______ ____
ROOT
ATOM      1  C   LIG    1        1.948   0.891  -1.050  0.00  0.00    +0.120 A 
ATOM      2  C   LIG    1        2.689   0.953  -2.216  0.00  0.00    -0.010 A 
ATOM      3  C   LIG    1        2.302   1.789  -3.254  0.00  0.00    +0.040 A 
ATOM      4  C   LIG    1        1.192   2.575  -3.137  0.00  0.00    +0.050 A 
ATOM      5  C   LIG    1        0.438   2.548  -1.954  0.00  0.00    -0.120 A 
ATOM      6  C   LIG    1       -0.697   3.387  -1.804  0.00  0.00    +0.190 A 
ATOM      7  C   LIG    1       -1.286   3.466  -0.549  0.00  0.00    -0.240 A 
ATOM      8  C   LIG    1       -0.661   2.691   0.539  0.00  0.00    +0.530 A 
ATOM      9  O   LIG    1       -0.780   3.033   1.700  0.00  0.00    -0.420 OA
ATOM     10  O   LIG    1        0.046   1.589   0.205  0.00  0.00    -0.250 OA
ATOM     11  C   LIG    1        0.806   1.678  -0.913  0.00  0.00    +0.110 A 
ENDROOT
BRANCH   7  12
ATOM     12  C   LIG    1       -2.484   4.290  -0.315  0.00  0.00    +0.590 C 
ATOM     13  N   LIG    1       -2.372   5.629  -0.215  0.00  0.00    -0.600 N 
ATOM     14  C   LIG    1       -1.081   6.277  -0.461  0.00  0.00    +0.290 C 
ATOM     15  O   LIG    1       -3.574   3.761  -0.211  0.00  0.00    -0.510 OA
BRANCH  13  16
ATOM     16  C   LIG    1       -3.542   6.437   0.138  0.00  0.00    +0.350 C 
BRANCH  16  17
ATOM     17  C   LIG    1       -3.616   6.585   1.636  0.00  0.00    -0.120 A 
ATOM     18  C   LIG    1       -4.322   5.662   2.385  0.00  0.00    +0.060 A 
ATOM     19  C   LIG    1       -4.388   5.791   3.759  0.00  0.00    -0.010 A 
ATOM     20  C   LIG    1       -3.753   6.857   4.386  0.00  0.00    -0.080 A 
ATOM     21  C   LIG    1       -3.050   7.785   3.629  0.00  0.00    +0.030 A 
ATOM     22  C   LIG    1       -2.983   7.646   2.256  0.00  0.00    +0.040 A 
BRANCH  20  23
ATOM     23  S   LIG    1       -3.841   7.030   6.137  0.00  0.00    -0.120 S 
ATOM     24  C   LIG    1       -4.845   5.604   6.638  0.00  0.00    +0.140 C 
ENDBRANCH  20  23
ENDBRANCH  16  17
ENDBRANCH  13  16
ENDBRANCH   7  12
BRANCH   1  26
ATOM     25  C   LIG    1        3.513  -0.712  -0.253  0.00  0.00    +0.250 C 
ATOM     26  O   LIG    1        2.333   0.065  -0.041  0.00  0.00    -0.300 OA
ENDBRANCH   1  26
TORSDOF 5
