REMARK  Name = ZINCqH0000002XeN.0
REMARK                            x       y       z     vdW  Elec       q    Type
REMARK                         _______ _______ _______ _____ _____    ______ ____
ROOT
ATOM      1  C   LIG    1       -2.800  -3.205  -0.906  0.00  0.00    -0.010 C 
ATOM      2  C   LIG    1       -3.061  -4.673  -1.250  0.00  0.00    +0.060 C 
ATOM      3  C   LIG    1       -4.360  -5.132  -0.584  0.00  0.00    +0.020 C 
ATOM      4  C   LIG    1       -5.527  -4.294  -1.118  0.00  0.00    +0.260 C 
ATOM      5  N   LIG    1       -5.217  -2.872  -0.920  0.00  0.00    -0.600 N 
ATOM      6  C   LIG    1       -6.080  -2.065  -0.272  0.00  0.00    +0.570 C 
ATOM      7  O   LIG    1       -5.861  -0.871  -0.203  0.00  0.00    -0.530 OA
ATOM      8  C   LIG    1       -3.949  -2.346  -1.443  0.00  0.00    +0.310 C 
ENDROOT
BRANCH   6   9
ATOM      9  C   LIG    1       -7.292  -2.631   0.355  0.00  0.00    -0.150 A 
ATOM     10  C   LIG    1       -7.257  -3.908   0.920  0.00  0.00    +0.080 A 
ATOM     11  C   LIG    1       -8.389  -4.428   1.510  0.00  0.00    -0.010 A 
ATOM     12  C   LIG    1       -9.564  -3.692   1.532  0.00  0.00    +0.130 A 
ATOM     13  C   LIG    1       -9.605  -2.426   0.967  0.00  0.00    -0.010 A 
ATOM     14  F   LIG    1      -10.672  -4.210   2.106  0.00  0.00    -0.130 F 
ATOM     15  C   LIG    1       -8.477  -1.893   0.381  0.00  0.00    +0.110 A 
ENDBRANCH   6   9
BRANCH   1  17
ATOM     16  N   LIG    1       -1.029  -1.524  -1.303  0.00  0.00    -0.550 N 
ATOM     17  C   LIG    1       -1.504  -2.763  -1.536  0.00  0.00    +0.520 C 
ATOM     18  O   LIG    1       -0.888  -3.524  -2.253  0.00  0.00    -0.510 OA
BRANCH  16  19
ATOM     19  C   LIG    1        0.179  -1.117  -1.880  0.00  0.00    +0.150 A 
ATOM     20  C   LIG    1        0.592   0.204  -1.772  0.00  0.00    -0.030 A 
ATOM     21  C   LIG    1        1.785   0.603  -2.342  0.00  0.00    +0.020 A 
ATOM     22  C   LIG    1        2.568  -0.313  -3.020  0.00  0.00    -0.020 A 
ATOM     23  C   LIG    1        2.160  -1.630  -3.130  0.00  0.00    +0.020 A 
ATOM     24  C   LIG    1        0.968  -2.034  -2.562  0.00  0.00    +0.010 A 
ENDBRANCH  16  19
BRANCH  16  26
ATOM     25  C   LIG    1       -2.479   0.446  -1.313  0.00  0.00    +0.040 C 
ATOM     26  C   LIG    1       -1.778  -0.602  -0.445  0.00  0.00    +0.280 C 
ENDBRANCH  16  26
ENDBRANCH   1  17
TORSDOF 4
