REMARK  Name = ZINCqH0000051aoS.0
REMARK                            x       y       z     vdW  Elec       q    Type
REMARK                         _______ _______ _______ _____ _____    ______ ____
ROOT
ATOM      1  O   LIG    1        6.216  -0.584  -2.173  0.00  0.00    -0.490 OA
ATOM      2  C   LIG    1        5.582  -0.341  -3.179  0.00  0.00    +0.520 C 
ATOM      3  N   LIG    1        6.053  -0.726  -4.381  0.00  0.00    -0.670 N 
ATOM      4  H   LIG    1        5.516  -0.592  -5.178  0.00  0.00    +0.420 HD
ENDROOT
BRANCH   3   5
ATOM      5  C   LIG    1        7.317  -1.320  -4.481  0.00  0.00    +0.140 A 
ATOM      6  C   LIG    1        7.775  -2.154  -3.470  0.00  0.00    +0.130 A 
ATOM      7  C   LIG    1        9.023  -2.739  -3.570  0.00  0.00    +0.040 A 
ATOM      8  C   LIG    1        9.816  -2.495  -4.678  0.00  0.00    +0.160 A 
ATOM      9  C   LIG    1        9.361  -1.663  -5.688  0.00  0.00    -0.070 A 
ATOM     10  F   LIG    1       11.035  -3.068  -4.774  0.00  0.00    -0.100 F 
ATOM     11  C   LIG    1        8.113  -1.081  -5.594  0.00  0.00    +0.110 A 
BRANCH   9  12
ATOM     12  N   LIG    1       10.211  -1.404  -6.872  0.00  0.00    +0.030 N 
ATOM     13  O   LIG    1       11.310  -1.922  -6.957  0.00  0.00    -0.140 OA
ATOM     14  O   LIG    1        9.811  -0.673  -7.760  0.00  0.00    -0.150 OA
ENDBRANCH   9  12
ENDBRANCH   3   5
BRANCH   2  15
ATOM     15  C   LIG    1        4.269   0.392  -3.083  0.00  0.00    +0.270 C 
BRANCH  15  16
ATOM     16  O   LIG    1        3.984   0.695  -1.692  0.00  0.00    -0.330 OA
BRANCH  16  17
ATOM     17  C   LIG    1        2.842   1.350  -1.433  0.00  0.00    +0.470 C 
ATOM     18  O   LIG    1        2.105   1.661  -2.338  0.00  0.00    -0.490 OA
BRANCH  17  19
ATOM     19  C   LIG    1        2.479   1.699  -0.012  0.00  0.00    +0.180 C 
BRANCH  19  20
ATOM     20  C   LIG    1        1.159   2.427   0.005  0.00  0.00    -0.070 A 
ATOM     21  C   LIG    1        1.133   3.809   0.007  0.00  0.00    +0.070 A 
ATOM     22  C   LIG    1       -0.077   4.477   0.022  0.00  0.00    +0.040 A 
ATOM     23  C   LIG    1       -1.262   3.763   0.034  0.00  0.00    -0.020 A 
ATOM     24  C   LIG    1       -1.236   2.380   0.028  0.00  0.00    +0.050 A 
ATOM     25 CL   LIG    1       -2.782   4.603   0.053  0.00  0.00    -0.050 Cl
ATOM     26  C   LIG    1       -0.025   1.712   0.018  0.00  0.00    -0.010 A 
ATOM     27 CL   LIG    1        0.009  -0.024   0.015  0.00  0.00    -0.050 Cl
ENDBRANCH  19  20
ENDBRANCH  17  19
ENDBRANCH  16  17
ENDBRANCH  15  16
ENDBRANCH   2  15
TORSDOF 7
