REMARK  Name = ZINCqH0000006eBu.0
REMARK                            x       y       z     vdW  Elec       q    Type
REMARK                         _______ _______ _______ _____ _____    ______ ____
ROOT
ATOM      1  N   LIG    1       -3.798   1.136   3.466  0.00  0.00    -0.680 N 
ATOM      2  H   LIG    1       -3.095   0.563   3.810  0.00  0.00    +0.410 HD
ATOM      3  C   LIG    1       -4.128   1.087   2.160  0.00  0.00    +0.710 C 
ATOM      4  N   LIG    1       -3.411   0.324   1.312  0.00  0.00    -0.620 N 
ATOM      5  C   LIG    1       -2.273  -0.454   1.809  0.00  0.00    +0.280 C 
ATOM      6  O   LIG    1       -5.072   1.733   1.748  0.00  0.00    -0.570 OA
ENDROOT
BRANCH   1  11
ATOM      7  C   LIG    1       -5.349   2.525   6.497  0.00  0.00    -0.070 A 
ATOM      8  C   LIG    1       -5.799   3.744   6.026  0.00  0.00    +0.010 A 
ATOM      9  C   LIG    1       -5.587   4.099   4.706  0.00  0.00    +0.030 A 
ATOM     10  C   LIG    1       -4.919   3.239   3.857  0.00  0.00    +0.030 A 
ATOM     11  C   LIG    1       -4.470   2.011   4.326  0.00  0.00    +0.160 A 
ATOM     12  C   LIG    1       -4.685   1.658   5.651  0.00  0.00    -0.010 A 
BRANCH   7  13
ATOM     13  C   LIG    1       -5.583   2.141   7.936  0.00  0.00    +0.220 C 
BRANCH  13  14
ATOM     14  O   LIG    1       -4.482   2.585   8.732  0.00  0.00    -0.370 OA
BRANCH  14  15
ATOM     15  C   LIG    1       -4.605   2.270  10.120  0.00  0.00    +0.190 C 
BRANCH  15  16
ATOM     16  C   LIG    1       -3.378   2.790  10.872  0.00  0.00    +0.190 C 
BRANCH  16  18
ATOM     17  C   LIG    1       -2.238   4.807  11.484  0.00  0.00    +0.200 C 
ATOM     18  O   LIG    1       -3.350   4.217  10.809  0.00  0.00    -0.380 OA
ENDBRANCH  16  18
ENDBRANCH  15  16
ENDBRANCH  14  15
ENDBRANCH  13  14
ENDBRANCH   7  13
ENDBRANCH   1  11
BRANCH   4  19
ATOM     19  C   LIG    1       -3.769   0.272  -0.107  0.00  0.00    +0.370 C 
BRANCH  19  20
ATOM     20  C   LIG    1       -3.028   1.352  -0.853  0.00  0.00    -0.160 A 
ATOM     21  C   LIG    1       -3.667   2.535  -1.169  0.00  0.00    +0.120 A 
ATOM     22  C   LIG    1       -2.991   3.525  -1.858  0.00  0.00    -0.020 A 
ATOM     23  C   LIG    1       -1.670   3.333  -2.226  0.00  0.00    +0.140 A 
ATOM     24  C   LIG    1       -1.027   2.150  -1.905  0.00  0.00    -0.050 A 
ATOM     25  F   LIG    1       -1.009   4.300  -2.899  0.00  0.00    -0.130 F 
ATOM     26  C   LIG    1       -1.705   1.160  -1.215  0.00  0.00    +0.140 A 
ATOM     27  F   LIG    1       -1.079   0.005  -0.901  0.00  0.00    -0.130 F 
ENDBRANCH  19  20
ENDBRANCH   4  19
TORSDOF 8
