REMARK  Name = ZINCrH000004l1po.0
REMARK                            x       y       z     vdW  Elec       q    Type
REMARK                         _______ _______ _______ _____ _____    ______ ____
ROOT
ATOM      1  C   LIG    1       -2.503   1.000   0.020  0.00  0.00    +0.560 C 
ATOM      2  N   LIG    1       -2.485  -0.348   0.013  0.00  0.00    -0.620 N 
ATOM      3  H   LIG    1       -1.638  -0.821   0.006  0.00  0.00    +0.420 HD
ATOM      4  O   LIG    1       -3.564   1.593   0.028  0.00  0.00    -0.490 OA
ENDROOT
BRANCH   1   9
ATOM      5  C   LIG    1       -0.048   3.855   0.022  0.00  0.00    -0.130 A 
ATOM      6  C   LIG    1        1.165   3.162   0.007  0.00  0.00    +0.120 A 
ATOM      7  C   LIG    1        1.175   1.781   0.000  0.00  0.00    +0.020 A 
ATOM      8  C   LIG    1       -0.013   1.076   0.008  0.00  0.00    +0.090 A 
ATOM      9  C   LIG    1       -1.233   1.756   0.017  0.00  0.00    -0.150 A 
ATOM     10  C   LIG    1       -1.250   3.149   0.029  0.00  0.00    +0.170 A 
BRANCH   5  11
ATOM     11  C   LIG    1       -0.057   5.332   0.029  0.00  0.00    +0.510 C 
ATOM     12  O   LIG    1       -1.112   5.933   0.042  0.00  0.00    -0.500 OA
BRANCH  11  14
ATOM     13  C   LIG    1        1.022   7.462   0.030  0.00  0.00    +0.290 C 
ATOM     14  O   LIG    1        1.106   6.012   0.022  0.00  0.00    -0.350 OA
ENDBRANCH  11  14
ENDBRANCH   5  11
ENDBRANCH   1   9
BRANCH   2  15
ATOM     15  C   LIG    1       -3.677  -1.058   0.015  0.00  0.00    +0.270 A 
ATOM     16  N   LIG    1       -3.780  -2.351   0.009  0.00  0.00    -0.500 NA
ATOM     17  C   LIG    1       -5.005  -2.858   0.012  0.00  0.00    +0.140 A 
ATOM     18  C   LIG    1       -6.002  -1.955   0.022  0.00  0.00    -0.110 A 
ATOM     19  S   LIG    1       -5.287  -0.345   0.034  0.00  0.00    +0.210 S 
BRANCH  17  20
ATOM     20  C   LIG    1       -5.258  -4.319   0.007  0.00  0.00    -0.050 A 
ATOM     21  C   LIG    1       -6.564  -4.805   0.017  0.00  0.00    +0.070 A 
ATOM     22  C   LIG    1       -6.799  -6.163   0.009  0.00  0.00    -0.010 A 
ATOM     23  C   LIG    1       -5.735  -7.062   0.004  0.00  0.00    +0.110 A 
ATOM     24  O   LIG    1       -5.746  -8.424   0.013  0.00  0.00    -0.300 OA
ATOM     25  C   LIG    1       -4.469  -8.912  -0.431  0.00  0.00    +0.240 C 
ATOM     26  C   LIG    1       -3.506  -7.770  -0.028  0.00  0.00    +0.070 C 
ATOM     27  C   LIG    1       -4.434  -6.571  -0.007  0.00  0.00    -0.180 A 
ATOM     28  C   LIG    1       -4.191  -5.218  -0.003  0.00  0.00    +0.090 A 
ENDBRANCH  17  20
ENDBRANCH   2  15
TORSDOF 5
