REMARK  Name = ZINCtV00000tRP0n.0
REMARK                            x       y       z     vdW  Elec       q    Type
REMARK                         _______ _______ _______ _____ _____    ______ ____
ROOT
ATOM      1  C   LIG    1        4.165   4.435  -1.901  0.00  0.00    +0.150 C 
ATOM      2  O   LIG    1        4.979   4.744  -0.757  0.00  0.00    -0.260 OA
ATOM      3  C   LIG    1        4.391   4.526   0.452  0.00  0.00    +0.100 A 
ATOM      4  C   LIG    1        4.530   5.448   1.476  0.00  0.00    +0.000 A 
ATOM      5  C   LIG    1        3.917   5.220   2.694  0.00  0.00    +0.030 A 
ATOM      6  C   LIG    1        3.168   4.075   2.890  0.00  0.00    -0.010 A 
ATOM      7  C   LIG    1        3.030   3.151   1.869  0.00  0.00    +0.050 A 
ATOM      8  C   LIG    1        3.641   3.374   0.653  0.00  0.00    -0.120 A 
ATOM      9  C   LIG    1        3.502   2.373  -0.469  0.00  0.00    +0.140 C 
ATOM     10  C   LIG    1        2.648   4.517  -1.706  0.00  0.00    -0.020 C 
ATOM     11 CL   LIG    1        1.655   5.034  -3.119  0.00  0.00    -0.070 Cl
ATOM     12 CL   LIG    1        2.045   5.055  -0.094  0.00  0.00    -0.050 Cl
ATOM     13  C   LIG    1        3.328   3.148  -1.785  0.00  0.00    +0.020 C 
ENDROOT
BRANCH   9  14
ATOM     14  C   LIG    1        2.296   1.502  -0.228  0.00  0.00    -0.080 A 
ATOM     15  C   LIG    1        1.028   2.051  -0.265  0.00  0.00    +0.020 A 
ATOM     16  C   LIG    1       -0.078   1.253  -0.043  0.00  0.00    +0.000 A 
ATOM     17  C   LIG    1        0.083  -0.095   0.216  0.00  0.00    +0.010 A 
ATOM     18  C   LIG    1        1.351  -0.645   0.253  0.00  0.00    +0.000 A 
ATOM     19  C   LIG    1        2.458   0.153   0.031  0.00  0.00    -0.070 A 
ATOM     20  C   LIG    1        3.840  -0.446   0.072  0.00  0.00    +0.090 C 
ENDBRANCH   9  14
BRANCH   1  24
ATOM     21  C   LIG    1        5.777   5.530  -5.704  0.00  0.00    +0.150 A 
ATOM     22  C   LIG    1        6.450   5.871  -4.540  0.00  0.00    -0.010 A 
ATOM     23  C   LIG    1        5.927   5.516  -3.312  0.00  0.00    +0.100 A 
ATOM     24  C   LIG    1        4.734   4.821  -3.242  0.00  0.00    -0.100 A 
ATOM     25  C   LIG    1        4.064   4.475  -4.401  0.00  0.00    +0.070 A 
ATOM     26  C   LIG    1        4.580   4.832  -5.632  0.00  0.00    -0.080 A 
BRANCH  21  27
ATOM     27  O   LIG    1        6.290   5.878  -6.914  0.00  0.00    -0.310 OA
BRANCH  27  29
ATOM     28  C   LIG    1        6.272   5.969  -9.329  0.00  0.00    +0.070 C 
ATOM     29  C   LIG    1        5.544   5.494  -8.070  0.00  0.00    +0.170 C 
ENDBRANCH  27  29
ENDBRANCH  21  27
ENDBRANCH   1  24
TORSDOF 4
