REMARK  Name = ZINCrH000004s3Q6.0
REMARK                            x       y       z     vdW  Elec       q    Type
REMARK                         _______ _______ _______ _____ _____    ______ ____
ROOT
ATOM      1  N   LIG    1        4.859   2.631   1.872  0.00  0.00    -0.560 N 
ATOM      2  C   LIG    1        5.452   1.617   1.232  0.00  0.00    +0.710 C 
ATOM      3  N   LIG    1        4.813   1.283   0.096  0.00  0.00    -0.720 N 
ATOM      4  H   LIG    1        5.063   0.581  -0.525  0.00  0.00    +0.440 HD
ATOM      5  C   LIG    1        3.658   2.191  -0.021  0.00  0.00    +0.170 C 
ATOM      6  C   LIG    1        3.762   3.039  -1.290  0.00  0.00    +0.110 C 
ATOM      7  O   LIG    1        6.456   1.060   1.631  0.00  0.00    -0.530 OA
ATOM      8  C   LIG    1        3.765   3.063   1.214  0.00  0.00    +0.540 C 
ATOM      9  O   LIG    1        3.021   3.963   1.542  0.00  0.00    -0.430 OA
ENDROOT
BRANCH   5  10
ATOM     10  C   LIG    1        2.368   1.412  -0.009  0.00  0.00    -0.090 A 
ATOM     11  C   LIG    1        2.395   0.030  -0.021  0.00  0.00    +0.070 A 
ATOM     12  C   LIG    1        1.212  -0.685  -0.011  0.00  0.00    +0.050 A 
ATOM     13  C   LIG    1        0.000  -0.018   0.011  0.00  0.00    -0.010 A 
ATOM     14  C   LIG    1       -0.027   1.365   0.023  0.00  0.00    +0.050 A 
ATOM     15 CL   LIG    1       -1.485  -0.916   0.023  0.00  0.00    -0.050 Cl
ATOM     16  C   LIG    1        1.157   2.080   0.013  0.00  0.00    -0.010 A 
ATOM     17 CL   LIG    1        1.123   3.816   0.028  0.00  0.00    -0.020 Cl
ENDBRANCH   5  10
BRANCH   1  18
ATOM     18  C   LIG    1        5.339   3.201   3.134  0.00  0.00    +0.360 C 
BRANCH  18  21
ATOM     19  N   LIG    1        4.999   2.825   5.555  0.00  0.00    -0.660 N 
ATOM     20  H   LIG    1        5.680   3.495   5.724  0.00  0.00    +0.410 HD
ATOM     21  C   LIG    1        4.704   2.471   4.289  0.00  0.00    +0.500 C 
ATOM     22  O   LIG    1        3.926   1.564   4.079  0.00  0.00    -0.500 OA
BRANCH  19  29
ATOM     23  C   LIG    1        6.290   2.759   8.090  0.00  0.00    +0.080 C 
ATOM     24  C   LIG    1        4.918   2.174   7.879  0.00  0.00    -0.120 A 
ATOM     25  C   LIG    1        4.249   1.583   8.933  0.00  0.00    +0.030 A 
ATOM     26  C   LIG    1        2.989   1.045   8.740  0.00  0.00    -0.010 A 
ATOM     27  C   LIG    1        2.396   1.097   7.492  0.00  0.00    +0.030 A 
ATOM     28  C   LIG    1        3.057   1.692   6.436  0.00  0.00    +0.010 A 
ATOM     29  C   LIG    1        4.324   2.227   6.625  0.00  0.00    +0.150 A 
ENDBRANCH  19  29
ENDBRANCH  18  21
ENDBRANCH   1  18
TORSDOF 4
