REMARK  Name = ZINCvU00000008FI.0
REMARK                            x       y       z     vdW  Elec       q    Type
REMARK                         _______ _______ _______ _____ _____    ______ ____
ROOT
ATOM      1  C   LIG    1        5.097  -0.837   9.164  0.00  0.00    +0.070 A 
ATOM      2  C   LIG    1        5.295  -1.449  10.424  0.00  0.00    -0.060 A 
ATOM      3  C   LIG    1        4.371  -2.336  10.986  0.00  0.00    +0.050 A 
ATOM      4  C   LIG    1        4.630  -2.887  12.207  0.00  0.00    +0.050 A 
ATOM      5  C   LIG    1        5.798  -2.580  12.900  0.00  0.00    +0.050 A 
ATOM      6  C   LIG    1        6.724  -1.727  12.373  0.00  0.00    +0.050 A 
ATOM      7  C   LIG    1        6.486  -1.140  11.127  0.00  0.00    -0.050 A 
ATOM      8  C   LIG    1        7.391  -0.232  10.523  0.00  0.00    +0.150 A 
ATOM      9  N   LIG    1        7.091   0.279   9.341  0.00  0.00    -0.240 NA
ATOM     10  N   LIG    1        6.017  -0.004   8.704  0.00  0.00    -0.270 NA
ENDROOT
BRANCH   8  11
ATOM     11  C   LIG    1        8.652   0.139  11.205  0.00  0.00    -0.060 A 
ATOM     12  C   LIG    1        9.065   1.471  11.237  0.00  0.00    +0.090 A 
ATOM     13  C   LIG    1       10.238   1.812  11.878  0.00  0.00    -0.010 A 
ATOM     14  C   LIG    1       11.012   0.832  12.479  0.00  0.00    +0.120 A 
ATOM     15  C   LIG    1       10.609  -0.494  12.445  0.00  0.00    -0.010 A 
ATOM     16  F   LIG    1       12.163   1.169  13.101  0.00  0.00    -0.130 F 
ATOM     17  C   LIG    1        9.435  -0.844  11.811  0.00  0.00    +0.070 A 
ENDBRANCH   8  11
BRANCH   1  18
ATOM     18  S   LIG    1        3.645  -1.172   8.224  0.00  0.00    +0.070 S 
BRANCH  18  19
ATOM     19  C   LIG    1        3.958  -0.130   6.778  0.00  0.00    +0.130 C 
BRANCH  19  22
ATOM     20  N   LIG    1        2.829   0.430   4.649  0.00  0.00    -0.620 N 
ATOM     21  H   LIG    1        3.578   1.010   4.441  0.00  0.00    +0.440 HD
ATOM     22  C   LIG    1        2.813  -0.260   5.807  0.00  0.00    +0.530 C 
ATOM     23  O   LIG    1        1.877  -0.986   6.067  0.00  0.00    -0.480 OA
BRANCH  20  27
ATOM     24  C   LIG    1        0.410   0.476   2.057  0.00  0.00    +0.050 A 
ATOM     25  N   LIG    1       -0.068  -0.337   2.956  0.00  0.00    -0.360 NA
ATOM     26  O   LIG    1        0.676  -0.447   3.903  0.00  0.00    +0.110 OA
ATOM     27  C   LIG    1        1.774   0.311   3.756  0.00  0.00    +0.210 A 
ATOM     28  C   LIG    1        1.646   0.940   2.551  0.00  0.00    -0.080 A 
BRANCH  24  30
ATOM     29  C   LIG    1        0.485   0.139  -0.399  0.00  0.00    +0.050 C 
ATOM     30  C   LIG    1       -0.234   0.852   0.747  0.00  0.00    +0.010 C 
ATOM     31  C   LIG    1       -1.706   0.433   0.765  0.00  0.00    +0.040 C 
ATOM     32  C   LIG    1       -0.138   2.366   0.547  0.00  0.00    +0.050 C 
ENDBRANCH  24  30
ENDBRANCH  20  27
ENDBRANCH  19  22
ENDBRANCH  18  19
ENDBRANCH   1  18
TORSDOF 6
