REMARK  Name = ZINCrD00000hQ6B1.0
REMARK                            x       y       z     vdW  Elec       q    Type
REMARK                         _______ _______ _______ _____ _____    ______ ____
ROOT
ATOM      1  C   LIG    1        4.993   4.657   0.126  0.00  0.00    +0.240 C 
ENDROOT
BRANCH   1   2
ATOM      2  C   LIG    1        5.976   3.968  -0.786  0.00  0.00    +0.520 C 
ATOM      3  N   LIG    1        7.264   4.362  -0.809  0.00  0.00    -0.590 N 
ATOM      4  C   LIG    1        7.702   5.535  -0.041  0.00  0.00    +0.260 C 
ATOM      5  C   LIG    1        8.882   5.121   0.852  0.00  0.00    +0.040 C 
ATOM      6  C   LIG    1        9.976   4.495  -0.016  0.00  0.00    +0.010 C 
ATOM      7  C   LIG    1        9.429   3.241  -0.702  0.00  0.00    +0.160 C 
ATOM      8  C   LIG    1        8.257   3.630  -1.608  0.00  0.00    +0.260 C 
ATOM      9  O   LIG    1        5.606   3.058  -1.498  0.00  0.00    -0.540 OA
BRANCH   6  10
ATOM     10  C   LIG    1       11.169   4.115   0.864  0.00  0.00    -0.060 C 
ATOM     11  C   LIG    1       10.693   3.225   2.013  0.00  0.00    +0.030 C 
ATOM     12  C   LIG    1       11.808   5.384   1.432  0.00  0.00    +0.010 C 
ATOM     13  C   LIG    1       12.200   3.357   0.025  0.00  0.00    +0.020 C 
ENDBRANCH   6  10
BRANCH   7  14
ATOM     14  O   LIG    1        8.980   2.312   0.287  0.00  0.00    -0.550 OA
ATOM     15  H   LIG    1        8.618   1.493  -0.078  0.00  0.00    +0.370 HD
ENDBRANCH   7  14
ENDBRANCH   1   2
BRANCH   1  16
ATOM     16  N   LIG    1        3.670   4.671  -0.504  0.00  0.00    -0.710 N 
ATOM     17  H   LIG    1        3.439   3.998  -1.163  0.00  0.00    +0.410 HD
ATOM     18  C   LIG    1        2.774   5.620  -0.167  0.00  0.00    +0.560 C 
ATOM     19  O   LIG    1        3.063   6.463   0.659  0.00  0.00    -0.510 OA
BRANCH  18  20
ATOM     20  C   LIG    1        1.440   5.634  -0.802  0.00  0.00    -0.130 A 
ATOM     21  C   LIG    1        1.104   4.667  -1.751  0.00  0.00    +0.060 A 
ATOM     22  C   LIG    1       -0.143   4.687  -2.340  0.00  0.00    +0.020 A 
ATOM     23  C   LIG    1       -1.059   5.665  -1.997  0.00  0.00    +0.060 A 
ATOM     24  C   LIG    1       -0.737   6.624  -1.054  0.00  0.00    +0.020 A 
ATOM     25  C   LIG    1        0.508   6.617  -0.455  0.00  0.00    +0.020 A 
ATOM     26 CL   LIG    1        0.914   7.825   0.723  0.00  0.00    -0.030 Cl
ENDBRANCH  18  20
ENDBRANCH   1  16
BRANCH   1  28
ATOM     27  C   LIG    1        6.318   3.794   2.060  0.00  0.00    +0.040 C 
ATOM     28  C   LIG    1        4.917   3.905   1.456  0.00  0.00    -0.020 C 
ATOM     29  C   LIG    1        4.005   4.666   2.420  0.00  0.00    +0.030 C 
ENDBRANCH   1  28
TORSDOF 6
