REMARK  Name = ZINCtj0000003TJl.0
REMARK                            x       y       z     vdW  Elec       q    Type
REMARK                         _______ _______ _______ _____ _____    ______ ____
ROOT
ATOM      1  N   LIG    1       -2.466   3.818   0.047  0.00  0.00    -0.680 N 
ATOM      2  H   LIG    1       -2.480   4.786   0.110  0.00  0.00    +0.410 HD
ATOM      3  C   LIG    1       -3.622   3.133  -0.049  0.00  0.00    +0.710 C 
ATOM      4  N   LIG    1       -4.793   3.795  -0.136  0.00  0.00    -0.620 N 
ATOM      5  C   LIG    1       -4.819   5.261  -0.233  0.00  0.00    +0.260 C 
ATOM      6  C   LIG    1       -5.727   5.816   0.862  0.00  0.00    +0.020 C 
ATOM      7  C   LIG    1       -7.104   5.155   0.763  0.00  0.00    +0.040 C 
ATOM      8  C   LIG    1       -6.963   3.646   0.970  0.00  0.00    -0.030 C 
ATOM      9  C   LIG    1       -6.068   3.065  -0.129  0.00  0.00    +0.290 C 
ATOM     10  O   LIG    1       -3.610   1.917  -0.056  0.00  0.00    -0.570 OA
ENDROOT
BRANCH   1  16
ATOM     11  C   LIG    1       -0.086   3.761  -0.409  0.00  0.00    -0.130 A 
ATOM     12  C   LIG    1        1.121   3.076  -0.400  0.00  0.00    +0.020 A 
ATOM     13  C   LIG    1        1.174   1.776   0.068  0.00  0.00    +0.010 A 
ATOM     14  C   LIG    1        0.027   1.155   0.526  0.00  0.00    +0.030 A 
ATOM     15  C   LIG    1       -1.181   1.827   0.515  0.00  0.00    +0.050 A 
ATOM     16  C   LIG    1       -1.243   3.133   0.054  0.00  0.00    +0.180 A 
BRANCH  11  17
ATOM     17  S   LIG    1       -0.157   5.418  -1.003  0.00  0.00    -0.040 S 
BRANCH  17  18
ATOM     18  C   LIG    1        1.562   5.758  -1.472  0.00  0.00    +0.090 C 
BRANCH  18  22
ATOM     19  N   LIG    1        2.860   7.637  -2.423  0.00  0.00    -0.850 N 
ATOM     20  H   LIG    1        2.928   8.540  -2.768  0.00  0.00    +0.410 HD
ATOM     21  H   LIG    1        3.649   7.075  -2.374  0.00  0.00    +0.410 HD
ATOM     22  C   LIG    1        1.668   7.162  -2.009  0.00  0.00    +0.540 C 
ATOM     23  O   LIG    1        0.681   7.864  -2.070  0.00  0.00    -0.520 OA
ENDBRANCH  18  22
ENDBRANCH  17  18
ENDBRANCH  11  17
ENDBRANCH   1  16
BRANCH   8  24
ATOM     24  C   LIG    1       -8.344   2.990   0.904  0.00  0.00    +0.290 C 
BRANCH  24  25
ATOM     25  N   LIG    1       -8.223   1.564   1.216  0.00  0.00    -0.700 N 
ATOM     26  H   LIG    1       -7.354   1.184   1.422  0.00  0.00    +0.410 HD
ATOM     27  C   LIG    1       -9.318   0.779   1.219  0.00  0.00    +0.510 C 
ATOM     28  O   LIG    1      -10.405   1.253   0.962  0.00  0.00    -0.520 OA
BRANCH  27  29
ATOM     29  C   LIG    1       -9.193  -0.688   1.540  0.00  0.00    +0.180 C 
ATOM     30  C   LIG    1       -8.700  -1.470   0.304  0.00  0.00    +0.080 C 
ATOM     31  C   LIG    1       -9.464  -2.809   0.345  0.00  0.00    +0.070 C 
ATOM     32  C   LIG    1      -10.355  -2.724   1.602  0.00  0.00    +0.280 C 
ATOM     33  N   LIG    1      -10.528  -1.268   1.841  0.00  0.00    -0.510 N 
ATOM     34  H   LIG    1      -11.226  -0.889   1.219  0.00  0.00    +0.440 HD
ATOM     35  H   LIG    1      -10.778  -1.095   2.803  0.00  0.00    +0.440 HD
ENDBRANCH  27  29
ENDBRANCH  24  25
ENDBRANCH   8  24
TORSDOF 7
