REMARK  Name = ZINCnE000008JbdS.1
REMARK                            x       y       z     vdW  Elec       q    Type
REMARK                         _______ _______ _______ _____ _____    ______ ____
ROOT
ATOM      1  C   LIG    1       -1.276  -3.313  -0.002  0.00  0.00    +0.050 C 
ATOM      2  C   LIG    1       -0.802  -2.351   0.830  0.00  0.00    +0.000 C 
ATOM      3  O   LIG    1       -1.250  -1.075   0.914  0.00  0.00    -0.230 OA
ATOM      4  C   LIG    1       -0.571  -0.365   1.841  0.00  0.00    +0.170 A 
ATOM      5  C   LIG    1       -0.690   0.956   2.255  0.00  0.00    -0.160 A 
ATOM      6  C   LIG    1        0.146   1.449   3.244  0.00  0.00    +0.320 A 
ATOM      7  C   LIG    1        1.108   0.633   3.832  0.00  0.00    -0.170 A 
ATOM      8  C   LIG    1        1.238  -0.669   3.435  0.00  0.00    +0.140 A 
ATOM      9  O   LIG    1        0.025   2.741   3.644  0.00  0.00    -0.690 OA
ATOM     10  C   LIG    1        0.404  -1.179   2.441  0.00  0.00    -0.400 A 
ATOM     11  C   LIG    1        0.288  -2.504   1.803  0.00  0.00    +0.410 C 
ATOM     12  O   LIG    1        0.950  -3.502   2.032  0.00  0.00    -0.460 OA
ENDROOT
BRANCH   1  16
ATOM     13  C   LIG    1        0.756  -7.024  -0.321  0.00  0.00    +0.110 A 
ATOM     14  C   LIG    1        1.480  -5.844  -0.223  0.00  0.00    -0.050 A 
ATOM     15  C   LIG    1        0.825  -4.636  -0.124  0.00  0.00    +0.080 A 
ATOM     16  C   LIG    1       -0.575  -4.598  -0.112  0.00  0.00    -0.050 A 
ATOM     17  C   LIG    1       -1.304  -5.790  -0.211  0.00  0.00    -0.010 A 
ATOM     18  C   LIG    1       -0.639  -6.995  -0.315  0.00  0.00    +0.090 A 
BRANCH  18  19
ATOM     19  O   LIG    1       -1.343  -8.155  -0.411  0.00  0.00    -0.310 OA
ATOM     20  C   LIG    1       -2.768  -8.051  -0.398  0.00  0.00    +0.230 C 
ENDBRANCH  18  19
BRANCH  13  21
ATOM     21  O   LIG    1        1.408  -8.211  -0.423  0.00  0.00    -0.310 OA
BRANCH  21  23
ATOM     22  C   LIG    1        3.388  -9.591  -0.544  0.00  0.00    +0.060 C 
ATOM     23  C   LIG    1        2.836  -8.169  -0.423  0.00  0.00    +0.170 C 
ENDBRANCH  21  23
ENDBRANCH  13  21
ENDBRANCH   1  16
TORSDOF 4
