REMARK  Name = ZINCtV000002wLFQ.0
REMARK                            x       y       z     vdW  Elec       q    Type
REMARK                         _______ _______ _______ _____ _____    ______ ____
ROOT
ATOM      1  S   LIG    1        1.156   4.190   1.719  0.00  0.00    +0.080 S 
ENDROOT
BRANCH   1   2
ATOM      2  C   LIG    1        1.127   5.929   1.438  0.00  0.00    +0.120 A 
ATOM      3  N   LIG    1        1.113   6.527   0.271  0.00  0.00    -0.280 NA
ATOM      4  N   LIG    1        1.091   7.801   0.442  0.00  0.00    -0.270 NA
ATOM      5  C   LIG    1        1.098   8.070   1.726  0.00  0.00    +0.260 A 
ATOM      6  O   LIG    1        1.121   6.890   2.384  0.00  0.00    -0.210 OA
BRANCH   5   7
ATOM      7  C   LIG    1        1.084   9.412   2.338  0.00  0.00    -0.130 A 
ATOM      8  C   LIG    1        1.092   9.699   3.666  0.00  0.00    +0.310 A 
ATOM      9  N   LIG    1        1.074  11.051   3.845  0.00  0.00    -0.580 N 
ATOM     10  H   LIG    1        1.075  11.497   4.706  0.00  0.00    +0.430 HD
ATOM     11  C   LIG    1        1.053  11.693   2.625  0.00  0.00    +0.090 A 
ATOM     12  C   LIG    1        1.029  13.034   2.255  0.00  0.00    +0.000 A 
ATOM     13  C   LIG    1        1.012  13.379   0.921  0.00  0.00    +0.040 A 
ATOM     14  C   LIG    1        1.017  12.400  -0.062  0.00  0.00    -0.010 A 
ATOM     15  C   LIG    1        1.040  11.067   0.283  0.00  0.00    +0.080 A 
ATOM     16  C   LIG    1        1.065  10.703   1.628  0.00  0.00    -0.070 A 
ENDBRANCH   5   7
ENDBRANCH   1   2
BRANCH   1  17
ATOM     17  C   LIG    1        1.149   3.596   0.010  0.00  0.00    +0.160 C 
BRANCH  17  21
ATOM     18  C   LIG    1        1.218  -0.681  -0.013  0.00  0.00    +0.120 A 
ATOM     19  C   LIG    1        2.405   0.033  -0.021  0.00  0.00    +0.000 A 
ATOM     20  C   LIG    1        2.380   1.417  -0.013  0.00  0.00    -0.070 A 
ATOM     21  C   LIG    1        1.171   2.089   0.002  0.00  0.00    -0.050 A 
ATOM     22  C   LIG    1       -0.017   1.381   0.010  0.00  0.00    +0.000 A 
ATOM     23 BR   LIG    1        4.001   2.390  -0.023  0.00  0.00    -0.030 Br
ATOM     24  C   LIG    1        0.002  -0.004   0.002  0.00  0.00    +0.120 A 
BRANCH  18  25
ATOM     25  O   LIG    1        1.241  -2.041  -0.020  0.00  0.00    -0.300 OA
BRANCH  25  27
ATOM     26  C   LIG    1        2.351  -4.188  -0.042  0.00  0.00    +0.070 C 
ATOM     27  C   LIG    1        2.525  -2.668  -0.036  0.00  0.00    +0.190 C 
ENDBRANCH  25  27
ENDBRANCH  18  25
BRANCH  24  28
ATOM     28  O   LIG    1       -1.166  -0.701   0.010  0.00  0.00    -0.300 OA
BRANCH  28  29
ATOM     29  C   LIG    1       -2.375   0.059   0.026  0.00  0.00    +0.190 C 
ATOM     30  C   LIG    1       -3.575  -0.891   0.033  0.00  0.00    +0.070 C 
ENDBRANCH  28  29
ENDBRANCH  24  28
ENDBRANCH  17  21
ENDBRANCH   1  17
TORSDOF 8
