REMARK  Name = ZINCvU00000009kD.0
REMARK                            x       y       z     vdW  Elec       q    Type
REMARK                         _______ _______ _______ _____ _____    ______ ____
ROOT
ATOM      1  C   LIG    1       -2.410   6.604   0.057  0.00  0.00    +0.190 C 
ATOM      2  C   LIG    1       -1.664   5.295   0.043  0.00  0.00    +0.300 A 
ATOM      3  N   LIG    1       -0.369   5.175   0.031  0.00  0.00    -0.480 NA
ATOM      4  C   LIG    1       -0.032   3.859   0.022  0.00  0.00    +0.040 A 
ATOM      5  C   LIG    1        1.185   3.181   0.007  0.00  0.00    +0.170 A 
ATOM      6  C   LIG    1        1.194   1.788   0.000  0.00  0.00    -0.140 A 
ATOM      7  C   LIG    1       -0.013   1.076   0.008  0.00  0.00    +0.100 A 
ATOM      8  C   LIG    1       -1.206   1.737   0.017  0.00  0.00    +0.010 A 
ATOM      9  C   LIG    1       -1.234   3.127   0.030  0.00  0.00    +0.080 A 
ATOM     10  N   LIG    1       -2.248   4.063   0.043  0.00  0.00    -0.440 N 
ENDROOT
BRANCH  10  11
ATOM     11  C   LIG    1       -3.623   3.796   0.055  0.00  0.00    +0.110 A 
ATOM     12  C   LIG    1       -4.221   3.176  -1.034  0.00  0.00    +0.020 A 
ATOM     13  C   LIG    1       -5.576   2.909  -1.018  0.00  0.00    +0.040 A 
ATOM     14  C   LIG    1       -6.340   3.270   0.077  0.00  0.00    +0.030 A 
ATOM     15  C   LIG    1       -5.749   3.893   1.161  0.00  0.00    +0.040 A 
ATOM     16  C   LIG    1       -4.393   4.157   1.153  0.00  0.00    +0.020 A 
ENDBRANCH  10  11
BRANCH   6  17
ATOM     17  C   LIG    1        2.478   1.061  -0.015  0.00  0.00    +0.520 C 
ATOM     18  O   LIG    1        3.525   1.677  -0.022  0.00  0.00    -0.500 OA
BRANCH  17  19
ATOM     19  O   LIG    1        2.489  -0.286  -0.022  0.00  0.00    -0.330 OA
BRANCH  19  20
ATOM     20  C   LIG    1        3.788  -0.935  -0.038  0.00  0.00    +0.160 C 
ATOM     21  C   LIG    1        4.231  -1.155  -1.486  0.00  0.00    +0.070 C 
BRANCH  20  22
ATOM     22  C   LIG    1        3.694  -2.264   0.667  0.00  0.00    +0.400 C 
ATOM     23  O   LIG    1        2.615  -2.798   0.814  0.00  0.00    -0.410 OA
BRANCH  22  24
ATOM     24  C   LIG    1        4.911  -2.913   1.177  0.00  0.00    -0.150 A 
ATOM     25  C   LIG    1        4.827  -4.147   1.831  0.00  0.00    +0.120 A 
ATOM     26  C   LIG    1        5.971  -4.751   2.306  0.00  0.00    +0.030 A 
ATOM     27  C   LIG    1        7.204  -4.140   2.137  0.00  0.00    +0.100 A 
ATOM     28  C   LIG    1        7.295  -2.915   1.489  0.00  0.00    +0.060 A 
ATOM     29  F   LIG    1        8.500  -2.325   1.328  0.00  0.00    -0.120 F 
ATOM     30  F   LIG    1        8.321  -4.738   2.605  0.00  0.00    -0.120 F 
ATOM     31  C   LIG    1        6.158  -2.302   1.004  0.00  0.00    +0.080 A 
ENDBRANCH  22  24
ENDBRANCH  20  22
ENDBRANCH  19  20
ENDBRANCH  17  19
ENDBRANCH   6  17
TORSDOF 6
