REMARK  Name = ZINCtV00000L6jVL.0
REMARK                            x       y       z     vdW  Elec       q    Type
REMARK                         _______ _______ _______ _____ _____    ______ ____
ROOT
ATOM      1  C   LIG    1       -0.015   1.091   0.012  0.00  0.00    +0.250 C 
ENDROOT
BRANCH   1   2
ATOM      2  C   LIG    1       -0.716   1.588   1.250  0.00  0.00    -0.120 A 
ATOM      3  C   LIG    1       -1.305   2.838   1.256  0.00  0.00    +0.040 A 
ATOM      4  C   LIG    1       -1.952   3.292   2.391  0.00  0.00    +0.010 A 
ATOM      5  C   LIG    1       -2.002   2.499   3.522  0.00  0.00    +0.030 A 
ATOM      6  C   LIG    1       -1.408   1.250   3.518  0.00  0.00    +0.010 A 
ATOM      7  C   LIG    1       -0.765   0.795   2.382  0.00  0.00    +0.030 A 
ENDBRANCH   1   2
BRANCH   1   8
ATOM      8  C   LIG    1        1.401   1.606  -0.004  0.00  0.00    +0.530 C 
ATOM      9  N   LIG    1        2.274   1.208   0.943  0.00  0.00    -0.660 N 
ATOM     10  H   LIG    1        1.974   0.643   1.672  0.00  0.00    +0.420 HD
ATOM     11  O   LIG    1        1.756   2.379  -0.868  0.00  0.00    -0.480 OA
BRANCH   9  12
ATOM     12  C   LIG    1        3.613   1.608   0.874  0.00  0.00    +0.170 A 
ATOM     13  C   LIG    1        4.619   0.750   1.297  0.00  0.00    +0.020 A 
ATOM     14  C   LIG    1        5.941   1.146   1.222  0.00  0.00    -0.000 A 
ATOM     15  C   LIG    1        6.262   2.402   0.737  0.00  0.00    +0.040 A 
ATOM     16  C   LIG    1        5.261   3.261   0.320  0.00  0.00    -0.000 A 
ATOM     17 CL   LIG    1        5.668   4.836  -0.288  0.00  0.00    -0.050 Cl
ATOM     18 CL   LIG    1        7.200   0.070   1.744  0.00  0.00    -0.050 Cl
ATOM     19  C   LIG    1        3.938   2.868   0.387  0.00  0.00    +0.050 A 
ENDBRANCH   9  12
ENDBRANCH   1   8
BRANCH   1  20
ATOM     20  O   LIG    1       -0.717   1.568  -1.166  0.00  0.00    -0.310 OA
BRANCH  20  22
ATOM     21  O   LIG    1       -1.958  -0.272  -1.110  0.00  0.00    -0.470 OA
ATOM     22  C   LIG    1       -1.696   0.783  -1.654  0.00  0.00    +0.520 C 
BRANCH  22  23
ATOM     23  C   LIG    1       -2.453   1.204  -2.849  0.00  0.00    -0.090 A 
ATOM     24  C   LIG    1       -2.007   0.847  -4.125  0.00  0.00    +0.010 A 
ATOM     25  C   LIG    1       -2.724   1.239  -5.238  0.00  0.00    +0.050 A 
ATOM     26  C   LIG    1       -3.873   1.995  -5.094  0.00  0.00    +0.080 A 
ATOM     27  C   LIG    1       -4.318   2.357  -3.835  0.00  0.00    +0.050 A 
ATOM     28 CL   LIG    1       -0.560  -0.095  -4.309  0.00  0.00    -0.030 Cl
ATOM     29  C   LIG    1       -3.616   1.968  -2.712  0.00  0.00    +0.010 A 
ATOM     30 CL   LIG    1       -4.176   2.423  -1.133  0.00  0.00    -0.030 Cl
ENDBRANCH  22  23
ENDBRANCH  20  22
ENDBRANCH   1  20
TORSDOF 6
