REMARK  Name = ZINCpk000005mT0R.0
REMARK                            x       y       z     vdW  Elec       q    Type
REMARK                         _______ _______ _______ _____ _____    ______ ____
ROOT
ATOM      1  C   LIG    1       -5.120   0.271   1.196  0.00  0.00    +0.490 C 
ATOM      2  N   LIG    1       -5.426   0.126  -0.108  0.00  0.00    -0.610 N 
ATOM      3  C   LIG    1       -4.770   0.957  -1.128  0.00  0.00    +0.260 C 
ATOM      4  C   LIG    1       -4.126   0.036  -2.171  0.00  0.00    +0.270 C 
ATOM      5  N   LIG    1       -5.121  -0.957  -2.600  0.00  0.00    -0.610 N 
ATOM      6  C   LIG    1       -5.777  -1.788  -1.580  0.00  0.00    +0.290 C 
ATOM      7  C   LIG    1       -5.427  -1.102  -3.904  0.00  0.00    +0.600 C 
ATOM      8  O   LIG    1       -6.228  -1.950  -4.250  0.00  0.00    -0.540 OA
ATOM      9  C   LIG    1       -6.417  -0.870  -0.538  0.00  0.00    +0.230 C 
ATOM     10  C   LIG    1       -7.624  -0.161  -1.155  0.00  0.00    +0.030 C 
ATOM     11  O   LIG    1       -5.668  -0.420   2.028  0.00  0.00    -0.520 OA
ENDROOT
BRANCH   7  12
ATOM     12  C   LIG    1       -4.791  -0.234  -4.912  0.00  0.00    -0.300 A 
ATOM     13  C   LIG    1       -5.345   0.173  -6.109  0.00  0.00    +0.160 A 
ATOM     14  N   LIG    1       -4.441   0.951  -6.726  0.00  0.00    -0.360 N 
ATOM     15  N   LIG    1       -3.304   1.039  -5.914  0.00  0.00    -0.290 NA
ATOM     16  C   LIG    1       -4.615   1.598  -8.028  0.00  0.00    +0.360 C 
ATOM     17  C   LIG    1       -6.712  -0.190  -6.629  0.00  0.00    +0.170 C 
ATOM     18  C   LIG    1       -3.504   0.343  -4.830  0.00  0.00    +0.270 A 
ENDBRANCH   7  12
BRANCH   1  19
ATOM     19  C   LIG    1       -4.097   1.293   1.621  0.00  0.00    +0.160 C 
BRANCH  19  21
ATOM     20  C   LIG    1       -2.747   0.350   3.362  0.00  0.00    +0.200 C 
ATOM     21  O   LIG    1       -3.862   1.177   3.025  0.00  0.00    -0.350 OA
ENDBRANCH  19  21
BRANCH  19  22
ATOM     22  C   LIG    1       -4.616   2.697   1.304  0.00  0.00    +0.050 C 
BRANCH  22  23
ATOM     23  C   LIG    1       -3.537   3.728   1.640  0.00  0.00    -0.020 C 
ATOM     24  C   LIG    1       -4.105   5.138   1.463  0.00  0.00    +0.020 C 
ATOM     25  C   LIG    1       -2.341   3.539   0.704  0.00  0.00    +0.020 C 
ENDBRANCH  22  23
ENDBRANCH  19  22
ENDBRANCH   1  19
TORSDOF 5
