REMARK  Name = ZINCpe000000Z27G.0
REMARK                            x       y       z     vdW  Elec       q    Type
REMARK                         _______ _______ _______ _____ _____    ______ ____
ROOT
ATOM      1  C   LIG    1        4.495   5.848   0.165  0.00  0.00    +0.530 C 
ATOM      2  N   LIG    1        5.580   6.633   0.015  0.00  0.00    -0.610 N 
ATOM      3  C   LIG    1        6.980   6.170  -0.001  0.00  0.00    +0.250 C 
ATOM      4  C   LIG    1        7.813   7.403   0.422  0.00  0.00    +0.030 C 
ATOM      5  C   LIG    1        7.033   8.558  -0.260  0.00  0.00    +0.060 C 
ATOM      6  C   LIG    1        5.565   8.093  -0.155  0.00  0.00    +0.220 C 
ATOM      7  O   LIG    1        3.394   6.347   0.259  0.00  0.00    -0.530 OA
ENDROOT
BRANCH   1   8
ATOM      8  C   LIG    1        4.650   4.350   0.217  0.00  0.00    +0.300 C 
BRANCH   8  11
ATOM      9  O   LIG    1        4.222   1.692   0.383  0.00  0.00    -0.530 OA
ATOM     10  C   LIG    1        3.227   2.386   0.457  0.00  0.00    +0.560 C 
ATOM     11  N   LIG    1        3.334   3.728   0.384  0.00  0.00    -0.710 N 
ATOM     12  H   LIG    1        2.540   4.282   0.443  0.00  0.00    +0.410 HD
BRANCH  10  13
ATOM     13  C   LIG    1        1.899   1.759   0.626  0.00  0.00    -0.110 A 
ATOM     14  C   LIG    1        0.755   2.553   0.711  0.00  0.00    +0.040 A 
ATOM     15  C   LIG    1       -0.482   1.963   0.870  0.00  0.00    +0.040 A 
ATOM     16  C   LIG    1       -0.591   0.586   0.944  0.00  0.00    +0.010 A 
ATOM     17  C   LIG    1        0.541  -0.210   0.859  0.00  0.00    +0.090 A 
ATOM     18  F   LIG    1        0.427  -1.554   0.933  0.00  0.00    -0.130 F 
ATOM     19  C   LIG    1        1.785   0.370   0.701  0.00  0.00    +0.060 A 
ENDBRANCH  10  13
ENDBRANCH   8  11
ENDBRANCH   1   8
BRANCH   6  20
ATOM     20  C   LIG    1        4.809   8.460  -1.433  0.00  0.00    +0.180 C 
BRANCH  20  21
ATOM     21  N   LIG    1        4.673   9.921  -1.519  0.00  0.00    -0.530 NA
ATOM     22  C   LIG    1        3.824  10.435  -0.434  0.00  0.00    +0.150 C 
ATOM     23  C   LIG    1        3.757  11.961  -0.526  0.00  0.00    +0.220 C 
ATOM     24  O   LIG    1        3.271  12.336  -1.817  0.00  0.00    -0.380 OA
ATOM     25  C   LIG    1        4.074  11.852  -2.897  0.00  0.00    +0.220 C 
ATOM     26  C   LIG    1        4.144  10.324  -2.830  0.00  0.00    +0.150 C 
ENDBRANCH  20  21
ENDBRANCH   6  20
TORSDOF 5
