REMARK  Name = ZINCqH0000038aAu.0
REMARK                            x       y       z     vdW  Elec       q    Type
REMARK                         _______ _______ _______ _____ _____    ______ ____
ROOT
ATOM      1  C   LIG    1        4.960  -2.652  -0.308  0.00  0.00    +0.530 C 
ATOM      2  N   LIG    1        5.131  -3.946   0.029  0.00  0.00    -0.570 N 
ATOM      3  O   LIG    1        5.921  -1.918  -0.405  0.00  0.00    -0.470 OA
ENDROOT
BRANCH   2   4
ATOM      4  C   LIG    1        4.037  -4.818   0.035  0.00  0.00    +0.150 A 
ATOM      5  C   LIG    1        3.023  -4.656   0.971  0.00  0.00    -0.010 A 
ATOM      6  C   LIG    1        1.941  -5.514   0.971  0.00  0.00    +0.070 A 
ATOM      7  C   LIG    1        1.870  -6.541   0.049  0.00  0.00    -0.010 A 
ATOM      8  C   LIG    1        2.882  -6.710  -0.882  0.00  0.00    +0.120 A 
ATOM      9  F   LIG    1        2.810  -7.714  -1.783  0.00  0.00    -0.130 F 
ATOM     10  C   LIG    1        3.965  -5.850  -0.891  0.00  0.00    -0.020 A 
ENDBRANCH   2   4
BRANCH   1  11
ATOM     11  C   LIG    1        3.575  -2.117  -0.564  0.00  0.00    +0.230 C 
BRANCH  11  12
ATOM     12  O   LIG    1        3.663  -0.765  -1.018  0.00  0.00    -0.290 OA
BRANCH  12  17
ATOM     13  C   LIG    1       -1.182   1.863  -2.180  0.00  0.00    +0.100 C 
ATOM     14  C   LIG    1        0.114   1.162  -1.864  0.00  0.00    -0.120 A 
ATOM     15  C   LIG    1        0.100  -0.147  -1.420  0.00  0.00    +0.030 A 
ATOM     16  C   LIG    1        1.287  -0.795  -1.136  0.00  0.00    -0.070 A 
ATOM     17  C   LIG    1        2.494  -0.130  -1.296  0.00  0.00    +0.120 A 
ATOM     18  C   LIG    1        2.505   1.184  -1.742  0.00  0.00    -0.100 A 
ATOM     19  C   LIG    1        3.814   1.909  -1.917  0.00  0.00    +0.100 C 
ATOM     20  C   LIG    1        1.316   1.827  -2.025  0.00  0.00    +0.050 A 
ENDBRANCH  12  17
ENDBRANCH  11  12
ENDBRANCH   1  11
BRANCH   2  21
ATOM     21  C   LIG    1        6.462  -4.439   0.390  0.00  0.00    +0.430 C 
BRANCH  21  22
ATOM     22  C   LIG    1        6.670  -4.286   1.875  0.00  0.00    +0.180 A 
ATOM     23  N   LIG    1        7.095  -3.208   2.476  0.00  0.00    -0.460 NA
ATOM     24  C   LIG    1        7.155  -3.434   3.797  0.00  0.00    +0.140 A 
ATOM     25  C   LIG    1        6.760  -4.702   4.022  0.00  0.00    +0.130 A 
ATOM     26  N   LIG    1        6.452  -5.243   2.802  0.00  0.00    -0.560 N 
ATOM     27  H   LIG    1        6.137  -6.145   2.636  0.00  0.00    +0.420 HD
ENDBRANCH  21  22
ENDBRANCH   2  21
TORSDOF 6
