REMARK  Name = ZINCpe000000YCtc.0
REMARK                            x       y       z     vdW  Elec       q    Type
REMARK                         _______ _______ _______ _____ _____    ______ ____
ROOT
ATOM      1  C   LIG    1        3.917   1.871  -2.438  0.00  0.00    +0.330 C 
ATOM      2  C   LIG    1        4.037   1.251  -3.806  0.00  0.00    -0.280 A 
ATOM      3  C   LIG    1        4.563   1.435  -5.041  0.00  0.00    +0.300 A 
ATOM      4  N   LIG    1        4.224   0.369  -5.795  0.00  0.00    -0.460 N 
ATOM      5  H   LIG    1        4.463   0.229  -6.725  0.00  0.00    +0.450 HD
ATOM      6  N   LIG    1        3.466  -0.499  -4.999  0.00  0.00    -0.250 NA
ATOM      7  C   LIG    1        3.355   0.032  -3.806  0.00  0.00    +0.070 A 
ATOM      8  C   LIG    1        2.769  -0.192  -2.435  0.00  0.00    +0.420 C 
ATOM      9  N   LIG    1        3.123   0.963  -1.604  0.00  0.00    -0.990 NA
ENDROOT
BRANCH   1  13
ATOM     10  N   LIG    1        6.189   2.849  -2.440  0.00  0.00    -0.850 N 
ATOM     11  H   LIG    1        7.070   2.965  -2.053  0.00  0.00    +0.410 HD
ATOM     12  H   LIG    1        5.956   3.308  -3.262  0.00  0.00    +0.400 HD
ATOM     13  C   LIG    1        5.287   2.050  -1.836  0.00  0.00    +0.510 C 
ATOM     14  O   LIG    1        5.577   1.476  -0.808  0.00  0.00    -0.510 OA
ENDBRANCH   1  13
BRANCH   9  15
ATOM     15  S   LIG    1        2.710   1.194  -0.017  0.00  0.00    +2.720 S 
ATOM     16  O   LIG    1        2.455  -0.095   0.523  0.00  0.00    -0.910 OA
ATOM     17  O   LIG    1        3.676   2.086   0.523  0.00  0.00    -0.890 OA
BRANCH  15  18
ATOM     18  C   LIG    1        1.173   2.055   0.002  0.00  0.00    -0.740 A 
ATOM     19  C   LIG    1       -0.016   1.347   0.009  0.00  0.00    +0.220 A 
ATOM     20  C   LIG    1       -1.226   2.023   0.019  0.00  0.00    +0.040 A 
ATOM     21  C   LIG    1       -1.244   3.409   0.032  0.00  0.00    +0.150 A 
ATOM     22  C   LIG    1       -0.053   4.117   0.024  0.00  0.00    +0.040 A 
ATOM     23  F   LIG    1       -0.070   5.468   0.032  0.00  0.00    -0.090 F 
ATOM     24  F   LIG    1       -2.423   4.069   0.046  0.00  0.00    -0.080 F 
ATOM     25  F   LIG    1       -2.387   1.332   0.020  0.00  0.00    -0.090 F 
ATOM     26  F   LIG    1        0.002  -0.004   0.002  0.00  0.00    -0.070 F 
ATOM     27  C   LIG    1        1.155   3.439   0.009  0.00  0.00    +0.220 A 
ATOM     28  F   LIG    1        2.317   4.129   0.002  0.00  0.00    -0.070 F 
ENDBRANCH  15  18
ENDBRANCH   9  15
TORSDOF 3
