REMARK  Name = ZINCpk000000mRqW.0
REMARK                            x       y       z     vdW  Elec       q    Type
REMARK                         _______ _______ _______ _____ _____    ______ ____
ROOT
ATOM      1  C   LIG    1       -0.056   0.032   0.194  0.00  0.00    +0.280 C 
ATOM      2  C   LIG    1       -0.318  -0.408   1.635  0.00  0.00    +0.040 C 
ENDROOT
BRANCH   1   3
ATOM      3  C   LIG    1       -0.056   1.538   0.120  0.00  0.00    -0.080 A 
ATOM      4  C   LIG    1       -1.254   2.227   0.071  0.00  0.00    +0.010 A 
ATOM      5  C   LIG    1       -1.258   3.608   0.009  0.00  0.00    +0.040 A 
ATOM      6  C   LIG    1       -0.066   4.304  -0.016  0.00  0.00    +0.010 A 
ATOM      7  C   LIG    1        1.140   3.614   0.028  0.00  0.00    +0.140 A 
ATOM      8  C   LIG    1        1.141   2.227   0.096  0.00  0.00    +0.010 A 
BRANCH   7   9
ATOM      9  N   LIG    1        2.348   4.315   0.002  0.00  0.00    -1.060 N 
ATOM     10  H   LIG    1        3.055   4.085   0.626  0.00  0.00    +0.430 HD
BRANCH   9  11
ATOM     11  S   LIG    1        2.574   5.537  -1.092  0.00  0.00    +2.610 S 
ATOM     12  O   LIG    1        3.911   5.963  -0.870  0.00  0.00    -0.950 OA
ATOM     13  O   LIG    1        1.479   6.414  -0.869  0.00  0.00    -0.950 OA
ATOM     14  C   LIG    1        2.423   4.729  -2.709  0.00  0.00    -0.280 C 
ENDBRANCH   9  11
ENDBRANCH   7   9
ENDBRANCH   1   3
BRANCH   1  16
ATOM     15  C   LIG    1       -1.002  -1.747  -1.176  0.00  0.00    +0.520 C 
ATOM     16  N   LIG    1       -1.107  -0.499  -0.677  0.00  0.00    -0.730 N 
ATOM     17  H   LIG    1       -1.878   0.047  -0.896  0.00  0.00    +0.400 HD
ATOM     18  O   LIG    1       -0.037  -2.430  -0.903  0.00  0.00    -0.530 OA
BRANCH  15  25
ATOM     19  C   LIG    1       -6.624  -3.036  -3.288  0.00  0.00    +0.090 C 
ATOM     20  C   LIG    1       -5.595  -2.352  -2.426  0.00  0.00    +0.510 C 
ATOM     21  N   LIG    1       -4.427  -2.967  -2.154  0.00  0.00    -0.610 N 
ATOM     22  C   LIG    1       -4.143  -4.305  -2.691  0.00  0.00    +0.260 C 
ATOM     23  C   LIG    1       -2.804  -4.264  -3.433  0.00  0.00    +0.010 C 
ATOM     24  C   LIG    1       -1.722  -3.719  -2.496  0.00  0.00    +0.050 C 
ATOM     25  C   LIG    1       -2.083  -2.294  -2.072  0.00  0.00    -0.020 C 
ATOM     26  C   LIG    1       -3.414  -2.312  -1.314  0.00  0.00    +0.290 C 
ATOM     27  O   LIG    1       -5.818  -1.247  -1.977  0.00  0.00    -0.540 OA
ENDBRANCH  15  25
ENDBRANCH   1  16
TORSDOF 5
