REMARK  Name = ZINC650000002EAv.0
REMARK                            x       y       z     vdW  Elec       q    Type
REMARK                         _______ _______ _______ _____ _____    ______ ____
ROOT
ATOM      1  C   LIG    1        1.494   1.890  -0.002  0.00  0.00    +0.140 C 
ATOM      2  C   LIG    1       -0.019   1.540   0.011  0.00  0.00    +0.050 C 
ATOM      3  C   LIG    1        0.002  -0.004   0.002  0.00  0.00    +0.230 C 
ATOM      4  O   LIG    1        1.275  -0.417  -0.510  0.00  0.00    -0.360 OA
ATOM      5  C   LIG    1        2.056   0.734  -0.867  0.00  0.00    +0.240 C 
ENDROOT
BRANCH   1   6
ATOM      6  N   LIG    1        1.731   3.192  -0.640  0.00  0.00    -0.630 N 
ATOM      7  H   LIG    1        1.398   3.166  -1.592  0.00  0.00    +0.440 HD
ATOM      8  H   LIG    1        2.719   3.394  -0.634  0.00  0.00    +0.440 HD
ATOM      9  H   LIG    1        1.238   3.910  -0.131  0.00  0.00    +0.440 HD
ENDBRANCH   1   6
TORSDOF 1
