REMARK  Name = ZINCtV00000tRSUh.0
REMARK                            x       y       z     vdW  Elec       q    Type
REMARK                         _______ _______ _______ _____ _____    ______ ____
ROOT
ATOM      1  O   LIG    1       -3.555   5.977   0.067  0.00  0.00    -0.460 OA
ATOM      2  C   LIG    1       -2.469   5.424   0.053  0.00  0.00    +0.510 A 
ATOM      3  C   LIG    1       -1.303   6.208   0.046  0.00  0.00    -0.080 A 
ATOM      4  C   LIG    1       -0.067   5.590   0.031  0.00  0.00    +0.080 A 
ATOM      5  C   LIG    1       -0.034   4.118   0.024  0.00  0.00    -0.180 A 
ATOM      6  C   LIG    1        1.180   3.427   0.009  0.00  0.00    +0.130 A 
ATOM      7  C   LIG    1        1.183   2.061   0.002  0.00  0.00    -0.090 A 
ATOM      8  C   LIG    1       -0.016   1.353   0.009  0.00  0.00    +0.190 A 
ATOM      9  C   LIG    1       -1.228   2.024   0.019  0.00  0.00    -0.020 A 
ATOM     10  C   LIG    1       -1.248   3.411   0.032  0.00  0.00    +0.190 A 
ATOM     11  O   LIG    1       -2.420   4.082   0.046  0.00  0.00    -0.270 OA
ENDROOT
BRANCH   4  12
ATOM     12  C   LIG    1        1.182   6.382   0.022  0.00  0.00    -0.070 A 
ATOM     13  C   LIG    1        2.039   6.327  -1.078  0.00  0.00    +0.030 A 
ATOM     14  C   LIG    1        3.200   7.073  -1.082  0.00  0.00    +0.010 A 
ATOM     15  C   LIG    1        3.521   7.864   0.006  0.00  0.00    +0.020 A 
ATOM     16  C   LIG    1        2.679   7.919   1.102  0.00  0.00    +0.010 A 
ATOM     17  C   LIG    1        1.512   7.183   1.117  0.00  0.00    +0.040 A 
ENDBRANCH   4  12
BRANCH   8  18
ATOM     18  O   LIG    1        0.002  -0.004   0.002  0.00  0.00    -0.300 OA
BRANCH  18  19
ATOM     19  C   LIG    1        1.284  -0.635  -0.014  0.00  0.00    +0.260 C 
BRANCH  19  20
ATOM     20  C   LIG    1        1.107  -2.132  -0.020  0.00  0.00    -0.100 A 
ATOM     21  C   LIG    1        1.043  -2.825   1.174  0.00  0.00    +0.080 A 
ATOM     22  C   LIG    1        0.876  -4.198   1.168  0.00  0.00    +0.020 A 
ATOM     23  C   LIG    1        0.783  -4.878  -0.032  0.00  0.00    +0.080 A 
ATOM     24  C   LIG    1        0.852  -4.184  -1.226  0.00  0.00    -0.190 A 
ATOM     25  C   LIG    1        1.014  -2.812  -1.220  0.00  0.00    +0.100 A 
BRANCH  24  26
ATOM     26  C   LIG    1        0.750  -4.926  -2.534  0.00  0.00    +0.510 C 
ATOM     27  F   LIG    1        0.174  -4.092  -3.499  0.00  0.00    -0.180 F 
ATOM     28  F   LIG    1       -0.047  -6.063  -2.365  0.00  0.00    -0.170 F 
ATOM     29  F   LIG    1        2.028  -5.310  -2.953  0.00  0.00    -0.170 F 
ENDBRANCH  24  26
ENDBRANCH  19  20
ENDBRANCH  18  19
ENDBRANCH   8  18
TORSDOF 5
