REMARK  Name = ZINCrH00000No4QN.0
REMARK                            x       y       z     vdW  Elec       q    Type
REMARK                         _______ _______ _______ _____ _____    ______ ____
ROOT
ATOM      1  C   LIG    1       -2.526   5.525   0.171  0.00  0.00    -0.130 C 
ATOM      2  C   LIG    1       -2.512   4.148   0.114  0.00  0.00    +0.240 C 
ENDROOT
BRANCH   2   3
ATOM      3  C   LIG    1       -1.251   3.421   0.276  0.00  0.00    -0.070 A 
ATOM      4  C   LIG    1       -0.950   2.341  -0.565  0.00  0.00    +0.070 A 
ATOM      5  C   LIG    1        0.237   1.659  -0.411  0.00  0.00    -0.100 A 
ATOM      6  C   LIG    1        1.138   2.040   0.576  0.00  0.00    +0.130 A 
ATOM      7  C   LIG    1        0.846   3.115   1.417  0.00  0.00    +0.100 A 
ATOM      8 BR   LIG    1        0.642   0.202  -1.545  0.00  0.00    -0.020 Br
ATOM      9  C   LIG    1       -0.343   3.801   1.274  0.00  0.00    +0.050 A 
BRANCH   7  10
ATOM     10  O   LIG    1        1.731   3.484   2.381  0.00  0.00    -0.300 OA
ATOM     11  C   LIG    1        1.368   4.593   3.206  0.00  0.00    +0.230 C 
ENDBRANCH   7  10
BRANCH   6  12
ATOM     12  O   LIG    1        2.307   1.365   0.723  0.00  0.00    -0.470 OA
ATOM     13  H   LIG    1        2.255   0.618   1.335  0.00  0.00    +0.390 HD
ENDBRANCH   6  12
ENDBRANCH   2   3
BRANCH   1  16
ATOM     14  N   LIG    1       -1.265   7.607   0.364  0.00  0.00    -0.660 N 
ATOM     15  H   LIG    1       -2.107   8.084   0.436  0.00  0.00    +0.410 HD
ATOM     16  C   LIG    1       -1.259   6.274   0.171  0.00  0.00    +0.560 C 
ATOM     17  O   LIG    1       -0.207   5.689  -0.003  0.00  0.00    -0.490 OA
BRANCH  14  21
ATOM     18  C   LIG    1        2.342   9.685   0.650  0.00  0.00    +0.090 A 
ATOM     19  C   LIG    1        2.228   8.609  -0.215  0.00  0.00    -0.010 A 
ATOM     20  C   LIG    1        1.033   7.920  -0.309  0.00  0.00    +0.040 A 
ATOM     21  C   LIG    1       -0.055   8.306   0.462  0.00  0.00    +0.140 A 
ATOM     22  C   LIG    1        0.054   9.388   1.325  0.00  0.00    -0.060 A 
ATOM     23  C   LIG    1        1.253  10.074   1.425  0.00  0.00    +0.120 A 
BRANCH  18  25
ATOM     24  C   LIG    1        4.594   9.908  -0.083  0.00  0.00    +0.240 C 
ATOM     25  O   LIG    1        3.519  10.362   0.742  0.00  0.00    -0.310 OA
ENDBRANCH  18  25
BRANCH  23  26
ATOM     26  O   LIG    1        1.364  11.130   2.275  0.00  0.00    -0.300 OA
ATOM     27  C   LIG    1        0.207  11.473   3.039  0.00  0.00    +0.230 C 
ENDBRANCH  23  26
ENDBRANCH  14  21
ENDBRANCH   1  16
BRANCH   1  28
ATOM     28  C   LIG    1       -3.772   6.227   0.230  0.00  0.00    +0.240 C 
ATOM     29  N   LIG    1       -4.761   6.784   0.277  0.00  0.00    -0.390 NA
ENDBRANCH   1  28
TORSDOF 8
