REMARK  Name = ZINCqH0000002DL6.0
REMARK                            x       y       z     vdW  Elec       q    Type
REMARK                         _______ _______ _______ _____ _____    ______ ____
ROOT
ATOM      1  N   LIG    1        3.554   2.144  -0.021  0.00  0.00    -0.660 N 
ATOM      2  H   LIG    1        4.326   1.810  -0.504  0.00  0.00    +0.420 HD
ATOM      3  C   LIG    1        3.633   3.309   0.652  0.00  0.00    +0.560 C 
ATOM      4  O   LIG    1        2.699   3.681   1.336  0.00  0.00    -0.520 OA
ENDROOT
BRANCH   1  10
ATOM      5  C   LIG    1        2.393   0.017  -0.026  0.00  0.00    -0.170 A 
ATOM      6  C   LIG    1        1.193  -0.697  -0.027  0.00  0.00    +0.060 A 
ATOM      7  C   LIG    1       -0.009  -0.022  -0.024  0.00  0.00    -0.010 A 
ATOM      8  C   LIG    1       -0.033   1.363  -0.019  0.00  0.00    +0.060 A 
ATOM      9  C   LIG    1        1.145   2.083  -0.018  0.00  0.00    +0.010 A 
ATOM     10  C   LIG    1        2.365   1.420  -0.022  0.00  0.00    +0.210 A 
BRANCH   5  13
ATOM     11  N   LIG    1        3.708  -2.043   0.066  0.00  0.00    -0.720 N 
ATOM     12  H   LIG    1        2.877  -2.539   0.138  0.00  0.00    +0.400 HD
ATOM     13  C   LIG    1        3.683  -0.699  -0.031  0.00  0.00    +0.570 C 
ATOM     14  O   LIG    1        4.723  -0.076  -0.121  0.00  0.00    -0.550 OA
BRANCH  11  15
ATOM     15  C   LIG    1        4.988  -2.754   0.061  0.00  0.00    +0.260 C 
BRANCH  15  17
ATOM     16  C   LIG    1        6.074  -5.001   0.177  0.00  0.00    +0.030 C 
ATOM     17  C   LIG    1        4.737  -4.258   0.182  0.00  0.00    +0.000 C 
ENDBRANCH  15  17
ENDBRANCH  11  15
ENDBRANCH   5  13
ENDBRANCH   1  10
BRANCH   3  18
ATOM     18  C   LIG    1        4.853   4.134   0.559  0.00  0.00    -0.130 A 
ATOM     19  C   LIG    1        5.929   3.703  -0.223  0.00  0.00    +0.070 A 
ATOM     20  C   LIG    1        7.056   4.470  -0.314  0.00  0.00    +0.040 A 
ATOM     21  C   LIG    1        7.138   5.678   0.384  0.00  0.00    +0.020 A 
ATOM     22  C   LIG    1        6.064   6.106   1.171  0.00  0.00    +0.030 A 
ATOM     23  C   LIG    1        4.935   5.343   1.257  0.00  0.00    +0.090 A 
BRANCH  21  24
ATOM     24  C   LIG    1        8.358   6.503   0.291  0.00  0.00    -0.020 A 
ATOM     25  C   LIG    1        9.478   6.216  -0.425  0.00  0.00    +0.180 A 
ATOM     26  N   LIG    1       10.343   7.223  -0.241  0.00  0.00    -0.490 NA
ATOM     27  C   LIG    1        9.806   8.101   0.559  0.00  0.00    +0.430 A 
ATOM     28  O   LIG    1        8.581   7.686   0.905  0.00  0.00    -0.200 OA
ENDBRANCH  21  24
ENDBRANCH   3  18
TORSDOF 6
