REMARK  Name = ZINCpe00000MDLC6.0
REMARK                            x       y       z     vdW  Elec       q    Type
REMARK                         _______ _______ _______ _____ _____    ______ ____
ROOT
ATOM      1  C   LIG    1        2.194  -0.065  -0.973  0.00  0.00    +0.250 C 
ATOM      2  C   LIG    1        2.286   1.464  -1.015  0.00  0.00    +0.290 C 
ATOM      3  N   LIG    1        1.371   2.012  -0.000  0.00  0.00    -0.610 N 
ATOM      4  C   LIG    1       -0.019   1.529   0.010  0.00  0.00    +0.260 C 
ATOM      5  C   LIG    1        0.002  -0.004   0.002  0.00  0.00    +0.230 C 
ATOM      6  C   LIG    1        1.794   2.929   0.892  0.00  0.00    +0.510 C 
ATOM      7  O   LIG    1        2.943   3.314   0.868  0.00  0.00    -0.520 OA
ATOM      8  O   LIG    1        0.824  -0.458  -1.076  0.00  0.00    -0.350 OA
ENDROOT
BRANCH   1  13
ATOM      9  C   LIG    1        3.454  -1.469  -4.065  0.00  0.00    +0.240 A 
ATOM     10  N   LIG    1        4.580  -1.438  -3.403  0.00  0.00    -0.300 NA
ATOM     11  N   LIG    1        4.292  -0.906  -2.135  0.00  0.00    -0.480 N 
ATOM     12  H   LIG    1        4.920  -0.755  -1.411  0.00  0.00    +0.440 HD
ATOM     13  C   LIG    1        2.973  -0.647  -2.125  0.00  0.00    +0.280 A 
ATOM     14  N   LIG    1        2.482  -0.995  -3.287  0.00  0.00    -0.500 NA
BRANCH   9  16
ATOM     15  C   LIG    1        4.633  -2.433  -6.022  0.00  0.00    +0.050 C 
ATOM     16  C   LIG    1        3.281  -1.966  -5.477  0.00  0.00    +0.030 C 
ATOM     17  C   LIG    1        2.740  -0.835  -6.354  0.00  0.00    +0.050 C 
ATOM     18  C   LIG    1        2.296  -3.137  -5.488  0.00  0.00    +0.050 C 
ENDBRANCH   9  16
ENDBRANCH   1  13
BRANCH   6  19
ATOM     19  C   LIG    1        0.838   3.475   1.922  0.00  0.00    +0.330 C 
BRANCH  19  20
ATOM     20  N   LIG    1        1.534   4.448   2.767  0.00  0.00    -0.480 N 
ATOM     21  C   LIG    1        1.547   5.758   2.411  0.00  0.00    +0.300 A 
ATOM     22  C   LIG    1        2.184   6.676   3.176  0.00  0.00    -0.070 A 
ATOM     23  C   LIG    1        2.839   6.276   4.349  0.00  0.00    +0.130 A 
ATOM     24  C   LIG    1        2.825   4.959   4.705  0.00  0.00    -0.090 A 
ATOM     25  C   LIG    1        2.150   4.034   3.891  0.00  0.00    +0.520 A 
ATOM     26  O   LIG    1        2.125   2.853   4.200  0.00  0.00    -0.550 OA
ENDBRANCH  19  20
ENDBRANCH   6  19
TORSDOF 4
