REMARK  Name = ZINCpe00000MDLC6.1
REMARK                            x       y       z     vdW  Elec       q    Type
REMARK                         _______ _______ _______ _____ _____    ______ ____
ROOT
ATOM      1  C   LIG    1       -3.635  -3.405  -3.159  0.00  0.00    +0.260 C 
ATOM      2  C   LIG    1       -3.312  -1.909  -3.024  0.00  0.00    +0.300 C 
ATOM      3  N   LIG    1       -2.853  -1.661  -1.648  0.00  0.00    -0.610 N 
ATOM      4  C   LIG    1       -3.684  -2.161  -0.541  0.00  0.00    +0.260 C 
ATOM      5  C   LIG    1       -3.992  -3.641  -0.797  0.00  0.00    +0.230 C 
ATOM      6  C   LIG    1       -1.708  -0.992  -1.409  0.00  0.00    +0.510 C 
ATOM      7  O   LIG    1       -1.036  -0.588  -2.334  0.00  0.00    -0.520 OA
ATOM      8  O   LIG    1       -4.531  -3.788  -2.113  0.00  0.00    -0.360 OA
ENDROOT
BRANCH   1  12
ATOM      9  C   LIG    1       -4.746  -4.442  -6.461  0.00  0.00    +0.200 A 
ATOM     10  N   LIG    1       -5.619  -3.529  -6.134  0.00  0.00    -0.280 NA
ATOM     11  N   LIG    1       -5.348  -3.069  -4.964  0.00  0.00    -0.260 NA
ATOM     12  C   LIG    1       -4.284  -3.661  -4.495  0.00  0.00    +0.170 A 
ATOM     13  N   LIG    1       -3.873  -4.552  -5.430  0.00  0.00    -0.570 N 
ATOM     14  H   LIG    1       -3.110  -5.147  -5.373  0.00  0.00    +0.430 HD
BRANCH   9  16
ATOM     15  C   LIG    1       -5.204  -6.654  -7.484  0.00  0.00    +0.050 C 
ATOM     16  C   LIG    1       -4.713  -5.228  -7.746  0.00  0.00    +0.020 C 
ATOM     17  C   LIG    1       -3.280  -5.273  -8.281  0.00  0.00    +0.040 C 
ATOM     18  C   LIG    1       -5.622  -4.557  -8.777  0.00  0.00    +0.070 C 
ENDBRANCH   9  16
ENDBRANCH   1  12
BRANCH   6  19
ATOM     19  C   LIG    1       -1.261  -0.746   0.010  0.00  0.00    +0.320 C 
BRANCH  19  20
ATOM     20  N   LIG    1        0.002  -0.004   0.002  0.00  0.00    -0.480 N 
ATOM     21  C   LIG    1        1.178  -0.682  -0.013  0.00  0.00    +0.290 A 
ATOM     22  C   LIG    1        2.358  -0.019  -0.021  0.00  0.00    -0.080 A 
ATOM     23  C   LIG    1        2.373   1.383  -0.013  0.00  0.00    +0.120 A 
ATOM     24  C   LIG    1        1.191   2.062   0.002  0.00  0.00    -0.090 A 
ATOM     25  C   LIG    1       -0.016   1.342   0.009  0.00  0.00    +0.520 A 
ATOM     26  O   LIG    1       -1.082   1.938   0.018  0.00  0.00    -0.550 OA
ENDBRANCH  19  20
ENDBRANCH   6  19
TORSDOF 4
