REMARK  Name = ZINCpe00000MDLC6.2
REMARK                            x       y       z     vdW  Elec       q    Type
REMARK                         _______ _______ _______ _____ _____    ______ ____
ROOT
ATOM      1  C   LIG    1       -2.811   1.844   0.004  0.00  0.00    +0.280 C 
ATOM      2  C   LIG    1       -2.164   1.344   1.301  0.00  0.00    +0.280 C 
ATOM      3  N   LIG    1       -0.712   1.565   1.211  0.00  0.00    -0.610 N 
ATOM      4  C   LIG    1       -0.013   1.086   0.008  0.00  0.00    +0.260 C 
ATOM      5  C   LIG    1       -0.764   1.599  -1.226  0.00  0.00    +0.230 C 
ATOM      6  C   LIG    1       -0.042   2.189   2.200  0.00  0.00    +0.510 C 
ATOM      7  O   LIG    1       -0.635   2.577   3.184  0.00  0.00    -0.520 OA
ATOM      8  O   LIG    1       -2.146   1.250  -1.113  0.00  0.00    -0.360 OA
ENDROOT
BRANCH   1  11
ATOM      9  C   LIG    1       -6.418   1.628   0.108  0.00  0.00    +0.300 A 
ATOM     10  N   LIG    1       -5.291   2.286   0.193  0.00  0.00    -0.520 NA
ATOM     11  C   LIG    1       -4.268   1.458  -0.013  0.00  0.00    +0.230 A 
ATOM     12  N   LIG    1       -4.733   0.257  -0.239  0.00  0.00    -0.280 NA
ATOM     13  N   LIG    1       -6.132   0.342  -0.159  0.00  0.00    -0.480 N 
ATOM     14  H   LIG    1       -6.766  -0.382  -0.277  0.00  0.00    +0.440 HD
BRANCH   9  16
ATOM     15  C   LIG    1       -8.836   1.087   0.228  0.00  0.00    +0.040 C 
ATOM     16  C   LIG    1       -7.798   2.211   0.281  0.00  0.00    +0.010 C 
ATOM     17  C   LIG    1       -8.073   3.212  -0.843  0.00  0.00    +0.060 C 
ATOM     18  C   LIG    1       -7.885   2.923   1.632  0.00  0.00    +0.060 C 
ENDBRANCH   9  16
ENDBRANCH   1  11
BRANCH   6  19
ATOM     19  C   LIG    1        1.446   2.404   2.084  0.00  0.00    +0.320 C 
BRANCH  19  20
ATOM     20  N   LIG    1        1.933   3.098   3.278  0.00  0.00    -0.480 N 
ATOM     21  C   LIG    1        2.348   2.377   4.351  0.00  0.00    +0.300 A 
ATOM     22  C   LIG    1        2.803   2.995   5.466  0.00  0.00    -0.080 A 
ATOM     23  C   LIG    1        2.848   4.396   5.520  0.00  0.00    +0.130 A 
ATOM     24  C   LIG    1        2.431   5.119   4.441  0.00  0.00    -0.090 A 
ATOM     25  C   LIG    1        1.970   4.444   3.298  0.00  0.00    +0.520 A 
ATOM     26  O   LIG    1        1.599   5.079   2.324  0.00  0.00    -0.550 OA
ENDBRANCH  19  20
ENDBRANCH   6  19
TORSDOF 4
