REMARK  Name = ZINCpe000000VMsy.0
REMARK                            x       y       z     vdW  Elec       q    Type
REMARK                         _______ _______ _______ _____ _____    ______ ____
ROOT
ATOM      1  C   LIG    1        2.419   5.276   1.245  0.00  0.00    +0.520 C 
ATOM      2  N   LIG    1        2.405   4.102   0.584  0.00  0.00    -0.720 N 
ATOM      3  H   LIG    1        3.223   3.589   0.489  0.00  0.00    +0.400 HD
ATOM      4  O   LIG    1        1.396   5.917   1.364  0.00  0.00    -0.520 OA
ENDROOT
BRANCH   2   5
ATOM      5  C   LIG    1        1.155   3.599   0.010  0.00  0.00    +0.300 C 
ATOM      6  C   LIG    1        0.974   4.171  -1.398  0.00  0.00    +0.040 C 
BRANCH   5   7
ATOM      7  C   LIG    1        1.203   2.095  -0.061  0.00  0.00    -0.090 A 
ATOM      8  C   LIG    1        2.418   1.448  -0.171  0.00  0.00    +0.030 A 
ATOM      9  C   LIG    1        2.463   0.063  -0.237  0.00  0.00    +0.100 A 
ATOM     10  C   LIG    1        1.288  -0.672  -0.193  0.00  0.00    -0.040 A 
ATOM     11  C   LIG    1        0.072  -0.025  -0.084  0.00  0.00    -0.020 A 
ATOM     12  C   LIG    1        0.028   1.360  -0.018  0.00  0.00    +0.100 A 
BRANCH   9  13
ATOM     13  O   LIG    1        3.660  -0.575  -0.344  0.00  0.00    -0.320 OA
ATOM     14  C   LIG    1        3.631  -2.002  -0.407  0.00  0.00    +0.250 C 
ENDBRANCH   9  13
BRANCH  12  15
ATOM     15  O   LIG    1       -1.169   1.997   0.084  0.00  0.00    -0.310 OA
ATOM     16  C   LIG    1       -2.340   1.178   0.117  0.00  0.00    +0.250 C 
ENDBRANCH  12  15
ENDBRANCH   5   7
ENDBRANCH   2   5
BRANCH   1  17
ATOM     17  C   LIG    1        3.705   5.793   1.836  0.00  0.00    +0.300 C 
BRANCH  17  18
ATOM     18  N   LIG    1        3.458   7.077   2.497  0.00  0.00    -1.110 NA
ATOM     19  H   LIG    1        2.637   7.562   2.322  0.00  0.00    +0.430 HD
BRANCH  18  20
ATOM     20  S   LIG    1        4.581   7.700   3.543  0.00  0.00    +2.620 S 
ATOM     21  O   LIG    1        4.850   6.633   4.443  0.00  0.00    -0.950 OA
ATOM     22  O   LIG    1        3.999   8.914   3.999  0.00  0.00    -0.950 OA
BRANCH  20  23
ATOM     23  C   LIG    1        6.029   8.038   2.505  0.00  0.00    -0.360 C 
BRANCH  23  24
ATOM     24  C   LIG    1        7.149   8.624   3.366  0.00  0.00    +0.070 C 
BRANCH  24  25
ATOM     25  C   LIG    1        8.370   8.909   2.490  0.00  0.00    +0.170 C 
BRANCH  25  27
ATOM     26  C   LIG    1       10.610   9.760   2.570  0.00  0.00    +0.200 C 
ATOM     27  O   LIG    1        9.417   9.456   3.295  0.00  0.00    -0.390 OA
ENDBRANCH  25  27
ENDBRANCH  24  25
ENDBRANCH  23  24
ENDBRANCH  20  23
ENDBRANCH  18  20
ENDBRANCH  17  18
ENDBRANCH   1  17
TORSDOF 11
