REMARK  Name = ZINCpe00000bcT8P.0
REMARK                            x       y       z     vdW  Elec       q    Type
REMARK                         _______ _______ _______ _____ _____    ______ ____
ROOT
ATOM      1  C   LIG    1        4.387   1.434   3.096  0.00  0.00    +0.520 C 
ATOM      2  N   LIG    1        4.189   0.186   2.627  0.00  0.00    -0.720 N 
ATOM      3  H   LIG    1        4.942  -0.340   2.314  0.00  0.00    +0.410 HD
ATOM      4  O   LIG    1        3.446   2.091   3.488  0.00  0.00    -0.520 OA
ENDROOT
BRANCH   1   9
ATOM      5  C   LIG    1        8.786   3.568   5.460  0.00  0.00    +0.550 C 
ATOM      6  N   LIG    1        8.032   3.119   4.437  0.00  0.00    -0.610 N 
ATOM      7  C   LIG    1        7.136   4.029   3.711  0.00  0.00    +0.260 C 
ATOM      8  C   LIG    1        5.725   3.431   3.706  0.00  0.00    +0.050 C 
ATOM      9  C   LIG    1        5.778   2.012   3.134  0.00  0.00    +0.000 C 
ATOM     10  C   LIG    1        6.670   1.138   4.018  0.00  0.00    +0.030 C 
ATOM     11  C   LIG    1        8.092   1.709   4.026  0.00  0.00    +0.280 C 
ATOM     12  O   LIG    1        9.452   2.788   6.113  0.00  0.00    -0.540 OA
BRANCH   5  14
ATOM     13  C   LIG    1        9.621   5.461   6.729  0.00  0.00    +0.140 C 
ATOM     14  C   LIG    1        8.803   5.003   5.785  0.00  0.00    -0.090 C 
ENDBRANCH   5  14
ENDBRANCH   1   9
BRANCH   2  15
ATOM     15  C   LIG    1        2.837  -0.377   2.590  0.00  0.00    +0.290 C 
BRANCH  15  16
ATOM     16  C   LIG    1        2.138   0.061   1.302  0.00  0.00    -0.010 C 
ATOM     17  C   LIG    1        0.723  -0.526   1.262  0.00  0.00    +0.010 C 
ATOM     18  C   LIG    1        0.004  -0.019   0.009  0.00  0.00    +0.210 C 
ATOM     19  O   LIG    1       -0.020   1.409   0.020  0.00  0.00    -0.380 OA
ATOM     20  C   LIG    1        1.275   2.015   0.010  0.00  0.00    +0.210 C 
ATOM     21  C   LIG    1        2.045   1.590   1.263  0.00  0.00    +0.020 C 
ENDBRANCH  15  16
BRANCH  15  22
ATOM     22  C   LIG    1        2.917  -1.881   2.632  0.00  0.00    +0.460 C 
ATOM     23  O   LIG    1        3.994  -2.427   2.687  0.00  0.00    -0.500 OA
BRANCH  22  24
ATOM     24  O   LIG    1        1.793  -2.614   2.608  0.00  0.00    -0.340 OA
BRANCH  24  25
ATOM     25  C   LIG    1        1.946  -4.057   2.651  0.00  0.00    +0.200 C 
ATOM     26  C   LIG    1        0.567  -4.718   2.616  0.00  0.00    +0.070 C 
ENDBRANCH  24  25
ENDBRANCH  22  24
ENDBRANCH  15  22
ENDBRANCH   2  15
TORSDOF 7
