REMARK  Name = ZINCrD000000ANWo.0
REMARK                            x       y       z     vdW  Elec       q    Type
REMARK                         _______ _______ _______ _____ _____    ______ ____
ROOT
ATOM      1  O   LIG    1        0.002  -0.004   0.002  0.00  0.00    -0.580 OA
ATOM      2  C   LIG    1       -0.014   1.212   0.009  0.00  0.00    +0.710 C 
ATOM      3  N   LIG    1       -1.191   1.870   0.018  0.00  0.00    -0.740 N 
ATOM      4  H   LIG    1       -1.204   2.840   0.023  0.00  0.00    +0.400 HD
ATOM      5  N   LIG    1        1.143   1.901   0.001  0.00  0.00    -0.740 N 
ATOM      6  H   LIG    1        1.130   2.871   0.007  0.00  0.00    +0.400 HD
ENDROOT
BRANCH   5   7
ATOM      7  C   LIG    1        2.422   1.186  -0.015  0.00  0.00    +0.280 C 
ATOM      8  C   LIG    1        2.939   0.955   1.421  0.00  0.00    +0.060 C 
ATOM      9  C   LIG    1        4.445   1.080   1.325  0.00  0.00    -0.090 A 
ATOM     10  C   LIG    1        5.437   0.670   2.199  0.00  0.00    +0.010 A 
ATOM     11  C   LIG    1        6.766   0.895   1.896  0.00  0.00    +0.000 A 
ATOM     12  C   LIG    1        7.107   1.531   0.718  0.00  0.00    +0.000 A 
ATOM     13  C   LIG    1        6.119   1.941  -0.156  0.00  0.00    +0.020 A 
ATOM     14  C   LIG    1        4.786   1.717   0.146  0.00  0.00    -0.100 A 
ATOM     15  C   LIG    1        3.533   2.063  -0.630  0.00  0.00    +0.080 C 
ENDBRANCH   5   7
BRANCH   3  16
ATOM     16  C   LIG    1       -2.449   1.120   0.020  0.00  0.00    +0.340 C 
BRANCH  16  17
ATOM     17  C   LIG    1       -3.537   1.966   0.630  0.00  0.00    -0.080 A 
ATOM     18  C   LIG    1       -3.603   3.317   0.344  0.00  0.00    +0.020 A 
ATOM     19  C   LIG    1       -4.599   4.096   0.902  0.00  0.00    +0.030 A 
ATOM     20  C   LIG    1       -5.535   3.524   1.750  0.00  0.00    +0.050 A 
ATOM     21  O   LIG    1       -6.507   4.305   2.296  0.00  0.00    -0.310 OA
ATOM     22  C   LIG    1       -7.645   3.629   2.842  0.00  0.00    +0.220 C 
ATOM     23  C   LIG    1       -7.142   2.460   3.701  0.00  0.00    +0.220 C 
ATOM     24  O   LIG    1       -6.381   1.583   2.863  0.00  0.00    -0.310 OA
ATOM     25  C   LIG    1       -5.470   2.166   2.037  0.00  0.00    +0.060 A 
ATOM     26  C   LIG    1       -4.471   1.389   1.470  0.00  0.00    +0.040 A 
ENDBRANCH  16  17
BRANCH  16  27
ATOM     27  C   LIG    1       -2.830   0.759  -1.417  0.00  0.00    -0.070 C 
ATOM     28  C   LIG    1       -3.165  -0.705  -1.713  0.00  0.00    +0.020 C 
ATOM     29  C   LIG    1       -1.848  -0.104  -2.212  0.00  0.00    +0.030 C 
ENDBRANCH  16  27
ENDBRANCH   3  16
TORSDOF 4
