REMARK  Name = ZINCpk00000ebtwt.0
REMARK                            x       y       z     vdW  Elec       q    Type
REMARK                         _______ _______ _______ _____ _____    ______ ____
ROOT
ATOM      1  C   LIG    1       -0.013   1.086   0.008  0.00  0.00    +0.350 C 
ENDROOT
BRANCH   1   2
ATOM      2  N   LIG    1       -0.721   1.571  -1.179  0.00  0.00    -0.400 N 
ATOM      3  N   LIG    1       -1.740   0.789  -1.726  0.00  0.00    -0.510 N 
ATOM      4  H   LIG    1       -1.957  -0.059  -1.309  0.00  0.00    +0.430 HD
ATOM      5  C   LIG    1       -2.430   1.177  -2.816  0.00  0.00    +0.560 A 
ATOM      6  C   LIG    1       -2.107   2.469  -3.460  0.00  0.00    -0.110 A 
ATOM      7  C   LIG    1       -2.789   2.911  -4.585  0.00  0.00    +0.090 A 
ATOM      8  C   LIG    1       -2.452   4.128  -5.154  0.00  0.00    +0.040 A 
ATOM      9  C   LIG    1       -1.443   4.902  -4.612  0.00  0.00    +0.040 A 
ATOM     10  C   LIG    1       -0.753   4.475  -3.490  0.00  0.00    +0.090 A 
ATOM     11  C   LIG    1       -1.079   3.259  -2.908  0.00  0.00    -0.110 A 
ATOM     12  O   LIG    1       -3.310   0.471  -3.267  0.00  0.00    -0.510 OA
ATOM     13  C   LIG    1       -0.374   2.761  -1.706  0.00  0.00    +0.560 A 
ATOM     14  O   LIG    1        0.515   3.419  -1.201  0.00  0.00    -0.510 OA
ENDBRANCH   1   2
BRANCH   1  15
ATOM     15  C   LIG    1       -0.729   1.579   1.267  0.00  0.00    +0.050 C 
BRANCH  15  17
ATOM     16  O   LIG    1        0.994   0.397   2.363  0.00  0.00    -0.540 OA
ATOM     17  C   LIG    1        0.000   1.080   2.488  0.00  0.00    +0.520 C 
ATOM     18  N   LIG    1       -0.453   1.393   3.718  0.00  0.00    -0.730 N 
ATOM     19  H   LIG    1       -1.248   1.939   3.817  0.00  0.00    +0.400 HD
BRANCH  18  20
ATOM     20  C   LIG    1        0.256   0.907   4.905  0.00  0.00    +0.260 C 
BRANCH  20  21
ATOM     21  C   LIG    1       -0.461   1.401   6.164  0.00  0.00    +0.070 C 
BRANCH  21  22
ATOM     22  C   LIG    1        0.268   0.902   7.385  0.00  0.00    -0.090 A 
ATOM     23  C   LIG    1       -0.079  -0.311   7.949  0.00  0.00    +0.010 A 
ATOM     24  C   LIG    1        0.593  -0.772   9.066  0.00  0.00    +0.000 A 
ATOM     25  C   LIG    1        1.605  -0.014   9.625  0.00  0.00    +0.000 A 
ATOM     26  C   LIG    1        1.949   1.202   9.063  0.00  0.00    +0.000 A 
ATOM     27  C   LIG    1        1.280   1.659   7.943  0.00  0.00    +0.010 A 
ENDBRANCH  21  22
ENDBRANCH  20  21
ENDBRANCH  18  20
ENDBRANCH  15  17
ENDBRANCH   1  15
TORSDOF 6
