REMARK  Name = ZINCrH000004pyRR.0
REMARK                            x       y       z     vdW  Elec       q    Type
REMARK                         _______ _______ _______ _____ _____    ______ ____
ROOT
ATOM      1  C   LIG    1       -0.065   1.192   2.684  0.00  0.00    +0.160 A 
ATOM      2  N   LIG    1        1.135   1.590   2.990  0.00  0.00    -0.230 NA
ATOM      3  N   LIG    1        1.497   1.051   4.101  0.00  0.00    -0.280 NA
ATOM      4  C   LIG    1        0.535   0.277   4.541  0.00  0.00    +0.140 A 
ATOM      5  O   LIG    1       -0.474   0.350   3.653  0.00  0.00    -0.200 OA
ENDROOT
BRANCH   1   7
ATOM      6  C   LIG    1       -0.294   0.874   0.235  0.00  0.00    +0.080 C 
ATOM      7  C   LIG    1       -0.852   1.595   1.464  0.00  0.00    +0.300 C 
BRANCH   7   8
ATOM      8  O   LIG    1       -0.748   3.008   1.275  0.00  0.00    -0.290 OA
BRANCH   8   9
ATOM      9  C   LIG    1       -1.755   3.615   0.593  0.00  0.00    +0.090 A 
ATOM     10  C   LIG    1       -2.762   2.855   0.018  0.00  0.00    -0.040 A 
ATOM     11  C   LIG    1       -3.788   3.475  -0.671  0.00  0.00    +0.050 A 
ATOM     12  C   LIG    1       -3.805   4.851  -0.797  0.00  0.00    +0.020 A 
ATOM     13  C   LIG    1       -2.800   5.613  -0.229  0.00  0.00    +0.040 A 
ATOM     14  C   LIG    1       -1.775   4.999   0.466  0.00  0.00    +0.080 A 
ATOM     15  F   LIG    1       -0.793   5.743   1.021  0.00  0.00    -0.130 F 
ENDBRANCH   8   9
ENDBRANCH   7   8
ENDBRANCH   1   7
BRANCH   4  16
ATOM     16  S   LIG    1        0.558  -0.681   6.020  0.00  0.00    +0.110 S 
BRANCH  16  17
ATOM     17  C   LIG    1        2.205  -0.258   6.642  0.00  0.00    +0.180 C 
BRANCH  17  18
ATOM     18  C   LIG    1        2.453  -0.984   7.939  0.00  0.00    +0.210 A 
ATOM     19  C   LIG    1        3.289  -2.080   7.977  0.00  0.00    -0.100 A 
ATOM     20  C   LIG    1        3.507  -2.731   9.192  0.00  0.00    +0.530 A 
ATOM     21  N   LIG    1        2.884  -2.285  10.322  0.00  0.00    -0.470 N 
ATOM     22  C   LIG    1        2.985  -2.812  11.585  0.00  0.00    +0.240 A 
ATOM     23  C   LIG    1        2.307  -2.250  12.571  0.00  0.00    +0.020 A 
ATOM     24  S   LIG    1        1.434  -0.896  11.832  0.00  0.00    +0.190 S 
ATOM     25  C   LIG    1        2.068  -1.200  10.206  0.00  0.00    +0.320 A 
ATOM     26  O   LIG    1        4.248  -3.700   9.244  0.00  0.00    -0.510 OA
ATOM     27  N   LIG    1        1.865  -0.580   9.059  0.00  0.00    -0.500 NA
ENDBRANCH  17  18
ENDBRANCH  16  17
ENDBRANCH   4  16
TORSDOF 6
