REMARK  Name = ZINCvU00000005vS.0
REMARK                            x       y       z     vdW  Elec       q    Type
REMARK                         _______ _______ _______ _____ _____    ______ ____
ROOT
ATOM      1  C   LIG    1      -11.144  -8.502  -0.987  0.00  0.00    +0.150 C 
ATOM      2  C   LIG    1       -9.855  -7.723  -1.026  0.00  0.00    -0.200 A 
ATOM      3  C   LIG    1       -8.899  -7.908  -1.918  0.00  0.00    -0.040 A 
ATOM      4  C   LIG    1       -7.746  -7.044  -1.763  0.00  0.00    -0.230 A 
ATOM      5  C   LIG    1       -7.883  -6.175  -0.681  0.00  0.00    +0.090 A 
ATOM      6  N   LIG    1       -6.900  -5.306  -0.400  0.00  0.00    -0.500 NA
ATOM      7  C   LIG    1       -5.789  -5.238  -1.116  0.00  0.00    +0.430 A 
ATOM      8  C   LIG    1       -4.636  -4.348  -0.933  0.00  0.00    -0.110 C 
ATOM      9  C   LIG    1       -3.635  -4.680  -2.014  0.00  0.00    +0.120 C 
ATOM     10  C   LIG    1       -4.296  -5.805  -2.821  0.00  0.00    +0.300 C 
ATOM     11  C   LIG    1       -4.493  -3.411   0.028  0.00  0.00    +0.150 C 
ATOM     12  N   LIG    1       -5.599  -6.062  -2.192  0.00  0.00    -0.540 N 
ATOM     13  C   LIG    1       -6.550  -6.960  -2.537  0.00  0.00    +0.570 A 
ATOM     14  O   LIG    1       -6.382  -7.699  -3.492  0.00  0.00    -0.520 OA
ATOM     15  C   LIG    1       -8.999  -8.938  -3.014  0.00  0.00    +0.120 C 
ATOM     16  S   LIG    1       -9.431  -6.455   0.108  0.00  0.00    +0.200 S 
ENDROOT
BRANCH  11  17
ATOM     17  C   LIG    1       -3.341  -2.498   0.000  0.00  0.00    -0.070 A 
ATOM     18  C   LIG    1       -2.723  -2.111   1.195  0.00  0.00    +0.070 A 
ATOM     19  C   LIG    1       -1.644  -1.256   1.164  0.00  0.00    +0.020 A 
ATOM     20  C   LIG    1       -1.168  -0.777  -0.052  0.00  0.00    +0.140 A 
ATOM     21  C   LIG    1       -1.782  -1.155  -1.241  0.00  0.00    +0.010 A 
ATOM     22  C   LIG    1       -2.858  -2.014  -1.221  0.00  0.00    +0.050 A 
BRANCH  20  23
ATOM     23  N   LIG    1       -0.072   0.091  -0.078  0.00  0.00    -0.450 N 
ATOM     24  C   LIG    1        0.081   1.222   0.666  0.00  0.00    +0.490 A 
ATOM     25  N   LIG    1        1.220   1.787   0.390  0.00  0.00    -0.490 NA
ATOM     26  C   LIG    1        1.876   1.060  -0.550  0.00  0.00    +0.050 A 
ATOM     27  C   LIG    1        3.108   1.206  -1.192  0.00  0.00    +0.070 A 
ATOM     28  C   LIG    1        3.507   0.275  -2.125  0.00  0.00    +0.000 A 
ATOM     29  C   LIG    1        2.695  -0.808  -2.432  0.00  0.00    +0.030 A 
ATOM     30  C   LIG    1        1.476  -0.967  -1.807  0.00  0.00    +0.010 A 
ATOM     31  C   LIG    1        1.058  -0.039  -0.864  0.00  0.00    +0.050 A 
ENDBRANCH  20  23
ENDBRANCH  11  17
TORSDOF 2
