REMARK  Name = ZINCvU00000005Gr.0
REMARK                            x       y       z     vdW  Elec       q    Type
REMARK                         _______ _______ _______ _____ _____    ______ ____
ROOT
ATOM      1  C   LIG    1        3.636   3.389  -0.013  0.00  0.00    +0.200 A 
ATOM      2  C   LIG    1        2.421   4.067   0.001  0.00  0.00    -0.120 A 
ATOM      3  C   LIG    1        1.237   3.367   0.008  0.00  0.00    +0.140 A 
ATOM      4  C   LIG    1        1.252   1.969   0.001  0.00  0.00    -0.230 A 
ATOM      5  C   LIG    1        2.479   1.286  -0.009  0.00  0.00    +0.220 A 
ATOM      6  C   LIG    1        3.663   2.002  -0.021  0.00  0.00    -0.120 A 
ENDROOT
BRANCH   1   8
ATOM      7  C   LIG    1        4.700   5.514  -0.012  0.00  0.00    +0.240 C 
ATOM      8  O   LIG    1        4.800   4.088  -0.020  0.00  0.00    -0.310 OA
ENDBRANCH   1   8
BRANCH   4   9
ATOM      9  C   LIG    1       -0.014   1.214   0.009  0.00  0.00    +0.430 C 
ATOM     10  O   LIG    1        0.002  -0.004   0.002  0.00  0.00    -0.450 OA
BRANCH   9  11
ATOM     11  C   LIG    1       -1.252   1.907   0.018  0.00  0.00    -0.120 C 
ATOM     12  C   LIG    1       -2.414   1.214   0.020  0.00  0.00    +0.150 C 
BRANCH  12  13
ATOM     13  C   LIG    1       -3.695   1.931   0.030  0.00  0.00    -0.120 A 
ATOM     14  C   LIG    1       -4.907   1.212   0.032  0.00  0.00    +0.180 A 
ATOM     15  C   LIG    1       -6.114   1.880   0.042  0.00  0.00    -0.070 A 
ATOM     16  C   LIG    1       -6.144   3.270   0.050  0.00  0.00    +0.110 A 
ATOM     17  O   LIG    1       -7.147   4.170   0.060  0.00  0.00    -0.190 OA
ATOM     18  C   LIG    1       -6.665   5.426   0.065  0.00  0.00    +0.210 A 
ATOM     19  C   LIG    1       -5.327   5.410   0.058  0.00  0.00    -0.040 A 
ATOM     20  C   LIG    1       -4.935   3.993   0.048  0.00  0.00    -0.170 A 
ATOM     21  C   LIG    1       -3.716   3.327   0.044  0.00  0.00    +0.130 A 
BRANCH  14  22
ATOM     22  O   LIG    1       -4.886  -0.145   0.024  0.00  0.00    -0.300 OA
ATOM     23  C   LIG    1       -6.149  -0.813   0.026  0.00  0.00    +0.250 C 
ENDBRANCH  14  22
ENDBRANCH  12  13
ENDBRANCH   9  11
ENDBRANCH   4   9
BRANCH   5  24
ATOM     24  O   LIG    1        2.503  -0.070  -0.011  0.00  0.00    -0.270 OA
BRANCH  24  25
ATOM     25  C   LIG    1        3.788  -0.696  -0.021  0.00  0.00    +0.230 C 
BRANCH  25  26
ATOM     26  C   LIG    1        3.618  -2.193  -0.022  0.00  0.00    -0.090 A 
ATOM     27  C   LIG    1        3.553  -2.882   1.174  0.00  0.00    +0.030 A 
ATOM     28  C   LIG    1        3.392  -4.255   1.173  0.00  0.00    +0.010 A 
ATOM     29  C   LIG    1        3.305  -4.940  -0.024  0.00  0.00    +0.010 A 
ATOM     30  C   LIG    1        3.375  -4.252  -1.221  0.00  0.00    +0.010 A 
ATOM     31  C   LIG    1        3.531  -2.878  -1.220  0.00  0.00    +0.030 A 
ENDBRANCH  25  26
ENDBRANCH  24  25
ENDBRANCH   5  24
TORSDOF 8
