REMARK  Name = ZINCpe00000ziFrv.0
REMARK                            x       y       z     vdW  Elec       q    Type
REMARK                         _______ _______ _______ _____ _____    ______ ____
ROOT
ATOM      1  C   LIG    1       -0.430   1.672  -2.615  0.00  0.00    +0.000 A 
ATOM      2  C   LIG    1        0.500   2.393  -3.365  0.00  0.00    +0.080 A 
ATOM      3  C   LIG    1        0.300   3.739  -3.595  0.00  0.00    +0.030 A 
ATOM      4  C   LIG    1       -0.819   4.371  -3.085  0.00  0.00    +0.080 A 
ATOM      5  C   LIG    1       -1.747   3.661  -2.339  0.00  0.00    -0.110 A 
ATOM      6  C   LIG    1       -3.031   4.098  -1.679  0.00  0.00    +0.320 C 
ATOM      7  N   LIG    1       -3.623   2.921  -1.034  0.00  0.00    -0.610 N 
ATOM      8  C   LIG    1       -4.775   2.882  -0.336  0.00  0.00    +0.530 C 
ATOM      9  O   LIG    1       -5.150   1.840   0.158  0.00  0.00    -0.510 OA
ATOM     10  C   LIG    1       -2.714   1.798  -1.285  0.00  0.00    +0.330 C 
ATOM     11  C   LIG    1       -1.562   2.316  -2.107  0.00  0.00    -0.060 A 
ENDROOT
BRANCH   8  12
ATOM     12  C   LIG    1       -5.599   4.134  -0.171  0.00  0.00    +0.190 C 
ATOM     13  C   LIG    1       -5.555   4.600   1.300  0.00  0.00    +0.070 C 
ATOM     14  C   LIG    1       -7.001   5.101   1.551  0.00  0.00    +0.180 C 
ATOM     15  C   LIG    1       -7.830   4.102   0.706  0.00  0.00    +0.190 C 
ATOM     16  N   LIG    1       -7.009   3.854  -0.498  0.00  0.00    -0.450 N 
BRANCH  16  17
ATOM     17  C   LIG    1       -7.165   2.552  -0.946  0.00  0.00    +0.350 A 
ATOM     18  C   LIG    1       -6.763   2.192  -2.233  0.00  0.00    -0.090 A 
ATOM     19  C   LIG    1       -6.936   0.880  -2.631  0.00  0.00    +0.330 A 
ATOM     20  N   LIG    1       -7.483   0.016  -1.789  0.00  0.00    -0.530 NA
ATOM     21  C   LIG    1       -7.857   0.388  -0.581  0.00  0.00    +0.510 A 
ATOM     22  N   LIG    1       -7.706   1.627  -0.158  0.00  0.00    -0.530 NA
ENDBRANCH  16  17
BRANCH  14  23
ATOM     23  O   LIG    1       -7.342   5.008   2.936  0.00  0.00    -0.550 OA
ATOM     24  H   LIG    1       -8.266   5.218   3.128  0.00  0.00    +0.390 HD
ENDBRANCH  14  23
ENDBRANCH   8  12
BRANCH   1  26
ATOM     25  N   LIG    1       -0.069  -0.833  -2.179  0.00  0.00    -0.400 NA
ATOM     26  C   LIG    1       -0.229   0.275  -2.372  0.00  0.00    +0.240 C 
ENDBRANCH   1  26
TORSDOF 4
