REMARK  Name = ZINCqH0000038Nkv.0
REMARK                            x       y       z     vdW  Elec       q    Type
REMARK                         _______ _______ _______ _____ _____    ______ ____
ROOT
ATOM      1  C   LIG    1       -2.669  -2.131  -1.442  0.00  0.00    +0.160 C 
ATOM      2  C   LIG    1       -2.187  -3.597  -1.535  0.00  0.00    +0.000 C 
ATOM      3  C   LIG    1       -3.115  -4.261  -2.570  0.00  0.00    +0.170 C 
ATOM      4  N   LIG    1       -4.082  -3.231  -3.009  0.00  0.00    -0.500 NA
ATOM      5  C   LIG    1       -3.411  -1.925  -2.787  0.00  0.00    +0.210 C 
ENDROOT
BRANCH   1   6
ATOM      6  O   LIG    1       -1.558  -1.239  -1.336  0.00  0.00    -0.370 OA
BRANCH   6   7
ATOM      7  C   LIG    1       -1.173  -0.948   0.009  0.00  0.00    +0.270 C 
BRANCH   7  14
ATOM      8  C   LIG    1       -1.236   2.296   0.021  0.00  0.00    +0.160 C 
ATOM      9  C   LIG    1       -0.017   1.410   0.010  0.00  0.00    +0.040 A 
ATOM     10  N   LIG    1        1.227   1.794   0.000  0.00  0.00    -0.370 NA
ATOM     11  O   LIG    1        1.984   0.851  -0.012  0.00  0.00    +0.100 OA
ATOM     12  C   LIG    1        1.321  -0.314  -0.012  0.00  0.00    -0.010 A 
ATOM     13  C   LIG    1        1.923  -1.695  -0.026  0.00  0.00    +0.190 C 
ATOM     14  C   LIG    1        0.002  -0.004   0.002  0.00  0.00    -0.210 A 
ENDBRANCH   7  14
ENDBRANCH   6   7
ENDBRANCH   1   6
BRANCH   4  15
ATOM     15  C   LIG    1       -4.433  -3.409  -4.424  0.00  0.00    +0.330 C 
BRANCH  15  16
ATOM     16  C   LIG    1       -3.246  -3.058  -5.285  0.00  0.00    -0.040 A 
ATOM     17  C   LIG    1       -2.336  -3.922  -5.769  0.00  0.00    +0.160 A 
ATOM     18  O   LIG    1       -1.446  -3.206  -6.484  0.00  0.00    -0.190 OA
ATOM     19  C   LIG    1       -1.821  -1.916  -6.429  0.00  0.00    +0.240 A 
ATOM     20  N   LIG    1       -2.913  -1.829  -5.708  0.00  0.00    -0.460 NA
BRANCH  19  21
ATOM     21  C   LIG    1       -1.123  -0.786  -7.078  0.00  0.00    -0.020 A 
ATOM     22  C   LIG    1       -1.619   0.512  -6.949  0.00  0.00    +0.070 A 
ATOM     23  C   LIG    1       -0.960   1.563  -7.553  0.00  0.00    +0.010 A 
ATOM     24  C   LIG    1        0.184   1.331  -8.295  0.00  0.00    +0.030 A 
ATOM     25  C   LIG    1        0.679   0.046  -8.431  0.00  0.00    +0.010 A 
ATOM     26  C   LIG    1        0.033  -1.013  -7.828  0.00  0.00    +0.040 A 
ENDBRANCH  19  21
ENDBRANCH  15  16
ENDBRANCH   4  15
TORSDOF 6
