REMARK  Name = ZINCqH0000003QcS.0
REMARK                            x       y       z     vdW  Elec       q    Type
REMARK                         _______ _______ _______ _____ _____    ______ ____
ROOT
ATOM      1  C   LIG    1        5.340   3.335  -1.469  0.00  0.00    +0.510 C 
ATOM      2  N   LIG    1        5.999   3.506  -2.632  0.00  0.00    -0.620 N 
ATOM      3  C   LIG    1        5.465   2.966  -3.893  0.00  0.00    +0.250 C 
ATOM      4  C   LIG    1        6.576   2.170  -4.587  0.00  0.00    +0.210 C 
ATOM      5  O   LIG    1        7.745   2.987  -4.692  0.00  0.00    -0.370 OA
ATOM      6  C   LIG    1        8.297   3.382  -3.434  0.00  0.00    +0.220 C 
ATOM      7  C   LIG    1        7.271   4.244  -2.681  0.00  0.00    +0.240 C 
ATOM      8  O   LIG    1        5.833   3.721  -0.431  0.00  0.00    -0.500 OA
ENDROOT
BRANCH   7   9
ATOM      9  C   LIG    1        7.758   4.508  -1.279  0.00  0.00    -0.020 A 
ATOM     10  C   LIG    1        8.228   3.465  -0.503  0.00  0.00    +0.030 A 
ATOM     11  C   LIG    1        8.676   3.706   0.782  0.00  0.00    +0.050 A 
ATOM     12  C   LIG    1        8.655   4.989   1.293  0.00  0.00    -0.020 A 
ATOM     13  C   LIG    1        8.184   6.035   0.517  0.00  0.00    +0.100 A 
ATOM     14  F   LIG    1        8.163   7.291   1.015  0.00  0.00    -0.140 F 
ATOM     15  C   LIG    1        7.741   5.794  -0.772  0.00  0.00    -0.020 A 
ENDBRANCH   7   9
BRANCH   1  16
ATOM     16  C   LIG    1        3.991   2.664  -1.460  0.00  0.00    +0.050 C 
BRANCH  16  17
ATOM     17  C   LIG    1        3.465   2.596  -0.024  0.00  0.00    +0.110 C 
BRANCH  17  23
ATOM     18  C   LIG    1        2.029   0.541   0.030  0.00  0.00    +0.130 A 
ATOM     19  C   LIG    1        0.786  -0.074   0.039  0.00  0.00    -0.080 A 
ATOM     20  C   LIG    1       -0.363   0.693   0.004  0.00  0.00    +0.040 A 
ATOM     21  C   LIG    1       -0.274   2.072  -0.040  0.00  0.00    -0.040 A 
ATOM     22  C   LIG    1        0.965   2.687  -0.049  0.00  0.00    +0.050 A 
ATOM     23  C   LIG    1        2.116   1.925  -0.015  0.00  0.00    -0.120 A 
BRANCH  18  24
ATOM     24  O   LIG    1        3.161  -0.211   0.065  0.00  0.00    -0.310 OA
BRANCH  24  26
ATOM     25  C   LIG    1        4.369  -2.303   0.144  0.00  0.00    +0.070 C 
ATOM     26  C   LIG    1        2.995  -1.630   0.110  0.00  0.00    +0.170 C 
ENDBRANCH  24  26
ENDBRANCH  18  24
ENDBRANCH  17  23
ENDBRANCH  16  17
ENDBRANCH   1  16
TORSDOF 6
