REMARK  Name = ZINCrH00000No56y.0
REMARK                            x       y       z     vdW  Elec       q    Type
REMARK                         _______ _______ _______ _____ _____    ______ ____
ROOT
ATOM      1  C   LIG    1       -4.512   3.794   5.881  0.00  0.00    -0.120 A 
ATOM      2  C   LIG    1       -5.870   4.119   5.869  0.00  0.00    +0.100 A 
ATOM      3  C   LIG    1       -6.458   4.660   6.993  0.00  0.00    -0.040 A 
ATOM      4  C   LIG    1       -5.707   4.883   8.134  0.00  0.00    +0.080 A 
ATOM      5  C   LIG    1       -4.362   4.567   8.160  0.00  0.00    -0.090 A 
ATOM      6  C   LIG    1       -3.757   4.017   7.042  0.00  0.00    +0.180 A 
ENDROOT
BRANCH   1   8
ATOM      7  N   LIG    1       -2.613   2.915   4.701  0.00  0.00    -0.250 NA
ATOM      8  C   LIG    1       -3.877   3.215   4.685  0.00  0.00    +0.330 C 
BRANCH   7  17
ATOM      9  C   LIG    1       -1.691   0.285   4.659  0.00  0.00    +0.150 C 
ATOM     10  C   LIG    1       -1.521   1.194   3.469  0.00  0.00    +0.220 A 
ATOM     11  C   LIG    1       -0.907   0.723   2.353  0.00  0.00    -0.080 A 
ATOM     12  C   LIG    1       -0.743   1.551   1.243  0.00  0.00    +0.100 A 
ATOM     13  C   LIG    1       -1.212   2.862   1.302  0.00  0.00    -0.190 A 
ATOM     14  C   LIG    1       -1.852   3.307   2.487  0.00  0.00    +0.530 A 
ATOM     15  O   LIG    1       -2.275   4.448   2.563  0.00  0.00    -0.530 OA
ATOM     16  C   LIG    1       -0.062   1.038  -0.000  0.00  0.00    +0.120 C 
ATOM     17  N   LIG    1       -1.985   2.467   3.531  0.00  0.00    -0.360 N 
BRANCH  13  18
ATOM     18  C   LIG    1       -1.055   3.744   0.185  0.00  0.00    +0.280 C 
ATOM     19  N   LIG    1       -0.931   4.443  -0.702  0.00  0.00    -0.420 NA
ENDBRANCH  13  18
ENDBRANCH   7  17
ENDBRANCH   1   8
BRANCH   6  20
ATOM     20  O   LIG    1       -2.437   3.700   7.068  0.00  0.00    -0.270 OA
BRANCH  20  21
ATOM     21  C   LIG    1       -1.732   3.956   8.285  0.00  0.00    +0.240 C 
BRANCH  21  22
ATOM     22  C   LIG    1       -0.291   3.544   8.127  0.00  0.00    -0.090 A 
ATOM     23  C   LIG    1        0.099   2.258   8.447  0.00  0.00    +0.030 A 
ATOM     24  C   LIG    1        1.420   1.879   8.298  0.00  0.00    +0.000 A 
ATOM     25  C   LIG    1        2.353   2.789   7.838  0.00  0.00    +0.010 A 
ATOM     26  C   LIG    1        1.963   4.077   7.522  0.00  0.00    +0.000 A 
ATOM     27  C   LIG    1        0.641   4.455   7.666  0.00  0.00    +0.030 A 
ENDBRANCH  21  22
ENDBRANCH  20  21
ENDBRANCH   6  20
TORSDOF 6
