REMARK  Name = ZINCvU00000009cc.0
REMARK                            x       y       z     vdW  Elec       q    Type
REMARK                         _______ _______ _______ _____ _____    ______ ____
ROOT
ATOM      1  C   LIG    1        2.555  -4.010  -1.460  0.00  0.00    +0.170 A 
ATOM      2  N   LIG    1        2.768  -4.576  -0.293  0.00  0.00    -0.280 NA
ATOM      3  N   LIG    1        3.183  -5.781  -0.456  0.00  0.00    -0.260 NA
ATOM      4  C   LIG    1        3.269  -6.058  -1.736  0.00  0.00    +0.240 A 
ATOM      5  N   LIG    1        2.870  -4.931  -2.421  0.00  0.00    -0.410 N 
ENDROOT
BRANCH   5   6
ATOM      6  C   LIG    1        2.799  -4.765  -3.811  0.00  0.00    +0.090 A 
ATOM      7  C   LIG    1        3.898  -4.285  -4.511  0.00  0.00    +0.040 A 
ATOM      8  C   LIG    1        3.826  -4.123  -5.880  0.00  0.00    -0.080 A 
ATOM      9  C   LIG    1        2.661  -4.438  -6.555  0.00  0.00    +0.050 A 
ATOM     10  C   LIG    1        1.564  -4.915  -5.861  0.00  0.00    +0.040 A 
ATOM     11  C   LIG    1        5.019  -3.602  -6.641  0.00  0.00    +0.100 C 
ATOM     12  C   LIG    1        1.632  -5.085  -4.492  0.00  0.00    -0.070 A 
ATOM     13  C   LIG    1        0.439  -5.611  -3.737  0.00  0.00    +0.100 C 
ENDBRANCH   5   6
BRANCH   4  14
ATOM     14  C   LIG    1        3.713  -7.337  -2.331  0.00  0.00    -0.010 A 
ATOM     15  C   LIG    1        4.380  -8.280  -1.547  0.00  0.00    +0.070 A 
ATOM     16  C   LIG    1        4.791  -9.472  -2.107  0.00  0.00    +0.040 A 
ATOM     17  C   LIG    1        4.543  -9.734  -3.443  0.00  0.00    +0.050 A 
ATOM     18  C   LIG    1        3.881  -8.803  -4.226  0.00  0.00    -0.030 A 
ATOM     19 CL   LIG    1        3.574  -9.142  -5.901  0.00  0.00    -0.060 Cl
ATOM     20  C   LIG    1        3.461  -7.609  -3.676  0.00  0.00    +0.040 A 
ENDBRANCH   4  14
BRANCH   1  21
ATOM     21  S   LIG    1        1.979  -2.368  -1.736  0.00  0.00    +0.040 S 
BRANCH  21  22
ATOM     22  C   LIG    1        1.796  -1.807  -0.025  0.00  0.00    +0.220 C 
BRANCH  22  26
ATOM     23  C   LIG    1        1.286   1.809  -0.001  0.00  0.00    -0.050 A 
ATOM     24  C   LIG    1       -0.017   1.399   0.010  0.00  0.00    +0.070 A 
ATOM     25  C   LIG    1        0.002  -0.004   0.002  0.00  0.00    -0.020 A 
ATOM     26  C   LIG    1        1.299  -0.385  -0.012  0.00  0.00    +0.030 A 
ATOM     27  O   LIG    1        2.070   0.711  -0.014  0.00  0.00    -0.140 OA
BRANCH  23  28
ATOM     28  C   LIG    1        1.751   3.198   0.003  0.00  0.00    +0.550 C 
ATOM     29  O   LIG    1        0.946   4.109   0.015  0.00  0.00    -0.480 OA
BRANCH  28  31
ATOM     30  C   LIG    1        3.462   4.866  -0.005  0.00  0.00    +0.290 C 
ATOM     31  O   LIG    1        3.073   3.467  -0.009  0.00  0.00    -0.350 OA
ENDBRANCH  28  31
ENDBRANCH  23  28
ENDBRANCH  22  26
ENDBRANCH  21  22
ENDBRANCH   1  21
TORSDOF 7
