REMARK  Name = ZINCtV000002GI6v.0
REMARK                            x       y       z     vdW  Elec       q    Type
REMARK                         _______ _______ _______ _____ _____    ______ ____
ROOT
ATOM      1  C   LIG    1       -2.004  -1.832   0.011  0.00  0.00    +0.440 C 
ATOM      2  O   LIG    1       -1.057  -2.591  -0.002  0.00  0.00    -0.460 OA
ENDROOT
BRANCH   1   3
ATOM      3  C   LIG    1       -3.368  -2.364   0.021  0.00  0.00    -0.260 A 
ATOM      4  C   LIG    1       -3.743  -3.695   0.012  0.00  0.00    +0.130 A 
ATOM      5  N   LIG    1       -5.088  -3.752   0.031  0.00  0.00    -0.390 N 
ATOM      6  C   LIG    1       -5.618  -2.491   0.042  0.00  0.00    +0.020 A 
ATOM      7  C   LIG    1       -7.088  -2.162   0.058  0.00  0.00    +0.120 C 
ATOM      8  C   LIG    1       -2.808  -4.877  -0.010  0.00  0.00    +0.150 C 
ATOM      9  C   LIG    1       -4.618  -1.593   0.037  0.00  0.00    +0.010 A 
BRANCH   5  10
ATOM     10  C   LIG    1       -5.840  -4.936   0.032  0.00  0.00    +0.070 A 
ATOM     11  C   LIG    1       -6.229  -5.513  -1.169  0.00  0.00    +0.070 A 
ATOM     12  C   LIG    1       -6.964  -6.683  -1.165  0.00  0.00    +0.020 A 
ATOM     13  C   LIG    1       -7.323  -7.273   0.032  0.00  0.00    +0.070 A 
ATOM     14  C   LIG    1       -6.943  -6.698   1.231  0.00  0.00    +0.000 A 
ATOM     15  C   LIG    1       -6.202  -5.530   1.235  0.00  0.00    +0.120 A 
ATOM     16  F   LIG    1       -5.831  -4.968   2.406  0.00  0.00    -0.130 F 
ENDBRANCH   5  10
ENDBRANCH   1   3
BRANCH   1  17
ATOM     17  C   LIG    1       -1.776  -0.343   0.017  0.00  0.00    +0.110 C 
BRANCH  17  18
ATOM     18  S   LIG    1        0.002  -0.004   0.002  0.00  0.00    -0.000 S 
BRANCH  18  22
ATOM     19  C   LIG    1        2.482   4.597   0.004  0.00  0.00    +0.120 C 
ATOM     20  C   LIG    1        1.190   3.821   0.011  0.00  0.00    -0.010 A 
ATOM     21  C   LIG    1        1.193   2.460   0.004  0.00  0.00    -0.020 A 
ATOM     22  C   LIG    1       -0.022   1.758   0.012  0.00  0.00    +0.140 A 
ATOM     23  N   LIG    1       -1.180   2.386   0.021  0.00  0.00    -0.490 NA
ATOM     24  C   LIG    1       -1.245   3.722   0.034  0.00  0.00    +0.150 A 
ATOM     25  C   LIG    1       -2.483   4.386   0.049  0.00  0.00    +0.030 A 
ATOM     26  C   LIG    1       -2.521   5.747   0.057  0.00  0.00    +0.040 A 
ATOM     27  C   LIG    1       -1.348   6.497   0.050  0.00  0.00    +0.010 A 
ATOM     28  C   LIG    1       -0.129   5.888   0.035  0.00  0.00    +0.040 A 
ATOM     29  C   LIG    1       -0.053   4.487   0.027  0.00  0.00    -0.110 A 
ENDBRANCH  18  22
ENDBRANCH  17  18
ENDBRANCH   1  17
TORSDOF 5
