REMARK  Name = ZINCpe000000Z4z7.0
REMARK                            x       y       z     vdW  Elec       q    Type
REMARK                         _______ _______ _______ _____ _____    ______ ____
ROOT
ATOM      1  O   LIG    1        0.778   0.651  -2.535  0.00  0.00    -0.590 OA
ATOM      2  C   LIG    1       -0.268   1.258  -2.409  0.00  0.00    +0.710 C 
ATOM      3  N   LIG    1       -0.974   1.619  -3.499  0.00  0.00    -0.630 N 
ATOM      4  C   LIG    1       -0.553   1.199  -4.844  0.00  0.00    +0.330 C 
ATOM      5  C   LIG    1       -1.759   0.559  -5.550  0.00  0.00    +0.200 C 
ATOM      6  N   LIG    1       -2.891   1.495  -5.518  0.00  0.00    -0.470 N 
ATOM      7  C   LIG    1       -3.322   1.763  -4.139  0.00  0.00    +0.210 C 
ATOM      8  C   LIG    1       -2.183   2.447  -3.375  0.00  0.00    +0.280 C 
ATOM      9  N   LIG    1       -0.721   1.571  -1.179  0.00  0.00    -0.750 N 
ATOM     10  H   LIG    1       -1.516   2.119  -1.079  0.00  0.00    +0.400 HD
ENDROOT
BRANCH   6  11
ATOM     11  C   LIG    1       -3.948   1.024  -6.288  0.00  0.00    +0.260 A 
ATOM     12  C   LIG    1       -3.749   0.708  -7.630  0.00  0.00    +0.210 A 
ATOM     13  N   LIG    1       -4.755   0.261  -8.357  0.00  0.00    -0.420 NA
ATOM     14  C   LIG    1       -5.951   0.112  -7.813  0.00  0.00    +0.190 A 
ATOM     15  C   LIG    1       -6.153   0.424  -6.481  0.00  0.00    +0.250 A 
ATOM     16  N   LIG    1       -5.149   0.868  -5.745  0.00  0.00    -0.480 NA
ENDBRANCH   6  11
BRANCH   9  17
ATOM     17  C   LIG    1       -0.014   1.084   0.008  0.00  0.00    +0.280 C 
BRANCH  17  18
ATOM     18  C   LIG    1       -0.730   1.578   1.267  0.00  0.00    +0.030 C 
BRANCH  18  19
ATOM     19  C   LIG    1        0.009   1.070   2.506  0.00  0.00    +0.170 C 
BRANCH  19  20
ATOM     20  O   LIG    1       -0.659   1.531   3.682  0.00  0.00    -0.380 OA
BRANCH  20  21
ATOM     21  C   LIG    1       -0.046   1.110   4.902  0.00  0.00    +0.160 C 
BRANCH  21  22
ATOM     22  C   LIG    1       -0.842   1.658   6.088  0.00  0.00    +0.170 C 
ATOM     23  C   LIG    1       -0.124   1.306   7.409  0.00  0.00    +0.020 C 
ATOM     24  C   LIG    1       -1.312   0.956   8.347  0.00  0.00    +0.010 C 
ATOM     25  C   LIG    1       -2.297   0.306   7.343  0.00  0.00    +0.200 C 
ATOM     26  O   LIG    1       -2.139   1.052   6.126  0.00  0.00    -0.370 OA
ENDBRANCH  21  22
ENDBRANCH  20  21
ENDBRANCH  19  20
ENDBRANCH  18  19
ENDBRANCH  17  18
ENDBRANCH   9  17
TORSDOF 7
