REMARK  Name = ZINCqH0000033Ygu.0
REMARK                            x       y       z     vdW  Elec       q    Type
REMARK                         _______ _______ _______ _____ _____    ______ ____
ROOT
ATOM      1  C   LIG    1        2.848   0.016   1.475  0.00  0.00    +0.160 C 
ATOM      2  C   LIG    1        2.231  -1.346   1.126  0.00  0.00    +0.270 C 
ATOM      3  N   LIG    1        2.159  -2.134   2.368  0.00  0.00    -0.550 N 
ATOM      4  C   LIG    1        1.742  -1.473   3.536  0.00  0.00    +0.080 A 
ATOM      5  C   LIG    1        1.383  -2.204   4.657  0.00  0.00    +0.050 A 
ATOM      6  C   LIG    1        0.977  -1.549   5.805  0.00  0.00    +0.000 A 
ATOM      7  C   LIG    1        0.929  -0.168   5.835  0.00  0.00    +0.030 A 
ATOM      8  C   LIG    1        1.285   0.566   4.718  0.00  0.00    +0.010 A 
ATOM      9  C   LIG    1        1.692  -0.081   3.562  0.00  0.00    +0.100 A 
ATOM     10  C   LIG    1        2.480  -3.442   2.385  0.00  0.00    +0.610 C 
ATOM     11  O   LIG    1        2.523  -4.045   3.441  0.00  0.00    -0.490 OA
ATOM     12  O   LIG    1        2.037   0.648   2.469  0.00  0.00    -0.300 OA
ENDROOT
BRANCH  10  13
ATOM     13  C   LIG    1        2.780  -4.140   1.128  0.00  0.00    -0.320 A 
ATOM     14  C   LIG    1        3.643  -5.192   0.975  0.00  0.00    +0.160 A 
ATOM     15  N   LIG    1        3.731  -5.633  -0.251  0.00  0.00    -0.430 NA
ATOM     16  C   LIG    1        3.007  -5.036  -1.155  0.00  0.00    +0.090 A 
ATOM     17  C   LIG    1        4.422  -5.788   2.119  0.00  0.00    +0.170 C 
ATOM     18  S   LIG    1        2.088  -3.778  -0.451  0.00  0.00    +0.280 S 
BRANCH  16  19
ATOM     19  C   LIG    1        2.980  -5.401  -2.588  0.00  0.00    +0.370 A 
ATOM     20  N   LIG    1        2.196  -4.720  -3.415  0.00  0.00    -0.510 NA
ATOM     21  C   LIG    1        2.151  -5.018  -4.701  0.00  0.00    +0.340 A 
ATOM     22  C   LIG    1        2.929  -6.061  -5.182  0.00  0.00    -0.050 A 
ATOM     23  C   LIG    1        3.734  -6.755  -4.290  0.00  0.00    +0.330 A 
ATOM     24  N   LIG    1        3.736  -6.404  -3.016  0.00  0.00    -0.470 NA
ENDBRANCH  16  19
ENDBRANCH  10  13
BRANCH   1  26
ATOM     25  C   LIG    1        3.612   2.207   0.548  0.00  0.00    +0.030 C 
ATOM     26  C   LIG    1        2.899   0.892   0.222  0.00  0.00    +0.050 C 
ENDBRANCH   1  26
TORSDOF 3
