REMARK  Name = ZINCpe00000gN7C5.0
REMARK                            x       y       z     vdW  Elec       q    Type
REMARK                         _______ _______ _______ _____ _____    ______ ____
ROOT
ATOM      1  C   LIG    1        6.789   0.205   2.254  0.00  0.00    +0.240 C 
ATOM      2  C   LIG    1        6.744   1.717   2.025  0.00  0.00    +0.030 C 
ATOM      3  C   LIG    1        6.137   2.003   0.648  0.00  0.00    +0.300 C 
ATOM      4  N   LIG    1        4.828   1.340   0.562  0.00  0.00    -0.600 N 
ATOM      5  C   LIG    1        4.742  -0.096   0.858  0.00  0.00    +0.300 C 
ATOM      6  C   LIG    1        3.726   2.038   0.223  0.00  0.00    +0.580 C 
ATOM      7  O   LIG    1        3.819   3.211  -0.080  0.00  0.00    -0.500 OA
ATOM      8  C   LIG    1        5.367  -0.359   2.228  0.00  0.00    +0.020 C 
ENDROOT
BRANCH   6   9
ATOM      9  C   LIG    1        2.401   1.375   0.219  0.00  0.00    +0.090 A 
ATOM     10  C   LIG    1        1.328   2.065   0.677  0.00  0.00    -0.060 A 
ATOM     11  C   LIG    1        0.012   1.404   0.652  0.00  0.00    +0.420 A 
ATOM     12  C   LIG    1       -0.071   0.157  -0.134  0.00  0.00    -0.210 A 
ATOM     13  C   LIG    1       -1.298  -0.423  -0.453  0.00  0.00    +0.130 A 
ATOM     14  C   LIG    1       -1.327  -1.584  -1.196  0.00  0.00    -0.060 A 
ATOM     15  C   LIG    1       -0.142  -2.170  -1.623  0.00  0.00    +0.100 A 
ATOM     16  C   LIG    1        1.076  -1.607  -1.311  0.00  0.00    +0.040 A 
ATOM     17 CL   LIG    1       -2.849  -2.316  -1.598  0.00  0.00    -0.050 Cl
ATOM     18  C   LIG    1        1.130  -0.437  -0.560  0.00  0.00    +0.150 A 
ATOM     19  O   LIG    1       -0.952   1.861   1.241  0.00  0.00    -0.440 OA
ATOM     20  O   LIG    1        2.313   0.119  -0.239  0.00  0.00    -0.210 OA
ENDBRANCH   6   9
BRANCH   1  21
ATOM     21  N   LIG    1        7.400  -0.074   3.556  0.00  0.00    -1.120 NA
ATOM     22  H   LIG    1        7.248   0.528   4.302  0.00  0.00    +0.420 HD
BRANCH  21  23
ATOM     23  S   LIG    1        8.350  -1.415   3.755  0.00  0.00    +2.800 S 
ATOM     24  O   LIG    1        7.622  -2.507   3.210  0.00  0.00    -0.980 OA
ATOM     25  O   LIG    1        8.813  -1.383   5.098  0.00  0.00    -0.980 OA
BRANCH  23  26
ATOM     26  N   LIG    1        9.685  -1.217   2.796  0.00  0.00    -1.260 NA
ATOM     27  H   LIG    1       10.371  -1.903   2.771  0.00  0.00    +0.420 HD
ATOM     28  H   LIG    1        9.781  -0.416   2.258  0.00  0.00    +0.410 HD
ENDBRANCH  23  26
ENDBRANCH  21  23
ENDBRANCH   1  21
TORSDOF 4
