REMARK  Name = ZINCvU0000000EIx.0
REMARK                            x       y       z     vdW  Elec       q    Type
REMARK                         _______ _______ _______ _____ _____    ______ ____
ROOT
ATOM      1  C   LIG    1       -3.744   1.687   0.679  0.00  0.00    +0.300 C 
ATOM      2  N   LIG    1       -3.790   3.121   0.385  0.00  0.00    -0.590 N 
ATOM      3  C   LIG    1       -2.670   3.865   0.478  0.00  0.00    +0.570 C 
ATOM      4  O   LIG    1       -2.714   5.061   0.265  0.00  0.00    -0.530 OA
ENDROOT
BRANCH   3   5
ATOM      5  C   LIG    1       -1.389   3.227   0.840  0.00  0.00    -0.130 A 
ATOM      6  C   LIG    1       -1.337   2.301   1.886  0.00  0.00    +0.070 A 
ATOM      7  C   LIG    1       -0.140   1.712   2.223  0.00  0.00    +0.000 A 
ATOM      8  C   LIG    1        1.016   2.029   1.518  0.00  0.00    +0.110 A 
ATOM      9  C   LIG    1        0.968   2.945   0.474  0.00  0.00    +0.010 A 
ATOM     10  C   LIG    1       -0.225   3.543   0.134  0.00  0.00    +0.090 A 
BRANCH   8  11
ATOM     11  O   LIG    1        2.193   1.442   1.850  0.00  0.00    -0.260 OA
BRANCH  11  12
ATOM     12  C   LIG    1        2.343   0.117   1.587  0.00  0.00    +0.120 A 
ATOM     13  C   LIG    1        1.358  -0.568   0.890  0.00  0.00    -0.060 A 
ATOM     14  C   LIG    1        1.514  -1.914   0.620  0.00  0.00    +0.050 A 
ATOM     15  C   LIG    1        2.646  -2.580   1.051  0.00  0.00    -0.020 A 
ATOM     16  C   LIG    1        3.627  -1.901   1.750  0.00  0.00    +0.050 A 
ATOM     17  C   LIG    1        3.478  -0.554   2.019  0.00  0.00    -0.010 A 
ENDBRANCH  11  12
ENDBRANCH   8  11
ENDBRANCH   3   5
BRANCH   2  18
ATOM     18  C   LIG    1       -5.054   3.748  -0.011  0.00  0.00    +0.370 C 
BRANCH  18  19
ATOM     19  C   LIG    1       -6.078   3.543   1.075  0.00  0.00    -0.070 A 
ATOM     20  C   LIG    1       -6.679   4.635   1.672  0.00  0.00    +0.020 A 
ATOM     21  C   LIG    1       -7.623   4.449   2.666  0.00  0.00    +0.050 A 
ATOM     22  C   LIG    1       -7.958   3.171   3.070  0.00  0.00    -0.010 A 
ATOM     23  C   LIG    1       -7.352   2.076   2.477  0.00  0.00    +0.100 A 
ATOM     24  F   LIG    1       -7.678   0.826   2.871  0.00  0.00    -0.140 F 
ATOM     25  C   LIG    1       -6.411   2.264   1.478  0.00  0.00    +0.010 A 
ENDBRANCH  18  19
BRANCH  18  26
ATOM     26  C   LIG    1       -5.546   3.121  -1.290  0.00  0.00    +0.120 A 
ATOM     27  C   LIG    1       -6.383   3.837  -2.124  0.00  0.00    -0.020 A 
ATOM     28  C   LIG    1       -6.831   3.251  -3.298  0.00  0.00    +0.070 A 
ATOM     29  C   LIG    1       -6.417   1.961  -3.591  0.00  0.00    -0.030 A 
ATOM     30  C   LIG    1       -5.578   1.306  -2.709  0.00  0.00    +0.260 A 
ATOM     31  N   LIG    1       -5.168   1.897  -1.604  0.00  0.00    -0.470 NA
ENDBRANCH  18  26
ENDBRANCH   2  18
TORSDOF 6
