REMARK  Name = ZINCrH000004jBPJ.0
REMARK                            x       y       z     vdW  Elec       q    Type
REMARK                         _______ _______ _______ _____ _____    ______ ____
ROOT
ATOM      1  S   LIG    1        2.760  -2.288  -0.707  0.00  0.00    +2.690 S 
ATOM      2  O   LIG    1        1.742  -2.314  -1.698  0.00  0.00    -0.930 OA
ATOM      3  O   LIG    1        3.135  -3.429   0.052  0.00  0.00    -0.950 OA
ENDROOT
BRANCH   1   8
ATOM      4  C   LIG    1        6.597  -1.853  -1.851  0.00  0.00    -0.150 A 
ATOM      5  C   LIG    1        6.517  -0.820  -2.786  0.00  0.00    +0.150 A 
ATOM      6  C   LIG    1        5.295  -0.248  -3.074  0.00  0.00    +0.020 A 
ATOM      7  C   LIG    1        4.150  -0.697  -2.439  0.00  0.00    +0.070 A 
ATOM      8  C   LIG    1        4.223  -1.723  -1.510  0.00  0.00    -0.690 A 
ATOM      9 CL   LIG    1        2.616   0.028  -2.806  0.00  0.00    -0.020 Cl
ATOM     10  C   LIG    1        5.439  -2.299  -1.210  0.00  0.00    +0.180 A 
BRANCH   4  13
ATOM     11  C   LIG    1        9.251  -4.381  -0.854  0.00  0.00    +0.300 C 
ATOM     12  N   LIG    1        7.979  -3.791  -1.279  0.00  0.00    -0.610 N 
ATOM     13  C   LIG    1        7.903  -2.470  -1.538  0.00  0.00    +0.560 C 
ATOM     14  O   LIG    1        8.908  -1.787  -1.514  0.00  0.00    -0.520 OA
ATOM     15  C   LIG    1        6.791  -4.636  -1.422  0.00  0.00    +0.290 C 
ENDBRANCH   4  13
ENDBRANCH   1   8
BRANCH   1  16
ATOM     16  N   LIG    1        2.320  -1.123   0.385  0.00  0.00    -1.100 NA
ATOM     17  H   LIG    1        2.398  -1.296   1.337  0.00  0.00    +0.420 HD
BRANCH  16  18
ATOM     18  C   LIG    1        1.812   0.168  -0.085  0.00  0.00    +0.290 C 
ATOM     19  C   LIG    1        0.586   0.597   0.748  0.00  0.00    +0.060 C 
ATOM     20  C   LIG    1        0.747   2.131   0.808  0.00  0.00    -0.030 C 
ATOM     21  C   LIG    1        2.232   2.380   0.654  0.00  0.00    -0.070 A 
ATOM     22  C   LIG    1        2.987   3.504   0.941  0.00  0.00    +0.020 A 
ATOM     23  C   LIG    1        4.350   3.502   0.716  0.00  0.00    +0.010 A 
ATOM     24  C   LIG    1        4.963   2.374   0.203  0.00  0.00    +0.000 A 
ATOM     25  C   LIG    1        4.210   1.251  -0.084  0.00  0.00    +0.010 A 
ATOM     26  C   LIG    1        0.256   2.664   2.155  0.00  0.00    +0.040 C 
ATOM     27  C   LIG    1       -0.024   2.790  -0.338  0.00  0.00    +0.040 C 
ATOM     28  C   LIG    1        2.844   1.252   0.141  0.00  0.00    -0.110 A 
ENDBRANCH  16  18
ENDBRANCH   1  16
TORSDOF 4
