REMARK  Name = ZINCtV00000L6jaq.0
REMARK                            x       y       z     vdW  Elec       q    Type
REMARK                         _______ _______ _______ _____ _____    ______ ____
ROOT
ATOM      1  C   LIG    1        7.430   4.490  -5.976  0.00  0.00    +0.180 C 
ATOM      2  C   LIG    1        7.246   4.364  -4.486  0.00  0.00    +0.140 A 
ATOM      3  N   LIG    1        6.247   3.762  -3.889  0.00  0.00    -0.310 NA
ATOM      4  N   LIG    1        6.418   3.849  -2.503  0.00  0.00    -0.300 N 
ATOM      5  C   LIG    1        5.669   3.391  -1.449  0.00  0.00    +0.180 A 
ATOM      6  C   LIG    1        6.106   3.644  -0.164  0.00  0.00    -0.080 A 
ATOM      7  C   LIG    1        7.295   4.345   0.024  0.00  0.00    +0.240 A 
ATOM      8  N   LIG    1        7.988   4.770  -1.011  0.00  0.00    -0.460 NA
ATOM      9  C   LIG    1        7.577   4.538  -2.262  0.00  0.00    +0.290 A 
ATOM     10  C   LIG    1        8.114   4.872  -3.512  0.00  0.00    -0.200 A 
ENDROOT
BRANCH  10  11
ATOM     11  C   LIG    1        9.367   5.623  -3.757  0.00  0.00    +0.010 A 
ATOM     12  C   LIG    1       10.595   5.082  -3.374  0.00  0.00    +0.020 A 
ATOM     13  C   LIG    1       11.759   5.784  -3.610  0.00  0.00    +0.000 A 
ATOM     14  C   LIG    1       11.709   7.028  -4.214  0.00  0.00    +0.000 A 
ATOM     15  C   LIG    1       10.495   7.573  -4.591  0.00  0.00    +0.000 A 
ATOM     16  C   LIG    1        9.324   6.878  -4.365  0.00  0.00    +0.010 A 
ENDBRANCH  10  11
BRANCH   7  17
ATOM     17  C   LIG    1        7.788   4.623   1.421  0.00  0.00    -0.020 C 
ATOM     18  C   LIG    1        8.023   3.300   2.153  0.00  0.00    +0.050 C 
ATOM     19  C   LIG    1        6.741   5.445   2.176  0.00  0.00    +0.050 C 
ATOM     20  C   LIG    1        9.100   5.408   1.352  0.00  0.00    +0.050 C 
ENDBRANCH   7  17
BRANCH   5  21
ATOM     21  S   LIG    1        4.174   2.502  -1.730  0.00  0.00    +0.020 S 
BRANCH  21  22
ATOM     22  C   LIG    1        3.672   2.184  -0.021  0.00  0.00    +0.120 C 
BRANCH  22  23
ATOM     23  C   LIG    1        2.377   1.412  -0.013  0.00  0.00    -0.080 A 
ATOM     24  C   LIG    1        1.171   2.086   0.002  0.00  0.00    +0.050 A 
ATOM     25  C   LIG    1       -0.017   1.378   0.010  0.00  0.00    +0.030 A 
ATOM     26  C   LIG    1        0.002  -0.004   0.002  0.00  0.00    +0.050 A 
ATOM     27  C   LIG    1        1.208  -0.679  -0.013  0.00  0.00    +0.030 A 
ATOM     28  C   LIG    1        2.397   0.029  -0.021  0.00  0.00    -0.020 A 
ATOM     29 CL   LIG    1        3.912  -0.818  -0.040  0.00  0.00    -0.060 Cl
ENDBRANCH  22  23
ENDBRANCH  21  22
ENDBRANCH   5  21
TORSDOF 5
