REMARK  Name = ZINCqH0000006LJ6.0
REMARK                            x       y       z     vdW  Elec       q    Type
REMARK                         _______ _______ _______ _____ _____    ______ ____
ROOT
ATOM      1  C   LIG    1       -1.495  -0.637   0.097  0.00  0.00    +0.070 C 
ENDROOT
BRANCH   1   2
ATOM      2  C   LIG    1       -0.135   0.001  -0.017  0.00  0.00    +0.520 C 
ATOM      3  N   LIG    1       -0.016   1.344   0.009  0.00  0.00    -0.670 N 
ATOM      4  H   LIG    1       -0.810   1.900   0.033  0.00  0.00    +0.420 HD
ATOM      5  O   LIG    1        0.853  -0.693  -0.133  0.00  0.00    -0.510 OA
BRANCH   3   6
ATOM      6  C   LIG    1        1.254   1.935  -0.003  0.00  0.00    +0.130 A 
ATOM      7  C   LIG    1        2.288   1.347  -0.719  0.00  0.00    +0.090 A 
ATOM      8  C   LIG    1        3.540   1.931  -0.730  0.00  0.00    +0.050 A 
ATOM      9  C   LIG    1        3.766   3.103  -0.029  0.00  0.00    +0.080 A 
ATOM     10  C   LIG    1        2.737   3.694   0.688  0.00  0.00    +0.050 A 
ATOM     11  F   LIG    1        2.959   4.838   1.372  0.00  0.00    -0.110 F 
ATOM     12  F   LIG    1        4.992   3.671  -0.043  0.00  0.00    -0.120 F 
ATOM     13  C   LIG    1        1.479   3.115   0.698  0.00  0.00    +0.070 A 
ATOM     14  F   LIG    1        0.474   3.692   1.391  0.00  0.00    -0.120 F 
ENDBRANCH   3   6
ENDBRANCH   1   2
BRANCH   1  15
ATOM     15  C   LIG    1       -1.350  -2.159   0.040  0.00  0.00    +0.110 C 
BRANCH  15  18
ATOM     16  C   LIG    1       -4.700  -3.644  -0.885  0.00  0.00    +0.150 A 
ATOM     17  C   LIG    1       -3.449  -3.056  -0.986  0.00  0.00    -0.090 A 
ATOM     18  C   LIG    1       -2.710  -2.798   0.154  0.00  0.00    -0.010 A 
ATOM     19  C   LIG    1       -3.214  -3.129   1.398  0.00  0.00    -0.090 A 
ATOM     20  C   LIG    1       -4.468  -3.712   1.508  0.00  0.00    +0.150 A 
ATOM     21  C   LIG    1       -5.213  -3.974   0.364  0.00  0.00    +0.030 A 
BRANCH  16  23
ATOM     22  C   LIG    1       -4.836  -3.534  -3.257  0.00  0.00    +0.240 C 
ATOM     23  O   LIG    1       -5.425  -3.899  -2.007  0.00  0.00    -0.300 OA
ENDBRANCH  16  23
BRANCH  20  24
ATOM     24  O   LIG    1       -4.965  -4.032   2.732  0.00  0.00    -0.300 OA
ATOM     25  C   LIG    1       -4.144  -3.734   3.864  0.00  0.00    +0.240 C 
ENDBRANCH  20  24
BRANCH  21  26
ATOM     26  O   LIG    1       -6.441  -4.551   0.467  0.00  0.00    -0.310 OA
ATOM     27  C   LIG    1       -6.491  -5.979   0.432  0.00  0.00    +0.210 C 
ENDBRANCH  21  26
ENDBRANCH  15  18
ENDBRANCH   1  15
TORSDOF 7
