REMARK  Name = ZINCrD000000fAPS.0
REMARK                            x       y       z     vdW  Elec       q    Type
REMARK                         _______ _______ _______ _____ _____    ______ ____
ROOT
ATOM      1  C   LIG    1        1.194   1.815   0.007  0.00  0.00    -0.080 A 
ATOM      2  C   LIG    1        0.012   1.098  -0.010  0.00  0.00    +0.050 A 
ATOM      3  C   LIG    1       -1.201   1.761  -0.003  0.00  0.00    +0.060 A 
ATOM      4  C   LIG    1       -1.233   3.147   0.033  0.00  0.00    +0.060 A 
ATOM      5  C   LIG    1       -0.043   3.866   0.050  0.00  0.00    +0.090 A 
ATOM      6  F   LIG    1       -0.070   5.216   0.079  0.00  0.00    -0.120 F 
ATOM      7  C   LIG    1        1.167   3.197   0.037  0.00  0.00    +0.030 A 
ENDROOT
BRANCH   1   8
ATOM      8  C   LIG    1        2.514   1.088  -0.007  0.00  0.00    +0.330 C 
BRANCH   8  10
ATOM      9  C   LIG    1        4.104   0.250  -1.652  0.00  0.00    +0.510 C 
ATOM     10  N   LIG    1        2.943   0.883  -1.393  0.00  0.00    -0.730 N 
ATOM     11  H   LIG    1        2.392   1.203  -2.124  0.00  0.00    +0.400 HD
ATOM     12  O   LIG    1        4.794  -0.150  -0.738  0.00  0.00    -0.520 OA
BRANCH   9  19
ATOM     13  C   LIG    1        6.556  -3.265  -2.869  0.00  0.00    +0.100 C 
ATOM     14  C   LIG    1        5.409  -2.293  -2.758  0.00  0.00    +0.530 C 
ATOM     15  N   LIG    1        5.575  -1.009  -3.132  0.00  0.00    -0.600 N 
ATOM     16  C   LIG    1        6.820  -0.423  -3.663  0.00  0.00    +0.250 C 
ATOM     17  C   LIG    1        6.359   0.805  -4.487  0.00  0.00    +0.040 C 
ATOM     18  C   LIG    1        5.181   1.334  -3.627  0.00  0.00    +0.050 C 
ATOM     19  C   LIG    1        4.546   0.039  -3.077  0.00  0.00    +0.220 C 
ATOM     20  O   LIG    1        4.337  -2.667  -2.334  0.00  0.00    -0.540 OA
ENDBRANCH   9  19
ENDBRANCH   8  10
ENDBRANCH   1   8
BRANCH   4  21
ATOM     21  O   LIG    1       -2.424   3.800   0.046  0.00  0.00    -0.240 OA
BRANCH  21  22
ATOM     22  C   LIG    1       -2.888   4.306  -1.128  0.00  0.00    +0.080 A 
ATOM     23  C   LIG    1       -2.210   4.048  -2.311  0.00  0.00    -0.040 A 
ATOM     24  C   LIG    1       -2.683   4.563  -3.503  0.00  0.00    +0.050 A 
ATOM     25  C   LIG    1       -3.830   5.334  -3.519  0.00  0.00    +0.020 A 
ATOM     26  C   LIG    1       -4.509   5.593  -2.342  0.00  0.00    +0.030 A 
ATOM     27  C   LIG    1       -4.044   5.076  -1.147  0.00  0.00    +0.080 A 
ATOM     28  F   LIG    1       -4.710   5.324   0.003  0.00  0.00    -0.130 F 
ENDBRANCH  21  22
ENDBRANCH   4  21
TORSDOF 5
