REMARK  Name = ZINCpe00000VVGEa.0
REMARK                            x       y       z     vdW  Elec       q    Type
REMARK                         _______ _______ _______ _____ _____    ______ ____
ROOT
ATOM      1  C   LIG    1        0.011   1.072   2.506  0.00  0.00    +0.000 C 
ATOM      2  C   LIG    1       -0.158  -0.456   2.645  0.00  0.00    +0.260 C 
ATOM      3  N   LIG    1       -0.279  -0.688   4.103  0.00  0.00    -0.620 N 
ATOM      4  C   LIG    1       -1.115   0.436   4.585  0.00  0.00    +0.240 C 
ATOM      5  C   LIG    1        0.252  -1.694   4.827  0.00  0.00    +0.550 C 
ATOM      6  O   LIG    1        0.061  -1.746   6.023  0.00  0.00    -0.530 OA
ATOM      7  C   LIG    1       -0.620   1.660   3.786  0.00  0.00    +0.180 C 
ENDROOT
BRANCH   5   8
ATOM      8  C   LIG    1        1.082  -2.753   4.149  0.00  0.00    +0.000 C 
ATOM      9  C   LIG    1        2.411  -2.163   3.624  0.00  0.00    +0.080 C 
ATOM     10  C   LIG    1        3.424  -3.262   3.858  0.00  0.00    +0.520 C 
ATOM     11  N   LIG    1        2.932  -4.167   4.723  0.00  0.00    -0.610 N 
ATOM     12  O   LIG    1        4.519  -3.319   3.342  0.00  0.00    -0.520 OA
ATOM     13  C   LIG    1        1.583  -3.799   5.170  0.00  0.00    +0.300 C 
BRANCH  11  14
ATOM     14  C   LIG    1        3.651  -5.365   5.163  0.00  0.00    +0.330 C 
BRANCH  14  15
ATOM     15  C   LIG    1        3.334  -6.525   4.217  0.00  0.00    -0.060 C 
ATOM     16  C   LIG    1        2.598  -7.732   4.800  0.00  0.00    +0.010 C 
ATOM     17  C   LIG    1        4.081  -7.842   4.439  0.00  0.00    +0.030 C 
ENDBRANCH  14  15
ENDBRANCH  11  14
ENDBRANCH   5   8
BRANCH   7  18
ATOM     18  N   LIG    1        0.386   2.403   4.556  0.00  0.00    -0.520 NA
ATOM     19  C   LIG    1        1.483   1.521   4.980  0.00  0.00    +0.140 C 
ATOM     20  C   LIG    1        2.535   2.345   5.726  0.00  0.00    +0.220 C 
ATOM     21  O   LIG    1        1.917   3.009   6.832  0.00  0.00    -0.380 OA
ATOM     22  C   LIG    1        0.845   3.878   6.455  0.00  0.00    +0.220 C 
ATOM     23  C   LIG    1       -0.225   3.069   5.716  0.00  0.00    +0.150 C 
ENDBRANCH   7  18
BRANCH   1  25
ATOM     24  C   LIG    1       -0.013   1.086   0.008  0.00  0.00    +0.010 C 
ATOM     25  C   LIG    1       -0.729   1.579   1.267  0.00  0.00    +0.030 C 
ENDBRANCH   1  25
TORSDOF 5
