REMARK  Name = ZINCqH0000004R5D.0
REMARK                            x       y       z     vdW  Elec       q    Type
REMARK                         _______ _______ _______ _____ _____    ______ ____
ROOT
ATOM      1  C   LIG    1        0.589   1.795   0.267  0.00  0.00    +0.040 C 
ENDROOT
BRANCH   1   2
ATOM      2  C   LIG    1       -0.099   2.323   1.499  0.00  0.00    +0.520 C 
ATOM      3  N   LIG    1       -0.960   3.355   1.401  0.00  0.00    -0.670 N 
ATOM      4  H   LIG    1       -1.097   3.792   0.546  0.00  0.00    +0.410 HD
ATOM      5  O   LIG    1        0.122   1.818   2.580  0.00  0.00    -0.510 OA
BRANCH   3   6
ATOM      6  C   LIG    1       -1.656   3.796   2.532  0.00  0.00    +0.130 A 
ATOM      7  C   LIG    1       -2.378   2.892   3.301  0.00  0.00    -0.070 A 
ATOM      8  C   LIG    1       -3.059   3.329   4.420  0.00  0.00    +0.010 A 
ATOM      9  C   LIG    1       -3.033   4.667   4.768  0.00  0.00    -0.080 A 
ATOM     10  C   LIG    1       -2.320   5.570   4.001  0.00  0.00    +0.010 A 
ATOM     11  C   LIG    1       -3.782   5.141   5.987  0.00  0.00    +0.090 C 
ATOM     12  C   LIG    1       -2.412   1.435   2.918  0.00  0.00    +0.080 C 
ATOM     13  C   LIG    1       -1.631   5.138   2.885  0.00  0.00    -0.090 A 
ATOM     14  C   LIG    1       -0.854   6.123   2.050  0.00  0.00    +0.080 C 
ENDBRANCH   3   6
ENDBRANCH   1   2
BRANCH   1  15
ATOM     15  C   LIG    1        1.506   0.632   0.652  0.00  0.00    +0.350 C 
BRANCH  15  18
ATOM     16  N   LIG    1        3.665  -0.148  -2.144  0.00  0.00    -0.540 N 
ATOM     17  C   LIG    1        3.357   0.544  -1.031  0.00  0.00    +0.680 A 
ATOM     18  N   LIG    1        2.175   0.120  -0.546  0.00  0.00    -0.540 N 
ATOM     19  C   LIG    1        1.699  -0.894  -1.374  0.00  0.00    +0.090 A 
ATOM     20  C   LIG    1        0.558  -1.682  -1.355  0.00  0.00    +0.030 A 
ATOM     21  C   LIG    1        0.360  -2.630  -2.340  0.00  0.00    +0.020 A 
ATOM     22  C   LIG    1        1.296  -2.797  -3.345  0.00  0.00    +0.020 A 
ATOM     23  C   LIG    1        2.432  -2.011  -3.378  0.00  0.00    +0.030 A 
ATOM     24  O   LIG    1        4.041   1.422  -0.540  0.00  0.00    -0.550 OA
ATOM     25  C   LIG    1        2.642  -1.060  -2.391  0.00  0.00    +0.090 A 
BRANCH  16  27
ATOM     26  C   LIG    1        5.975  -0.896  -2.437  0.00  0.00    +0.030 C 
ATOM     27  C   LIG    1        4.872   0.027  -2.956  0.00  0.00    +0.310 C 
ENDBRANCH  16  27
ENDBRANCH  15  18
ENDBRANCH   1  15
TORSDOF 5
