REMARK  Name = ZINCrg00000SjSqr.0
REMARK                            x       y       z     vdW  Elec       q    Type
REMARK                         _______ _______ _______ _____ _____    ______ ____
ROOT
ATOM      1  C   LIG    1       -3.104   0.299   1.661  0.00  0.00    -0.690 A 
ATOM      2  C   LIG    1       -3.448  -0.633   0.700  0.00  0.00    +0.150 A 
ATOM      3  C   LIG    1       -4.049  -1.820   1.065  0.00  0.00    +0.010 A 
ATOM      4  C   LIG    1       -4.324  -2.083   2.405  0.00  0.00    +0.150 A 
ATOM      5  C   LIG    1       -3.975  -1.139   3.365  0.00  0.00    -0.160 A 
ATOM      6  C   LIG    1       -4.374  -1.683   4.722  0.00  0.00    +0.080 C 
ATOM      7  C   LIG    1       -4.595  -3.187   4.437  0.00  0.00    +0.230 C 
ATOM      8  N   LIG    1       -4.931  -3.197   2.997  0.00  0.00    -0.510 N 
ATOM      9  C   LIG    1       -3.371   0.044   2.995  0.00  0.00    +0.150 A 
ENDROOT
BRANCH   1  10
ATOM     10  S   LIG    1       -2.335   1.812   1.189  0.00  0.00    +2.700 S 
ATOM     11  O   LIG    1       -2.686   2.034  -0.169  0.00  0.00    -0.950 OA
ATOM     12  O   LIG    1       -2.611   2.744   2.226  0.00  0.00    -0.950 OA
BRANCH  10  14
ATOM     13  C   LIG    1       -0.013   1.086   0.008  0.00  0.00    +0.310 C 
ATOM     14  N   LIG    1       -0.698   1.558   1.213  0.00  0.00    -1.010 NA
ATOM     15  C   LIG    1        0.063   1.806   2.440  0.00  0.00    +0.290 C 
ENDBRANCH  10  14
ENDBRANCH   1  10
BRANCH   8  16
ATOM     16  C   LIG    1       -6.386  -3.173   2.796  0.00  0.00    +0.540 C 
BRANCH  16  17
ATOM     17  N   LIG    1       -6.912  -4.538   2.867  0.00  0.00    -0.450 N 
ATOM     18  N   LIG    1       -6.798  -5.526   1.875  0.00  0.00    -0.260 NA
ATOM     19  C   LIG    1       -7.378  -6.589   2.302  0.00  0.00    +0.280 A 
ATOM     20  C   LIG    1       -7.529  -7.928   1.609  0.00  0.00    +0.170 C 
ATOM     21  C   LIG    1       -9.015  -8.124   1.293  0.00  0.00    +0.030 C 
ATOM     22  C   LIG    1       -9.776  -8.632   2.496  0.00  0.00    +0.010 C 
ATOM     23  C   LIG    1       -9.949  -7.631   3.614  0.00  0.00    +0.020 C 
ATOM     24  C   LIG    1       -8.628  -7.354   4.338  0.00  0.00    +0.320 C 
ATOM     25  N   LIG    1       -7.894  -6.340   3.563  0.00  0.00    -0.560 N 
ATOM     26  C   LIG    1       -7.601  -5.078   3.897  0.00  0.00    +0.650 A 
ATOM     27  O   LIG    1       -7.901  -4.519   4.938  0.00  0.00    -0.560 OA
ENDBRANCH  16  17
ENDBRANCH   8  16
TORSDOF 4
