REMARK  Name = ZINCc70000002LF2.0
REMARK                            x       y       z     vdW  Elec       q    Type
REMARK                         _______ _______ _______ _____ _____    ______ ____
ROOT
ATOM      1  O   LIG    1       -1.053   7.112   1.125  0.00  0.00    -0.940 OA
ATOM      2  S   LIG    1       -1.368   6.099   0.180  0.00  0.00    +2.550 S 
ATOM      3  C   LIG    1       -2.635   4.970   0.840  0.00  0.00    -0.390 C 
ATOM      4  C   LIG    1       -2.586   3.694  -0.006  0.00  0.00    +0.330 C 
ATOM      5  N   LIG    1       -1.246   3.104   0.028  0.00  0.00    -0.510 N 
ATOM      6  C   LIG    1       -1.186   1.732   0.017  0.00  0.00    +0.280 A 
ATOM      7  C   LIG    1       -0.013   1.076   0.008  0.00  0.00    -0.030 A 
ATOM      8  C   LIG    1        1.195   1.795   0.000  0.00  0.00    +0.130 A 
ATOM      9  C   LIG    1        1.160   3.148   0.026  0.00  0.00    +0.010 A 
ATOM     10  C   LIG    1       -0.090   3.832   0.060  0.00  0.00    +0.510 A 
ATOM     11  O   LIG    1       -1.633   6.416  -1.180  0.00  0.00    -0.960 OA
ATOM     12  N   LIG    1       -0.019   5.143   0.129  0.00  0.00    -0.970 NA
ENDROOT
TORSDOF 0
