REMARK  Name = ZINCpk00000KfLad.0
REMARK                            x       y       z     vdW  Elec       q    Type
REMARK                         _______ _______ _______ _____ _____    ______ ____
ROOT
ATOM      1  N   LIG    1       -1.394  -1.998   0.236  0.00  0.00    -0.720 N 
ATOM      2  H   LIG    1       -0.563  -2.470   0.067  0.00  0.00    +0.420 HD
ATOM      3  C   LIG    1       -2.527  -2.690   0.465  0.00  0.00    +0.580 C 
ATOM      4  O   LIG    1       -3.549  -2.102   0.768  0.00  0.00    -0.550 OA
ENDROOT
BRANCH   3   5
ATOM      5  C   LIG    1       -2.530  -4.153   0.348  0.00  0.00    -0.280 A 
ATOM      6  C   LIG    1       -3.727  -4.869   0.462  0.00  0.00    +0.230 A 
ATOM      7  C   LIG    1       -3.703  -6.249   0.343  0.00  0.00    -0.060 A 
ATOM      8  C   LIG    1       -2.497  -6.903   0.125  0.00  0.00    +0.280 A 
ATOM      9  N   LIG    1       -1.329  -6.198   0.021  0.00  0.00    -0.600 N 
ATOM     10  H   LIG    1       -0.496  -6.671  -0.132  0.00  0.00    +0.420 HD
ATOM     11  C   LIG    1       -1.320  -4.856   0.126  0.00  0.00    +0.540 A 
ATOM     12  O   LIG    1       -0.270  -4.244   0.031  0.00  0.00    -0.540 OA
BRANCH   8  13
ATOM     13  C   LIG    1       -2.476  -8.362   0.006  0.00  0.00    -0.040 A 
ATOM     14  C   LIG    1       -3.559  -9.191   0.094  0.00  0.00    +0.050 A 
ATOM     15  C   LIG    1       -3.081 -10.500  -0.080  0.00  0.00    -0.060 A 
ATOM     16  C   LIG    1       -1.744 -10.415  -0.257  0.00  0.00    +0.230 A 
ATOM     17  O   LIG    1       -1.383  -9.125  -0.204  0.00  0.00    -0.170 OA
ENDBRANCH   8  13
ENDBRANCH   3   5
BRANCH   1  18
ATOM     18  C   LIG    1       -1.416  -0.533   0.243  0.00  0.00    +0.270 C 
BRANCH  18  19
ATOM     19  C   LIG    1       -0.010  -0.001  -0.042  0.00  0.00    +0.170 C 
BRANCH  19  23
ATOM     20  C   LIG    1        0.643   3.968   1.334  0.00  0.00    +0.010 C 
ATOM     21  C   LIG    1        1.265   3.544   0.002  0.00  0.00    +0.200 C 
ATOM     22  C   LIG    1        1.332   2.016  -0.067  0.00  0.00    +0.150 C 
ATOM     23  N   LIG    1       -0.032   1.468  -0.035  0.00  0.00    -0.530 NA
ATOM     24  C   LIG    1       -0.829   1.988  -1.155  0.00  0.00    +0.150 C 
ATOM     25  C   LIG    1       -0.875   3.517  -1.075  0.00  0.00    +0.160 C 
ATOM     26  C   LIG    1       -1.635   4.069  -2.282  0.00  0.00    +0.050 C 
ATOM     27  O   LIG    1        0.460   4.029  -1.077  0.00  0.00    -0.380 OA
ENDBRANCH  19  23
ENDBRANCH  18  19
ENDBRANCH   1  18
TORSDOF 5
