REMARK  Name = ZINCvU0000000Gnx.0
REMARK                            x       y       z     vdW  Elec       q    Type
REMARK                         _______ _______ _______ _____ _____    ______ ____
ROOT
ATOM      1  N   LIG    1        3.634   3.518  -0.014  0.00  0.00    -0.580 N 
ATOM      2  H   LIG    1        2.787   3.991  -0.004  0.00  0.00    +0.380 HD
ATOM      3  C   LIG    1        3.652   2.170  -0.021  0.00  0.00    +0.580 C 
ATOM      4  O   LIG    1        4.714   1.576  -0.034  0.00  0.00    -0.480 OA
ENDROOT
BRANCH   3   5
ATOM      5  C   LIG    1        2.385   1.415  -0.013  0.00  0.00    -0.170 A 
ATOM      6  C   LIG    1        1.164   2.092   0.002  0.00  0.00    +0.080 A 
ATOM      7  C   LIG    1       -0.017   1.381   0.010  0.00  0.00    -0.030 A 
ATOM      8  C   LIG    1        0.002  -0.004   0.002  0.00  0.00    +0.080 A 
ATOM      9  C   LIG    1        1.203  -0.686  -0.013  0.00  0.00    -0.080 A 
ATOM     10  C   LIG    1        2.400   0.013  -0.020  0.00  0.00    +0.190 A 
BRANCH  10  11
ATOM     11  O   LIG    1        3.580  -0.656  -0.034  0.00  0.00    -0.270 OA
BRANCH  11  12
ATOM     12  C   LIG    1        3.516  -2.084  -0.041  0.00  0.00    +0.260 C 
BRANCH  12  13
ATOM     13  C   LIG    1        4.913  -2.649  -0.056  0.00  0.00    -0.110 A 
ATOM     14  C   LIG    1        5.540  -2.907  -1.261  0.00  0.00    +0.070 A 
ATOM     15  C   LIG    1        6.824  -3.420  -1.276  0.00  0.00    -0.020 A 
ATOM     16  C   LIG    1        7.477  -3.686  -0.085  0.00  0.00    +0.110 A 
ATOM     17  C   LIG    1        6.845  -3.432   1.121  0.00  0.00    -0.020 A 
ATOM     18  F   LIG    1        8.729  -4.194  -0.099  0.00  0.00    -0.140 F 
ATOM     19  C   LIG    1        5.564  -2.913   1.134  0.00  0.00    +0.070 A 
ENDBRANCH  12  13
ENDBRANCH  11  12
ENDBRANCH  10  11
ENDBRANCH   3   5
BRANCH   1  22
ATOM     20  C   LIG    1        3.504   6.268   0.001  0.00  0.00    +0.090 C 
ATOM     21  C   LIG    1        4.819   5.533  -0.015  0.00  0.00    +0.130 C 
ATOM     22  N   LIG    1        4.837   4.235  -0.022  0.00  0.00    -0.220 NA
BRANCH  21  23
ATOM     23  C   LIG    1        6.085   6.287  -0.023  0.00  0.00    -0.070 A 
ATOM     24  C   LIG    1        6.069   7.685  -0.022  0.00  0.00    +0.090 A 
ATOM     25  C   LIG    1        7.255   8.386  -0.025  0.00  0.00    -0.050 A 
ATOM     26  C   LIG    1        8.466   7.706  -0.040  0.00  0.00    +0.120 A 
ATOM     27  C   LIG    1        8.488   6.317  -0.046  0.00  0.00    +0.000 A 
ATOM     28  C   LIG    1        7.306   5.608  -0.038  0.00  0.00    +0.110 A 
BRANCH  26  29
ATOM     29  O   LIG    1        9.633   8.402  -0.048  0.00  0.00    -0.320 OA
BRANCH  29  30
ATOM     30  C   LIG    1        9.538   9.827  -0.040  0.00  0.00    +0.590 C 
ATOM     31  F   LIG    1        8.861  10.244   1.111  0.00  0.00    -0.200 F 
ATOM     32  F   LIG    1        8.838  10.254  -1.174  0.00  0.00    -0.200 F 
ENDBRANCH  29  30
ENDBRANCH  26  29
ENDBRANCH  21  23
ENDBRANCH   1  22
TORSDOF 8
