REMARK  Name = ZINCrD0000073uCk.0
REMARK                            x       y       z     vdW  Elec       q    Type
REMARK                         _______ _______ _______ _____ _____    ______ ____
ROOT
ATOM      1  N   LIG    1       -2.189   2.414   3.067  0.00  0.00    -0.660 N 
ATOM      2  H   LIG    1       -2.500   2.712   2.198  0.00  0.00    +0.420 HD
ATOM      3  C   LIG    1       -2.853   2.778   4.182  0.00  0.00    +0.480 C 
ATOM      4  O   LIG    1       -2.419   2.473   5.273  0.00  0.00    -0.510 OA
ENDROOT
BRANCH   1  10
ATOM      5  C   LIG    1       -0.777   0.663   2.173  0.00  0.00    +0.090 A 
ATOM      6  C   LIG    1        0.347  -0.140   2.272  0.00  0.00    -0.030 A 
ATOM      7  C   LIG    1        1.205  -0.002   3.347  0.00  0.00    +0.050 A 
ATOM      8  C   LIG    1        0.936   0.935   4.336  0.00  0.00    +0.130 A 
ATOM      9  C   LIG    1       -0.192   1.739   4.244  0.00  0.00    +0.040 A 
ATOM     10  C   LIG    1       -1.050   1.605   3.163  0.00  0.00    +0.130 A 
BRANCH   8  11
ATOM     11  N   LIG    1        1.805   1.070   5.427  0.00  0.00    -0.670 N 
ATOM     12  H   LIG    1        1.452   1.291   6.303  0.00  0.00    +0.410 HD
ATOM     13  C   LIG    1        3.130   0.893   5.259  0.00  0.00    +0.510 C 
ATOM     14  O   LIG    1        3.583   0.717   4.148  0.00  0.00    -0.530 OA
ATOM     15  C   LIG    1        4.050   0.915   6.453  0.00  0.00    +0.110 C 
ENDBRANCH   8  11
BRANCH   5  17
ATOM     16  C   LIG    1       -1.276  -0.456   0.134  0.00  0.00    +0.250 C 
ATOM     17  O   LIG    1       -1.617   0.529   1.111  0.00  0.00    -0.320 OA
ENDBRANCH   5  17
ENDBRANCH   1  10
BRANCH   3  18
ATOM     18  C   LIG    1       -4.135   3.563   4.074  0.00  0.00    +0.270 C 
BRANCH  18  19
ATOM     19  N   LIG    1       -4.593   3.941   5.417  0.00  0.00    -0.470 N 
ATOM     20  C   LIG    1       -3.658   4.874   6.048  0.00  0.00    +0.190 C 
ATOM     21  C   LIG    1       -4.171   5.208   7.454  0.00  0.00    +0.040 C 
ATOM     22  C   LIG    1       -4.053   3.945   8.311  0.00  0.00    +0.060 C 
ATOM     23  C   LIG    1       -4.615   2.766   7.557  0.00  0.00    -0.100 A 
ATOM     24  C   LIG    1       -4.900   1.612   8.268  0.00  0.00    +0.030 A 
ATOM     25  C   LIG    1       -5.411   0.501   7.626  0.00  0.00    -0.110 A 
ATOM     26  C   LIG    1       -5.641   0.539   6.263  0.00  0.00    +0.020 A 
ATOM     27  C   LIG    1       -5.362   1.685   5.549  0.00  0.00    -0.040 A 
ATOM     28  C   LIG    1       -5.719  -0.749   8.409  0.00  0.00    +0.080 C 
ATOM     29  C   LIG    1       -4.848   2.811   6.194  0.00  0.00    +0.140 A 
ENDBRANCH  18  19
ENDBRANCH   3  18
TORSDOF 5
