REMARK  Name = ZINCpe000000YT8j.0
REMARK                            x       y       z     vdW  Elec       q    Type
REMARK                         _______ _______ _______ _____ _____    ______ ____
ROOT
ATOM      1  O   LIG    1        4.991  -0.681  -0.637  0.00  0.00    -0.520 OA
ATOM      2  C   LIG    1        4.527  -0.643  -1.756  0.00  0.00    +0.500 C 
ATOM      3  N   LIG    1        3.218  -0.376  -1.935  0.00  0.00    -0.720 N 
ATOM      4  H   LIG    1        2.846  -0.345  -2.830  0.00  0.00    +0.400 HD
ENDROOT
BRANCH   3   5
ATOM      5  C   LIG    1        2.356  -0.131  -0.775  0.00  0.00    +0.290 C 
ATOM      6  C   LIG    1        0.912  -0.469  -1.141  0.00  0.00    +0.020 C 
ATOM      7  C   LIG    1        0.002  -0.004   0.002  0.00  0.00    +0.030 C 
ATOM      8  C   LIG    1       -0.019   1.523   0.010  0.00  0.00    +0.080 C 
ATOM      9  C   LIG    1        1.384   2.072   0.000  0.00  0.00    -0.070 A 
ATOM     10  C   LIG    1        1.563   3.397   0.375  0.00  0.00    -0.010 A 
ATOM     11  C   LIG    1        2.822   3.960   0.382  0.00  0.00    +0.010 A 
ATOM     12  C   LIG    1        3.916   3.200   0.012  0.00  0.00    -0.010 A 
ATOM     13  C   LIG    1        3.741   1.882  -0.359  0.00  0.00    +0.030 A 
ATOM     14  C   LIG    1        2.474   1.313  -0.364  0.00  0.00    -0.100 A 
ENDBRANCH   3   5
BRANCH   2  15
ATOM     15  C   LIG    1        5.413  -0.895  -2.949  0.00  0.00    +0.360 C 
BRANCH  15  16
ATOM     16  N   LIG    1        6.780  -1.160  -2.494  0.00  0.00    -0.560 N 
ATOM     17  C   LIG    1        7.714  -0.214  -2.323  0.00  0.00    +0.710 C 
ATOM     18  N   LIG    1        8.887  -0.723  -1.893  0.00  0.00    -0.710 N 
ATOM     19  H   LIG    1        9.700  -0.231  -1.699  0.00  0.00    +0.440 HD
ATOM     20  C   LIG    1        8.687  -2.166  -1.783  0.00  0.00    +0.080 C 
ATOM     21  C   LIG    1        9.662  -2.943  -2.683  0.00  0.00    +0.050 C 
ATOM     22  C   LIG    1       10.730  -3.415  -1.661  0.00  0.00    +0.230 C 
ATOM     23  O   LIG    1        9.961  -3.700  -0.471  0.00  0.00    -0.360 OA
ATOM     24  C   LIG    1        8.954  -2.676  -0.365  0.00  0.00    +0.250 C 
ATOM     25  O   LIG    1        7.525   0.968  -2.529  0.00  0.00    -0.530 OA
ATOM     26  C   LIG    1        7.258  -2.389  -2.199  0.00  0.00    +0.550 C 
ATOM     27  O   LIG    1        6.664  -3.444  -2.257  0.00  0.00    -0.450 OA
ENDBRANCH  15  16
ENDBRANCH   2  15
TORSDOF 3
