REMARK  Name = ZINCpe000000W9VC.0
REMARK                            x       y       z     vdW  Elec       q    Type
REMARK                         _______ _______ _______ _____ _____    ______ ____
ROOT
ATOM      1  N   LIG    1       -5.528   3.220   2.113  0.00  0.00    -0.740 N 
ATOM      2  H   LIG    1       -5.464   2.261   2.246  0.00  0.00    +0.400 HD
ATOM      3  C   LIG    1       -4.576   3.869   1.414  0.00  0.00    +0.710 C 
ATOM      4  N   LIG    1       -3.534   3.187   0.900  0.00  0.00    -0.740 N 
ATOM      5  H   LIG    1       -3.432   2.241   1.091  0.00  0.00    +0.400 HD
ATOM      6  O   LIG    1       -4.657   5.071   1.247  0.00  0.00    -0.580 OA
ENDROOT
BRANCH   1  13
ATOM      7  C   LIG    1       -7.219   3.212   3.893  0.00  0.00    +0.200 C 
ATOM      8  C   LIG    1       -7.960   1.964   3.347  0.00  0.00    -0.330 C 
ATOM      9  S   LIG    1       -8.861   2.636   1.899  0.00  0.00    +2.390 S 
ATOM     10  C   LIG    1       -7.776   4.081   1.613  0.00  0.00    -0.300 C 
ATOM     11  O   LIG    1       -8.742   1.734   0.807  0.00  0.00    -0.930 OA
ATOM     12  O   LIG    1      -10.144   3.085   2.311  0.00  0.00    -0.930 OA
ATOM     13  C   LIG    1       -6.661   3.962   2.671  0.00  0.00    +0.310 C 
BRANCH   7  15
ATOM     14  C   LIG    1       -6.508   2.739   6.133  0.00  0.00    +0.210 C 
ATOM     15  O   LIG    1       -6.150   2.809   4.751  0.00  0.00    -0.360 OA
ENDBRANCH   7  15
ENDBRANCH   1  13
BRANCH   4  16
ATOM     16  C   LIG    1       -2.555   3.872   0.052  0.00  0.00    +0.320 C 
BRANCH  16  17
ATOM     17  C   LIG    1       -1.268   3.089   0.036  0.00  0.00    -0.090 A 
ATOM     18  C   LIG    1       -1.297   1.710   0.124  0.00  0.00    +0.000 A 
ATOM     19  C   LIG    1       -0.116   0.992   0.115  0.00  0.00    +0.010 A 
ATOM     20  C   LIG    1        1.093   1.652   0.007  0.00  0.00    +0.000 A 
ATOM     21  C   LIG    1        1.122   3.031  -0.086  0.00  0.00    +0.020 A 
ATOM     22  C   LIG    1       -0.059   3.749  -0.072  0.00  0.00    +0.020 A 
ENDBRANCH  16  17
BRANCH  16  23
ATOM     23  C   LIG    1       -3.103   3.982  -1.372  0.00  0.00    -0.040 C 
ATOM     24  C   LIG    1       -3.296   2.576  -1.989  0.00  0.00    +0.010 C 
ATOM     25  C   LIG    1       -2.805   2.789  -3.444  0.00  0.00    +0.200 C 
ATOM     26  O   LIG    1       -1.696   3.700  -3.295  0.00  0.00    -0.370 OA
ATOM     27  C   LIG    1       -2.073   4.662  -2.295  0.00  0.00    +0.200 C 
ENDBRANCH  16  23
ENDBRANCH   4  16
TORSDOF 5
