REMARK  Name = ZINCpe00000MJK6L.0
REMARK                            x       y       z     vdW  Elec       q    Type
REMARK                         _______ _______ _______ _____ _____    ______ ____
ROOT
ATOM      1  C   LIG    1       -0.013   1.086   0.008  0.00  0.00    +0.340 C 
ATOM      2  C   LIG    1       -0.684   1.595   1.301  0.00  0.00    +0.060 C 
ATOM      3  C   LIG    1        0.525   1.903   2.223  0.00  0.00    +0.040 C 
ATOM      4  C   LIG    1        1.567   2.428   1.204  0.00  0.00    +0.280 C 
ATOM      5  N   LIG    1        1.363   1.605  -0.002  0.00  0.00    -0.590 N 
ATOM      6  C   LIG    1        2.285   1.367  -0.956  0.00  0.00    +0.610 C 
ATOM      7  O   LIG    1        2.005   0.669  -1.911  0.00  0.00    -0.520 OA
ENDROOT
BRANCH   6   8
ATOM      8  C   LIG    1        3.637   1.954  -0.840  0.00  0.00    +0.020 A 
ATOM      9  N   LIG    1        3.937   2.708   0.193  0.00  0.00    -0.150 NA
ATOM     10  N   LIG    1        5.096   3.241   0.339  0.00  0.00    -0.330 N 
ATOM     11  C   LIG    1        6.079   3.059  -0.562  0.00  0.00    +0.480 A 
ATOM     12  C   LIG    1        5.840   2.261  -1.703  0.00  0.00    -0.020 A 
ATOM     13  O   LIG    1        7.170   3.579  -0.395  0.00  0.00    -0.520 OA
ATOM     14  C   LIG    1        4.606   1.698  -1.841  0.00  0.00    +0.130 A 
BRANCH  10  15
ATOM     15  C   LIG    1        5.356   4.070   1.519  0.00  0.00    +0.350 C 
BRANCH  15  16
ATOM     16  C   LIG    1        5.000   5.525   1.208  0.00  0.00    +0.180 C 
BRANCH  16  17
ATOM     17  O   LIG    1        3.595   5.633   0.973  0.00  0.00    -0.380 OA
ATOM     18  C   LIG    1        3.156   6.959   0.672  0.00  0.00    +0.200 C 
ENDBRANCH  16  17
ENDBRANCH  15  16
ENDBRANCH  10  15
ENDBRANCH   6   8
BRANCH   1  21
ATOM     19  C   LIG    1       -2.009   1.712  -2.902  0.00  0.00    +0.180 A 
ATOM     20  N   LIG    1       -1.579   0.877  -1.987  0.00  0.00    -0.470 NA
ATOM     21  C   LIG    1       -0.761   1.595  -1.197  0.00  0.00    +0.170 A 
ATOM     22  N   LIG    1       -0.740   2.809  -1.659  0.00  0.00    -0.370 NA
ATOM     23  O   LIG    1       -1.446   2.896  -2.642  0.00  0.00    +0.080 OA
BRANCH  19  25
ATOM     24  C   LIG    1       -4.395   1.638  -3.571  0.00  0.00    +0.050 C 
ATOM     25  C   LIG    1       -2.956   1.398  -4.031  0.00  0.00    +0.180 C 
ENDBRANCH  19  25
ENDBRANCH   1  21
TORSDOF 6
