REMARK  Name = ZINCrD000000fEP1.0
REMARK                            x       y       z     vdW  Elec       q    Type
REMARK                         _______ _______ _______ _____ _____    ______ ____
ROOT
ATOM      1  C   LIG    1        6.490  -0.910  -0.007  0.00  0.00    +0.160 A 
ATOM      2  C   LIG    1        7.126   0.261   0.190  0.00  0.00    -0.110 A 
ATOM      3  S   LIG    1        5.920   1.545   0.229  0.00  0.00    +0.220 S 
ATOM      4  C   LIG    1        4.643   0.358  -0.021  0.00  0.00    +0.280 A 
ATOM      5  N   LIG    1        5.165  -0.825  -0.117  0.00  0.00    -0.490 NA
ENDROOT
BRANCH   1   9
ATOM      6  C   LIG    1        8.804  -4.135  -0.188  0.00  0.00    -0.210 A 
ATOM      7  C   LIG    1        7.519  -4.461  -0.343  0.00  0.00    +0.040 A 
ATOM      8  C   LIG    1        6.635  -3.401  -0.289  0.00  0.00    +0.050 A 
ATOM      9  C   LIG    1        7.212  -2.197  -0.098  0.00  0.00    -0.120 A 
ATOM     10  S   LIG    1        8.954  -2.397   0.035  0.00  0.00    +0.150 S 
BRANCH   6  11
ATOM     11  C   LIG    1        9.953  -5.109  -0.202  0.00  0.00    +0.360 C 
BRANCH  11  14
ATOM     12  C   LIG    1       11.991  -6.244  -3.237  0.00  0.00    +0.100 C 
ATOM     13  C   LIG    1       11.481  -6.088  -1.828  0.00  0.00    +0.510 C 
ATOM     14  N   LIG    1       10.449  -5.261  -1.572  0.00  0.00    -0.730 N 
ATOM     15  H   LIG    1       10.034  -4.765  -2.296  0.00  0.00    +0.400 HD
ATOM     16  O   LIG    1       12.000  -6.708  -0.923  0.00  0.00    -0.540 OA
ENDBRANCH  11  14
ENDBRANCH   6  11
ENDBRANCH   1   9
BRANCH   4  17
ATOM     17  N   LIG    1        3.288   0.645  -0.109  0.00  0.00    -0.610 N 
ATOM     18  H   LIG    1        2.649  -0.070  -0.252  0.00  0.00    +0.430 HD
ATOM     19  C   LIG    1        2.860   1.918   0.006  0.00  0.00    +0.600 C 
ATOM     20  O   LIG    1        3.667   2.826   0.091  0.00  0.00    -0.510 OA
BRANCH  19  21
ATOM     21  C   LIG    1        1.422   2.210   0.028  0.00  0.00    -0.060 A 
ATOM     22  C   LIG    1        0.421   1.285   0.037  0.00  0.00    +0.080 A 
ATOM     23  C   LIG    1       -0.801   1.999   0.059  0.00  0.00    -0.260 A 
ATOM     24  C   LIG    1       -0.482   3.348   0.067  0.00  0.00    +0.300 A 
ATOM     25  N   LIG    1        0.854   3.466   0.043  0.00  0.00    -0.400 N 
ATOM     26  C   LIG    1        1.593   4.731   0.039  0.00  0.00    +0.350 C 
BRANCH  23  27
ATOM     27  C   LIG    1       -2.149   1.422   0.075  0.00  0.00    +0.420 C 
ATOM     28  O   LIG    1       -3.120   2.149   0.093  0.00  0.00    -0.470 OA
ATOM     29  C   LIG    1       -2.328  -0.075   0.069  0.00  0.00    +0.060 C 
ENDBRANCH  23  27
ENDBRANCH  19  21
ENDBRANCH   4  17
TORSDOF 6
