REMARK  Name = ZINCvU00000004Jy.0
REMARK                            x       y       z     vdW  Elec       q    Type
REMARK                         _______ _______ _______ _____ _____    ______ ____
ROOT
ATOM      1  O   LIG    1        5.916   3.935  -0.302  0.00  0.00    -0.500 OA
ATOM      2  C   LIG    1        4.819   4.458  -0.309  0.00  0.00    +0.560 C 
ATOM      3  N   LIG    1        4.713   5.799  -0.394  0.00  0.00    -0.670 N 
ATOM      4  H   LIG    1        3.842   6.221  -0.332  0.00  0.00    +0.420 HD
ENDROOT
BRANCH   3   5
ATOM      5  C   LIG    1        5.859   6.582  -0.572  0.00  0.00    +0.200 A 
ATOM      6  C   LIG    1        7.054   6.209   0.037  0.00  0.00    +0.040 A 
ATOM      7  C   LIG    1        8.183   6.960  -0.132  0.00  0.00    +0.130 A 
ATOM      8  C   LIG    1        8.139   8.117  -0.911  0.00  0.00    -0.000 A 
ATOM      9  N   LIG    1        9.063   9.054  -1.258  0.00  0.00    -0.400 NA
ATOM     10  C   LIG    1        8.495   9.943  -2.016  0.00  0.00    +0.140 A 
ATOM     11  O   LIG    1        7.200   9.639  -2.200  0.00  0.00    -0.180 OA
ATOM     12  C   LIG    1        6.935   8.500  -1.523  0.00  0.00    +0.060 A 
ATOM     13  C   LIG    1        5.798   7.728  -1.349  0.00  0.00    +0.020 A 
BRANCH  10  14
ATOM     14  C   LIG    1        9.191  11.143  -2.606  0.00  0.00    +0.580 C 
ATOM     15  F   LIG    1        8.643  12.312  -2.066  0.00  0.00    -0.150 F 
ATOM     16  F   LIG    1        9.019  11.145  -3.994  0.00  0.00    -0.150 F 
ATOM     17  F   LIG    1       10.556  11.085  -2.305  0.00  0.00    -0.140 F 
ENDBRANCH  10  14
ENDBRANCH   3   5
BRANCH   2  18
ATOM     18  C   LIG    1        3.601   3.623  -0.225  0.00  0.00    -0.110 A 
ATOM     19  C   LIG    1        3.711   2.234  -0.137  0.00  0.00    +0.090 A 
ATOM     20  C   LIG    1        2.576   1.457  -0.059  0.00  0.00    +0.060 A 
ATOM     21  C   LIG    1        1.316   2.058  -0.067  0.00  0.00    -0.120 A 
ATOM     22  C   LIG    1        1.206   3.447  -0.161  0.00  0.00    +0.070 A 
ATOM     23  C   LIG    1        2.341   4.225  -0.234  0.00  0.00    +0.050 A 
BRANCH  21  24
ATOM     24  C   LIG    1        0.098   1.223   0.017  0.00  0.00    +0.440 C 
ATOM     25  O   LIG    1       -0.916   1.567  -0.559  0.00  0.00    -0.430 OA
BRANCH  24  26
ATOM     26  C   LIG    1        0.111  -0.025   0.807  0.00  0.00    -0.150 A 
ATOM     27  C   LIG    1        1.221  -0.347   1.591  0.00  0.00    +0.050 A 
ATOM     28  C   LIG    1        1.230  -1.514   2.327  0.00  0.00    +0.030 A 
ATOM     29  C   LIG    1        0.142  -2.367   2.292  0.00  0.00    +0.030 A 
ATOM     30  C   LIG    1       -0.966  -2.056   1.514  0.00  0.00    +0.100 A 
ATOM     31  C   LIG    1       -0.989  -0.886   0.776  0.00  0.00    +0.050 A 
BRANCH  30  32
ATOM     32  O   LIG    1       -2.032  -2.899   1.484  0.00  0.00    -0.500 OA
ATOM     33  H   LIG    1       -2.700  -2.714   2.158  0.00  0.00    +0.390 HD
ENDBRANCH  30  32
ENDBRANCH  24  26
ENDBRANCH  21  24
ENDBRANCH   2  18
TORSDOF 6
