REMARK  Name = ZINCrH000004qa4Z.0
REMARK                            x       y       z     vdW  Elec       q    Type
REMARK                         _______ _______ _______ _____ _____    ______ ____
ROOT
ATOM      1  C   LIG    1       -3.260   1.491   0.392  0.00  0.00    +0.110 A 
ATOM      2  C   LIG    1       -3.357   0.115   0.532  0.00  0.00    +0.050 A 
ATOM      3  C   LIG    1       -4.588  -0.472   0.757  0.00  0.00    +0.010 A 
ATOM      4  C   LIG    1       -5.725   0.310   0.844  0.00  0.00    +0.020 A 
ATOM      5  C   LIG    1       -5.638   1.683   0.707  0.00  0.00    +0.050 A 
ATOM      6  C   LIG    1       -4.406   2.280   0.486  0.00  0.00    +0.140 A 
ENDROOT
BRANCH   6   7
ATOM      7  N   LIG    1       -4.314   3.672   0.351  0.00  0.00    -0.680 N 
ATOM      8  H   LIG    1       -3.488   4.127   0.577  0.00  0.00    +0.400 HD
ATOM      9  C   LIG    1       -5.374   4.377  -0.092  0.00  0.00    +0.720 C 
ATOM     10  N   LIG    1       -5.258   5.703  -0.307  0.00  0.00    -0.630 N 
ATOM     11  C   LIG    1       -4.043   6.503  -0.095  0.00  0.00    +0.230 C 
ATOM     12  C   LIG    1       -4.389   7.965  -0.448  0.00  0.00    +0.040 C 
ATOM     13  C   LIG    1       -5.932   8.002  -0.288  0.00  0.00    +0.030 C 
ATOM     14  C   LIG    1       -6.331   6.592  -0.788  0.00  0.00    +0.270 C 
ATOM     15  O   LIG    1       -6.434   3.818  -0.297  0.00  0.00    -0.560 OA
ENDBRANCH   6   7
BRANCH   1  17
ATOM     16  C   LIG    1       -0.888   1.481   0.591  0.00  0.00    +0.560 C 
ATOM     17  N   LIG    1       -2.013   2.088   0.165  0.00  0.00    -0.660 N 
ATOM     18  H   LIG    1       -1.960   2.938  -0.300  0.00  0.00    +0.400 HD
ATOM     19  O   LIG    1       -0.947   0.378   1.100  0.00  0.00    -0.490 OA
BRANCH  16  22
ATOM     20  C   LIG    1        1.477   0.304   1.770  0.00  0.00    +0.150 C 
ATOM     21  C   LIG    1        1.567   1.595   0.997  0.00  0.00    +0.050 A 
ATOM     22  C   LIG    1        0.419   2.153   0.433  0.00  0.00    -0.150 A 
ATOM     23  C   LIG    1        0.510   3.352  -0.277  0.00  0.00    +0.110 A 
ATOM     24  C   LIG    1        1.733   3.974  -0.420  0.00  0.00    +0.030 A 
ATOM     25  C   LIG    1        2.868   3.412   0.138  0.00  0.00    +0.140 A 
ATOM     26  C   LIG    1        2.785   2.224   0.842  0.00  0.00    -0.060 A 
BRANCH  26  27
ATOM     27  N   LIG    1        4.004   1.631   1.435  0.00  0.00    +0.030 N 
ATOM     28  O   LIG    1        3.960   0.520   1.934  0.00  0.00    -0.150 OA
ATOM     29  O   LIG    1        5.051   2.253   1.425  0.00  0.00    -0.160 OA
ENDBRANCH  26  27
ENDBRANCH  16  22
ENDBRANCH   1  17
TORSDOF 4
