REMARK  Name = ZINCnE000001D5LA.0
REMARK                            x       y       z     vdW  Elec       q    Type
REMARK                         _______ _______ _______ _____ _____    ______ ____
ROOT
ATOM      1  S   LIG    1       -0.017   1.417   0.010  0.00  0.00    +2.670 S 
ATOM      2  O   LIG    1        1.162   2.210   0.003  0.00  0.00    -1.010 OA
ATOM      3  O   LIG    1        0.002  -0.004   0.002  0.00  0.00    -1.010 OA
ENDROOT
BRANCH   1   7
ATOM      4  C   LIG    1       -1.999   2.959   3.443  0.00  0.00    -0.150 A 
ATOM      5  C   LIG    1       -2.424   1.725   3.169  0.00  0.00    -0.020 A 
ATOM      6  C   LIG    1       -1.833   1.137   2.063  0.00  0.00    +0.130 A 
ATOM      7  C   LIG    1       -0.930   1.894   1.440  0.00  0.00    -0.730 A 
ATOM      8  S   LIG    1       -0.782   3.439   2.267  0.00  0.00    +0.200 S 
BRANCH   4  10
ATOM      9  C   LIG    1       -2.193   3.097   5.911  0.00  0.00    +0.040 C 
ATOM     10  C   LIG    1       -2.483   3.810   4.589  0.00  0.00    +0.000 C 
ATOM     11  C   LIG    1       -3.990   4.039   4.453  0.00  0.00    +0.040 C 
ATOM     12  C   LIG    1       -1.759   5.157   4.566  0.00  0.00    +0.040 C 
ENDBRANCH   4  10
ENDBRANCH   1   7
BRANCH   1  13
ATOM     13  N   LIG    1       -0.900   1.880  -1.312  0.00  0.00    -1.110 NA
ATOM     14  C   LIG    1       -0.434   1.636  -2.553  0.00  0.00    +0.560 C 
ATOM     15  O   LIG    1        0.635   1.076  -2.702  0.00  0.00    -0.610 OA
BRANCH  14  16
ATOM     16  C   LIG    1       -1.222   2.049  -3.732  0.00  0.00    -0.090 A 
ATOM     17  C   LIG    1       -2.450   2.692  -3.566  0.00  0.00    +0.120 A 
ATOM     18  C   LIG    1       -3.181   3.075  -4.670  0.00  0.00    +0.010 A 
ATOM     19  C   LIG    1       -2.702   2.825  -5.944  0.00  0.00    +0.020 A 
ATOM     20  C   LIG    1       -1.486   2.188  -6.121  0.00  0.00    +0.040 A 
ATOM     21  F   LIG    1       -1.026   1.947  -7.368  0.00  0.00    -0.140 F 
ATOM     22  C   LIG    1       -0.738   1.803  -5.021  0.00  0.00    +0.110 A 
ATOM     23  F   LIG    1        0.452   1.186  -5.192  0.00  0.00    -0.110 F 
ENDBRANCH  14  16
ENDBRANCH   1  13
TORSDOF 4
