REMARK  Name = ZINCqH0000003QA9.0
REMARK                            x       y       z     vdW  Elec       q    Type
REMARK                         _______ _______ _______ _____ _____    ______ ____
ROOT
ATOM      1  N   LIG    1        3.673  -1.409   0.050  0.00  0.00    -0.490 N 
ATOM      2  C   LIG    1        4.413  -1.112   1.284  0.00  0.00    +0.180 C 
ATOM      3  C   LIG    1        5.801  -1.758   1.212  0.00  0.00    +0.280 C 
ATOM      4  N   LIG    1        6.457  -1.317  -0.029  0.00  0.00    -0.610 N 
ATOM      5  C   LIG    1        5.720  -1.456  -1.294  0.00  0.00    +0.300 C 
ATOM      6  C   LIG    1        7.701  -0.799  -0.006  0.00  0.00    +0.570 C 
ATOM      7  O   LIG    1        8.257  -0.506  -1.047  0.00  0.00    -0.520 OA
ATOM      8  C   LIG    1        4.335  -0.822  -1.123  0.00  0.00    +0.180 C 
ENDROOT
BRANCH   6   9
ATOM      9  C   LIG    1        8.389  -0.587   1.282  0.00  0.00    -0.150 A 
ATOM     10  C   LIG    1        8.502  -1.634   2.199  0.00  0.00    +0.110 A 
ATOM     11  C   LIG    1        9.150  -1.431   3.399  0.00  0.00    -0.080 A 
ATOM     12  C   LIG    1        9.681  -0.187   3.704  0.00  0.00    +0.090 A 
ATOM     13  C   LIG    1        9.571   0.858   2.808  0.00  0.00    -0.050 A 
ATOM     14 CL   LIG    1        9.295  -2.735   4.535  0.00  0.00    -0.060 Cl
ATOM     15  C   LIG    1        8.927   0.669   1.595  0.00  0.00    +0.180 A 
BRANCH  15  16
ATOM     16  O   LIG    1        8.820   1.695   0.714  0.00  0.00    -0.300 OA
ATOM     17  C   LIG    1        9.393   2.946   1.101  0.00  0.00    +0.250 C 
ENDBRANCH  15  16
ENDBRANCH   6   9
BRANCH   1  23
ATOM     18  C   LIG    1        1.305  -1.902   0.113  0.00  0.00    +0.160 A 
ATOM     19  C   LIG    1       -0.007  -1.468   0.206  0.00  0.00    -0.080 A 
ATOM     20  C   LIG    1       -0.282  -0.119   0.332  0.00  0.00    +0.050 A 
ATOM     21  C   LIG    1        0.750   0.801   0.364  0.00  0.00    -0.030 A 
ATOM     22  C   LIG    1        2.062   0.376   0.271  0.00  0.00    +0.010 A 
ATOM     23  C   LIG    1        2.345  -0.976   0.145  0.00  0.00    +0.050 A 
BRANCH  18  24
ATOM     24  O   LIG    1        1.577  -3.229  -0.011  0.00  0.00    -0.290 OA
BRANCH  24  26
ATOM     25  C   LIG    1        0.960  -5.559  -0.181  0.00  0.00    +0.070 C 
ATOM     26  C   LIG    1        0.460  -4.120  -0.038  0.00  0.00    +0.170 C 
ENDBRANCH  24  26
ENDBRANCH  18  24
ENDBRANCH   1  23
TORSDOF 5
