REMARK  Name = ZINCrg00000atrFK.0
REMARK                            x       y       z     vdW  Elec       q    Type
REMARK                         _______ _______ _______ _____ _____    ______ ____
ROOT
ATOM      1  N   LIG    1        3.846  -3.544   8.143  0.00  0.00    -0.720 N 
ATOM      2  H   LIG    1        4.326  -3.389   7.314  0.00  0.00    +0.400 HD
ATOM      3  C   LIG    1        4.148  -4.613   8.906  0.00  0.00    +0.570 C 
ATOM      4  O   LIG    1        3.547  -4.807   9.945  0.00  0.00    -0.520 OA
ENDROOT
BRANCH   3   5
ATOM      5  C   LIG    1        5.208  -5.548   8.481  0.00  0.00    -0.070 A 
ATOM      6  C   LIG    1        5.530  -6.643   9.256  0.00  0.00    +0.150 A 
ATOM      7  C   LIG    1        6.548  -7.522   8.818  0.00  0.00    +0.290 A 
ATOM      8  N   LIG    1        7.039  -8.618   9.353  0.00  0.00    -0.260 NA
ATOM      9  N   LIG    1        8.044  -9.099   8.503  0.00  0.00    -0.520 N 
ATOM     10  H   LIG    1        8.582  -9.894   8.644  0.00  0.00    +0.470 HD
ATOM     11  C   LIG    1        8.130  -8.256   7.455  0.00  0.00    +0.650 A 
ATOM     12  O   LIG    1        8.898  -8.358   6.514  0.00  0.00    -0.530 OA
ATOM     13  N   LIG    1        7.216  -7.278   7.632  0.00  0.00    -0.480 N 
ATOM     14  C   LIG    1        6.901  -6.183   6.857  0.00  0.00    +0.310 A 
ATOM     15  C   LIG    1        5.941  -5.325   7.230  0.00  0.00    -0.010 A 
ENDBRANCH   3   5
BRANCH   1  16
ATOM     16  C   LIG    1        2.794  -2.616   8.565  0.00  0.00    +0.410 C 
BRANCH  16  19
ATOM     17  N   LIG    1        2.016  -0.301   5.866  0.00  0.00    -0.240 N 
ATOM     18  C   LIG    1        1.779  -1.474   6.514  0.00  0.00    +0.180 A 
ATOM     19  C   LIG    1        2.655  -1.516   7.545  0.00  0.00    -0.040 A 
ATOM     20  N   LIG    1        3.373  -0.389   7.480  0.00  0.00    -0.240 NA
ATOM     21  N   LIG    1        2.975   0.305   6.473  0.00  0.00    -0.070 NA
BRANCH  17  25
ATOM     22  C   LIG    1        0.000   1.080   2.488  0.00  0.00    -0.070 A 
ATOM     23  C   LIG    1       -0.348  -0.134   3.051  0.00  0.00    +0.040 A 
ATOM     24  C   LIG    1        0.322  -0.596   4.167  0.00  0.00    +0.030 A 
ATOM     25  C   LIG    1        1.338   0.164   4.729  0.00  0.00    +0.110 A 
ATOM     26  C   LIG    1        1.682   1.384   4.165  0.00  0.00    +0.050 A 
ATOM     27  C   LIG    1        1.012   1.839   3.046  0.00  0.00    +0.040 A 
BRANCH  22  29
ATOM     28  C   LIG    1       -0.013   1.086   0.008  0.00  0.00    +0.030 C 
ATOM     29  C   LIG    1       -0.729   1.579   1.267  0.00  0.00    +0.070 C 
ENDBRANCH  22  29
ENDBRANCH  17  25
ENDBRANCH  16  19
ENDBRANCH   1  16
TORSDOF 5
