REMARK  Name = ZINCnE000001UaVO.0
REMARK                            x       y       z     vdW  Elec       q    Type
REMARK                         _______ _______ _______ _____ _____    ______ ____
ROOT
ATOM      1  C   LIG    1        4.311   0.026  -1.930  0.00  0.00    +0.300 A 
ATOM      2  C   LIG    1        5.144  -0.441  -0.924  0.00  0.00    -0.120 A 
ATOM      3  C   LIG    1        6.317  -1.098  -1.248  0.00  0.00    +0.030 A 
ATOM      4  C   LIG    1        6.663  -1.291  -2.573  0.00  0.00    -0.070 A 
ATOM      5  C   LIG    1        5.838  -0.829  -3.582  0.00  0.00    +0.040 A 
ATOM      6 CL   LIG    1        7.359  -1.681   0.013  0.00  0.00    -0.100 Cl
ATOM      7  C   LIG    1        4.658  -0.175  -3.266  0.00  0.00    +0.070 A 
ENDROOT
BRANCH   7   8
ATOM      8  N   LIG    1        3.816   0.290  -4.289  0.00  0.00    -0.280 N 
ATOM      9  C   LIG    1        4.033   0.162  -5.617  0.00  0.00    +0.180 A 
ATOM     10  C   LIG    1        2.992   0.740  -6.261  0.00  0.00    -0.140 A 
ATOM     11  C   LIG    1        2.111   1.238  -5.296  0.00  0.00    +0.160 A 
ATOM     12  N   LIG    1        2.600   0.963  -4.114  0.00  0.00    -0.200 NA
ENDBRANCH   7   8
BRANCH   1  13
ATOM     13  N   LIG    1        3.125   0.691  -1.606  0.00  0.00    -1.030 NA
BRANCH  13  15
ATOM     14  O   LIG    1        3.679   1.813   0.521  0.00  0.00    -1.020 OA
ATOM     15  S   LIG    1        2.712   0.922  -0.019  0.00  0.00    +2.600 S 
ATOM     16  O   LIG    1        2.457  -0.367   0.521  0.00  0.00    -1.020 OA
BRANCH  15  17
ATOM     17  C   LIG    1        1.175   1.783   0.000  0.00  0.00    -0.620 A 
ATOM     18  C   LIG    1       -0.013   1.076   0.008  0.00  0.00    +0.160 A 
ATOM     19  C   LIG    1       -1.219   1.750   0.017  0.00  0.00    -0.040 A 
ATOM     20  C   LIG    1       -1.237   3.135   0.030  0.00  0.00    +0.130 A 
ATOM     21  C   LIG    1       -0.047   3.842   0.022  0.00  0.00    -0.040 A 
ATOM     22  F   LIG    1       -2.416   3.795   0.045  0.00  0.00    -0.140 F 
ATOM     23  C   LIG    1        1.158   3.165   0.007  0.00  0.00    +0.160 A 
ENDBRANCH  15  17
ENDBRANCH  13  15
ENDBRANCH   1  13
TORSDOF 4
