REMARK  Name = ZINCpe00000yy8fQ.0
REMARK                            x       y       z     vdW  Elec       q    Type
REMARK                         _______ _______ _______ _____ _____    ______ ____
ROOT
ATOM      1  C   LIG    1       -3.990   1.429   1.908  0.00  0.00    +0.530 C 
ATOM      2  N   LIG    1       -5.111   2.102   2.233  0.00  0.00    -0.610 N 
ATOM      3  C   LIG    1       -5.109   3.129   3.290  0.00  0.00    +0.280 C 
ATOM      4  C   LIG    1       -5.485   4.469   2.639  0.00  0.00    +0.080 C 
ATOM      5  C   LIG    1       -6.665   4.295   1.730  0.00  0.00    +0.040 C 
ATOM      6  C   LIG    1       -7.062   3.144   1.243  0.00  0.00    -0.120 C 
ATOM      7  C   LIG    1       -6.386   1.837   1.552  0.00  0.00    +0.340 C 
ATOM      8  O   LIG    1       -4.020   0.586   1.037  0.00  0.00    -0.530 OA
ENDROOT
BRANCH   1  11
ATOM      9  N   LIG    1       -0.909   1.627   1.033  0.00  0.00    -0.600 N 
ATOM     10  C   LIG    1       -1.552   0.839   2.090  0.00  0.00    +0.300 C 
ATOM     11  C   LIG    1       -2.698   1.726   2.626  0.00  0.00    +0.010 C 
ATOM     12  C   LIG    1       -2.187   3.144   2.282  0.00  0.00    +0.080 C 
ATOM     13  C   LIG    1       -1.238   2.927   1.123  0.00  0.00    +0.510 C 
ATOM     14  O   LIG    1       -0.837   3.799   0.382  0.00  0.00    -0.480 OA
BRANCH   9  18
ATOM     15  C   LIG    1        1.783   2.914  -2.069  0.00  0.00    +0.160 C 
ATOM     16  N   LIG    1        0.832   2.669  -0.977  0.00  0.00    -0.450 NA
ATOM     17  C   LIG    1        1.385   1.706   0.002  0.00  0.00    +0.150 C 
ATOM     18  C   LIG    1       -0.016   1.070   0.013  0.00  0.00    +0.230 C 
ATOM     19  C   LIG    1       -0.202   1.692  -1.383  0.00  0.00    +0.170 C 
ENDBRANCH   9  18
ENDBRANCH   1  11
BRANCH   6  20
ATOM     20  C   LIG    1       -8.234   3.131   0.343  0.00  0.00    +0.170 A 
ATOM     21  C   LIG    1       -8.616   1.942  -0.278  0.00  0.00    -0.030 A 
ATOM     22  C   LIG    1       -9.716   1.946  -1.118  0.00  0.00    +0.070 A 
ATOM     23  C   LIG    1      -10.398   3.139  -1.311  0.00  0.00    -0.040 A 
ATOM     24  C   LIG    1       -9.964   4.282  -0.664  0.00  0.00    +0.270 A 
ATOM     25  N   LIG    1       -8.918   4.251   0.135  0.00  0.00    -0.480 NA
ENDBRANCH   6  20
TORSDOF 3
