REMARK  Name = ZINCrH00000tj12K.0
REMARK                            x       y       z     vdW  Elec       q    Type
REMARK                         _______ _______ _______ _____ _____    ______ ____
ROOT
ATOM      1  C   LIG    1        2.014   0.523   1.666  0.00  0.00    +0.140 A 
ATOM      2  N   LIG    1        1.499  -0.282   2.566  0.00  0.00    -0.250 NA
ATOM      3  N   LIG    1        2.405  -0.640   3.404  0.00  0.00    -0.270 NA
ATOM      4  C   LIG    1        3.545  -0.090   3.094  0.00  0.00    +0.210 A 
ATOM      5  N   LIG    1        3.340   0.667   1.971  0.00  0.00    -0.420 N 
ENDROOT
BRANCH   5   6
ATOM      6  C   LIG    1        4.291   1.433   1.279  0.00  0.00    +0.090 A 
ATOM      7  C   LIG    1        5.338   0.807   0.617  0.00  0.00    +0.070 A 
ATOM      8  C   LIG    1        6.270   1.562  -0.068  0.00  0.00    +0.010 A 
ATOM      9  C   LIG    1        6.167   2.943  -0.084  0.00  0.00    +0.120 A 
ATOM     10  C   LIG    1        5.126   3.569   0.582  0.00  0.00    +0.010 A 
ATOM     11  F   LIG    1        7.083   3.680  -0.749  0.00  0.00    -0.130 F 
ATOM     12  C   LIG    1        4.189   2.817   1.262  0.00  0.00    +0.070 A 
ENDBRANCH   5   6
BRANCH   1  13
ATOM     13  S   LIG    1        1.162   1.270   0.317  0.00  0.00    +0.060 S 
BRANCH  13  17
ATOM     14  C   LIG    1       -3.374   2.685  -0.458  0.00  0.00    +0.080 C 
ATOM     15  C   LIG    1       -2.702   1.500   0.239  0.00  0.00    +0.180 C 
ATOM     16  C   LIG    1       -1.449   1.053  -0.547  0.00  0.00    +0.080 C 
ATOM     17  C   LIG    1       -0.499   0.603   0.586  0.00  0.00    -0.010 C 
ATOM     18  C   LIG    1       -1.099   1.180   1.850  0.00  0.00    +0.490 C 
ATOM     19  O   LIG    1       -0.663   1.014   2.964  0.00  0.00    -0.410 OA
ATOM     20  O   LIG    1       -2.190   1.901   1.544  0.00  0.00    -0.340 OA
ENDBRANCH  13  17
ENDBRANCH   1  13
BRANCH   4  21
ATOM     21  C   LIG    1        4.848  -0.260   3.831  0.00  0.00    +0.210 C 
BRANCH  21  22
ATOM     22  C   LIG    1        4.911   0.720   4.974  0.00  0.00    -0.090 A 
ATOM     23  C   LIG    1        5.550   1.935   4.808  0.00  0.00    +0.010 A 
ATOM     24  C   LIG    1        5.604   2.836   5.855  0.00  0.00    +0.000 A 
ATOM     25  C   LIG    1        5.027   2.519   7.070  0.00  0.00    +0.010 A 
ATOM     26  C   LIG    1        4.391   1.302   7.237  0.00  0.00    +0.010 A 
ATOM     27  C   LIG    1        4.334   0.403   6.189  0.00  0.00    +0.030 A 
ENDBRANCH  21  22
ENDBRANCH   4  21
TORSDOF 5
