REMARK  Name = ZINCpk00001AZiG2.0
REMARK                            x       y       z     vdW  Elec       q    Type
REMARK                         _______ _______ _______ _____ _____    ______ ____
ROOT
ATOM      1  C   LIG    1       -3.163   3.655   2.903  0.00  0.00    +0.610 C 
ATOM      2  N   LIG    1       -3.470   3.752   4.212  0.00  0.00    -0.720 N 
ATOM      3  H   LIG    1       -3.004   3.202   4.861  0.00  0.00    +0.410 HD
ATOM      4  O   LIG    1       -3.747   4.345   2.089  0.00  0.00    -0.540 OA
ENDROOT
BRANCH   1  10
ATOM      5  C   LIG    1       -0.949   0.858  -2.265  0.00  0.00    +0.130 C 
ATOM      6  C   LIG    1       -0.774   1.602  -1.201  0.00  0.00    -0.220 C 
ATOM      7  C   LIG    1       -1.322   3.013  -1.126  0.00  0.00    +0.310 C 
ATOM      8  O   LIG    1       -2.162   3.111   0.034  0.00  0.00    -0.260 OA
ATOM      9  C   LIG    1       -1.702   2.508   1.156  0.00  0.00    +0.350 A 
ATOM     10  C   LIG    1       -2.123   2.716   2.459  0.00  0.00    -0.310 A 
ATOM     11  C   LIG    1       -1.355   1.853   3.285  0.00  0.00    +0.310 A 
ATOM     12  N   LIG    1       -0.537   1.181   2.522  0.00  0.00    -0.280 NA
ATOM     13  N   LIG    1       -0.727   1.573   1.198  0.00  0.00    -0.390 N 
ATOM     14  C   LIG    1       -0.013   1.086   0.008  0.00  0.00    +0.380 C 
ENDBRANCH   1  10
BRANCH   2  15
ATOM     15  C   LIG    1       -4.506   4.688   4.654  0.00  0.00    +0.340 C 
ATOM     16  C   LIG    1       -3.892   6.076   4.846  0.00  0.00    +0.060 C 
BRANCH  15  17
ATOM     17  C   LIG    1       -5.089   4.212   5.960  0.00  0.00    +0.170 A 
ATOM     18  N   LIG    1       -4.422   3.765   6.992  0.00  0.00    -0.280 NA
ATOM     19  N   LIG    1       -5.241   3.448   7.936  0.00  0.00    -0.290 NA
ATOM     20  C   LIG    1       -6.459   3.669   7.545  0.00  0.00    +0.180 A 
ATOM     21  C   LIG    1       -7.744   3.442   8.301  0.00  0.00    +0.170 C 
ATOM     22  C   LIG    1       -8.901   3.470   7.294  0.00  0.00    -0.020 C 
ATOM     23  C   LIG    1       -8.766   4.708   6.401  0.00  0.00    +0.050 C 
ATOM     24  C   LIG    1       -7.555   4.543   5.475  0.00  0.00    +0.290 C 
ATOM     25  C   LIG    1      -10.232   3.526   8.047  0.00  0.00    +0.030 C 
ATOM     26  N   LIG    1       -6.396   4.160   6.281  0.00  0.00    -0.460 N 
ENDBRANCH  15  17
ENDBRANCH   2  15
TORSDOF 3
