REMARK  Name = ZINCrD00000F5LnP.0
REMARK                            x       y       z     vdW  Elec       q    Type
REMARK                         _______ _______ _______ _____ _____    ______ ____
ROOT
ATOM      1  C   LIG    1        3.673   2.175  -0.353  0.00  0.00    +0.170 C 
ATOM      2  C   LIG    1        3.650   3.516  -0.178  0.00  0.00    -0.120 C 
ENDROOT
BRANCH   1   8
ATOM      3  C   LIG    1        2.441   0.019  -0.521  0.00  0.00    +0.170 A 
ATOM      4  C   LIG    1        1.255  -0.694  -0.507  0.00  0.00    -0.120 A 
ATOM      5  C   LIG    1        0.049  -0.037  -0.315  0.00  0.00    +0.160 A 
ATOM      6  C   LIG    1        0.023   1.347  -0.134  0.00  0.00    +0.060 A 
ATOM      7  C   LIG    1        1.198   2.069  -0.145  0.00  0.00    +0.040 A 
ATOM      8  C   LIG    1        2.420   1.412  -0.339  0.00  0.00    -0.120 A 
BRANCH   3  10
ATOM      9  C   LIG    1        3.564  -2.042  -0.888  0.00  0.00    +0.250 C 
ATOM     10  O   LIG    1        3.620  -0.625  -0.710  0.00  0.00    -0.300 OA
ENDBRANCH   3  10
BRANCH   6  11
ATOM     11  O   LIG    1       -1.164   1.985   0.049  0.00  0.00    -0.300 OA
ATOM     12  C   LIG    1       -1.118   3.402   0.229  0.00  0.00    +0.240 C 
ENDBRANCH   6  11
BRANCH   5  13
ATOM     13  O   LIG    1       -1.111  -0.742  -0.303  0.00  0.00    -0.300 OA
ATOM     14  C   LIG    1       -1.014  -2.155  -0.494  0.00  0.00    +0.250 C 
ENDBRANCH   5  13
ENDBRANCH   1   8
BRANCH   2  15
ATOM     15  C   LIG    1        4.861   4.253  -0.191  0.00  0.00    +0.560 C 
ATOM     16  N   LIG    1        4.838   5.589  -0.016  0.00  0.00    -0.670 N 
ATOM     17  H   LIG    1        3.990   6.056   0.042  0.00  0.00    +0.410 HD
ATOM     18  O   LIG    1        5.921   3.679  -0.360  0.00  0.00    -0.530 OA
BRANCH  16  19
ATOM     19  C   LIG    1        6.038   6.303   0.081  0.00  0.00    +0.150 A 
ATOM     20  C   LIG    1        7.147   5.719   0.679  0.00  0.00    +0.030 A 
ATOM     21  C   LIG    1        8.334   6.420   0.771  0.00  0.00    -0.010 A 
ATOM     22  C   LIG    1        8.417   7.712   0.277  0.00  0.00    +0.080 A 
ATOM     23  C   LIG    1        7.306   8.303  -0.317  0.00  0.00    +0.120 A 
ATOM     24  C   LIG    1        6.118   7.598  -0.414  0.00  0.00    -0.060 A 
BRANCH  23  25
ATOM     25  O   LIG    1        7.387   9.571  -0.802  0.00  0.00    -0.300 OA
ATOM     26  C   LIG    1        6.207  10.113  -1.400  0.00  0.00    +0.230 C 
ENDBRANCH  23  25
BRANCH  22  27
ATOM     27  O   LIG    1        9.585   8.403   0.374  0.00  0.00    -0.310 OA
ATOM     28  C   LIG    1       10.685   7.735   0.996  0.00  0.00    +0.240 C 
ENDBRANCH  22  27
ENDBRANCH  16  19
ENDBRANCH   2  15
TORSDOF 8
