REMARK  Name = ZINCtV00000L6ksn.0
REMARK                            x       y       z     vdW  Elec       q    Type
REMARK                         _______ _______ _______ _____ _____    ______ ____
ROOT
ATOM      1  C   LIG    1        0.009   1.300  -0.239  0.00  0.00    +0.160 A 
ATOM      2  N   LIG    1        0.016  -0.009  -0.143  0.00  0.00    -0.280 NA
ATOM      3  N   LIG    1        1.202  -0.419   0.136  0.00  0.00    -0.250 NA
ATOM      4  C   LIG    1        2.015   0.594   0.234  0.00  0.00    +0.180 A 
ATOM      5  N   LIG    1        1.284   1.726  -0.001  0.00  0.00    -0.420 N 
ENDROOT
BRANCH   5   6
ATOM      6  C   LIG    1        1.769   3.109   0.002  0.00  0.00    +0.190 C 
ATOM      7  C   LIG    1        0.726   4.223   0.104  0.00  0.00    +0.070 C 
ATOM      8  C   LIG    1        1.450   3.972  -1.220  0.00  0.00    +0.060 C 
ENDBRANCH   5   6
BRANCH   1   9
ATOM      9  S   LIG    1       -1.382   2.316  -0.611  0.00  0.00    +0.040 S 
BRANCH   9  11
ATOM     10  C   LIG    1       -2.331   0.163  -2.000  0.00  0.00    +0.090 C 
ATOM     11  C   LIG    1       -2.659   1.045  -0.793  0.00  0.00    +0.120 C 
BRANCH  11  12
ATOM     12  C   LIG    1       -3.998   1.705  -1.002  0.00  0.00    +0.100 A 
ATOM     13  N   LIG    1       -5.074   1.353  -0.405  0.00  0.00    -0.450 NA
ATOM     14  C   LIG    1       -6.201   2.033  -0.689  0.00  0.00    +0.080 A 
ATOM     15  C   LIG    1       -7.506   1.862  -0.185  0.00  0.00    +0.080 A 
ATOM     16  C   LIG    1       -8.520   2.668  -0.608  0.00  0.00    +0.030 A 
ATOM     17  C   LIG    1       -8.289   3.670  -1.539  0.00  0.00    +0.040 A 
ATOM     18  C   LIG    1       -7.023   3.861  -2.048  0.00  0.00    +0.060 A 
ATOM     19  C   LIG    1       -5.975   3.046  -1.628  0.00  0.00    -0.180 A 
ATOM     20  S   LIG    1       -4.267   3.018  -2.057  0.00  0.00    +0.120 S 
ENDBRANCH  11  12
ENDBRANCH   9  11
ENDBRANCH   1   9
BRANCH   4  21
ATOM     21  C   LIG    1        3.487   0.531   0.548  0.00  0.00    +0.350 C 
BRANCH  21  22
ATOM     22  O   LIG    1        4.229   0.416  -0.668  0.00  0.00    -0.300 OA
BRANCH  22  23
ATOM     23  C   LIG    1        5.583   0.347  -0.561  0.00  0.00    +0.140 A 
ATOM     24  C   LIG    1        6.184   0.389   0.688  0.00  0.00    -0.060 A 
ATOM     25  C   LIG    1        7.560   0.319   0.795  0.00  0.00    +0.060 A 
ATOM     26  C   LIG    1        8.338   0.207  -0.342  0.00  0.00    +0.000 A 
ATOM     27  C   LIG    1        7.742   0.165  -1.589  0.00  0.00    +0.070 A 
ATOM     28  C   LIG    1        6.365   0.229  -1.701  0.00  0.00    -0.070 A 
ATOM     29 CL   LIG    1        5.617   0.168  -3.267  0.00  0.00    -0.050 Cl
ENDBRANCH  22  23
ENDBRANCH  21  22
ENDBRANCH   4  21
TORSDOF 7
