REMARK  Name = ZINCpe000000ZzbQ.0
REMARK                            x       y       z     vdW  Elec       q    Type
REMARK                         _______ _______ _______ _____ _____    ______ ____
ROOT
ATOM      1  N   LIG    1       -1.920   2.143  -0.393  0.00  0.00    -0.500 NA
ATOM      2  C   LIG    1       -1.340   2.415   0.947  0.00  0.00    +0.170 C 
ATOM      3  C   LIG    1       -0.700   1.059   1.341  0.00  0.00    +0.030 C 
ATOM      4  C   LIG    1       -0.138   0.541  -0.003  0.00  0.00    +0.020 C 
ATOM      5  C   LIG    1       -0.939   1.282  -1.089  0.00  0.00    +0.150 C 
ENDROOT
BRANCH   1   6
ATOM      6  C   LIG    1       -2.143   3.392  -1.134  0.00  0.00    +0.200 C 
BRANCH   6  13
ATOM      7  O   LIG    1       -2.193   8.025  -2.612  0.00  0.00    -0.540 OA
ATOM      8  C   LIG    1       -2.970   7.353  -1.967  0.00  0.00    +0.510 C 
ATOM      9  C   LIG    1       -3.044   5.876  -2.246  0.00  0.00    +0.330 C 
ATOM     10  N   LIG    1       -3.803   5.225  -1.167  0.00  0.00    -0.630 N 
ATOM     11  C   LIG    1       -5.027   5.899  -0.702  0.00  0.00    +0.300 C 
ATOM     12  C   LIG    1       -4.627   7.268  -0.136  0.00  0.00    +0.250 C 
ATOM     13  C   LIG    1       -3.397   4.058  -0.630  0.00  0.00    +0.530 C 
ATOM     14  O   LIG    1       -4.042   3.543   0.259  0.00  0.00    -0.510 OA
ATOM     15  N   LIG    1       -3.720   7.957  -1.044  0.00  0.00    -0.720 N 
ATOM     16  H   LIG    1       -3.657   8.922  -0.973  0.00  0.00    +0.400 HD
ENDBRANCH   6  13
ENDBRANCH   1   6
BRANCH   5  17
ATOM     17  C   LIG    1       -1.670   0.273  -1.977  0.00  0.00    +0.060 C 
BRANCH  17  18
ATOM     18  C   LIG    1       -0.662  -0.541  -2.747  0.00  0.00    +0.400 C 
ATOM     19  O   LIG    1        0.518  -0.270  -2.675  0.00  0.00    -0.450 OA
BRANCH  18  20
ATOM     20  C   LIG    1       -1.109  -1.663  -3.585  0.00  0.00    -0.180 A 
ATOM     21  C   LIG    1       -2.469  -1.982  -3.665  0.00  0.00    +0.100 A 
ATOM     22  C   LIG    1       -2.882  -3.032  -4.457  0.00  0.00    -0.030 A 
ATOM     23  C   LIG    1       -1.951  -3.779  -5.164  0.00  0.00    +0.130 A 
ATOM     24  C   LIG    1       -0.601  -3.472  -5.084  0.00  0.00    -0.030 A 
ATOM     25  F   LIG    1       -2.362  -4.810  -5.934  0.00  0.00    -0.130 F 
ATOM     26  C   LIG    1       -0.175  -2.421  -4.301  0.00  0.00    +0.110 A 
ENDBRANCH  18  20
ENDBRANCH  17  18
ENDBRANCH   5  17
TORSDOF 5
