REMARK  Name = ZINCkj000005lkx4.0
REMARK                            x       y       z     vdW  Elec       q    Type
REMARK                         _______ _______ _______ _____ _____    ______ ____
ROOT
ATOM      1  N   LIG    1       -4.580   0.384   0.027  0.00  0.00    -0.380 N 
ATOM      2  C   LIG    1       -3.708   1.412   0.033  0.00  0.00    +0.310 A 
ATOM      3  C   LIG    1       -2.455   0.869   0.018  0.00  0.00    -0.090 A 
ATOM      4  N   LIG    1       -2.572  -0.470   0.012  0.00  0.00    -0.190 NA
ATOM      5  N   LIG    1       -3.818  -0.793   0.017  0.00  0.00    -0.060 NA
ENDROOT
BRANCH   3   6
ATOM      6  C   LIG    1       -1.187   1.624   0.017  0.00  0.00    +0.600 C 
ATOM      7  N   LIG    1       -0.011   0.966   0.007  0.00  0.00    -0.710 N 
ATOM      8  H   LIG    1        0.002  -0.004   0.002  0.00  0.00    +0.410 HD
ATOM      9  O   LIG    1       -1.204   2.840   0.023  0.00  0.00    -0.530 OA
BRANCH   7  10
ATOM     10  C   LIG    1        1.248   1.716  -0.001  0.00  0.00    +0.270 C 
BRANCH  10  11
ATOM     11  C   LIG    1        2.424   0.737  -0.017  0.00  0.00    +0.010 C 
BRANCH  11  12
ATOM     12  C   LIG    1        3.738   1.520  -0.025  0.00  0.00    -0.010 C 
ATOM     13  C   LIG    1        3.852   2.312  -1.330  0.00  0.00    +0.000 C 
ATOM     14  C   LIG    1        5.167   3.095  -1.338  0.00  0.00    +0.000 C 
ATOM     15  C   LIG    1        6.341   2.121  -1.229  0.00  0.00    +0.000 C 
ATOM     16  C   LIG    1        6.227   1.329   0.075  0.00  0.00    +0.000 C 
ATOM     17  C   LIG    1        4.913   0.546   0.084  0.00  0.00    +0.010 C 
ENDBRANCH  11  12
ENDBRANCH  10  11
ENDBRANCH   7  10
ENDBRANCH   3   6
BRANCH   1  18
ATOM     18  C   LIG    1       -6.042   0.479   0.035  0.00  0.00    +0.360 C 
BRANCH  18  19
ATOM     19  C   LIG    1       -6.610  -0.308  -1.147  0.00  0.00    +0.040 C 
BRANCH  19  20
ATOM     20  C   LIG    1       -8.137  -0.209  -1.139  0.00  0.00    +0.280 C 
BRANCH  20  21
ATOM     21  N   LIG    1       -8.683  -0.964  -2.274  0.00  0.00    -0.640 N 
ATOM     22  H   LIG    1       -8.326  -0.580  -3.136  0.00  0.00    +0.440 HD
ATOM     23  H   LIG    1       -9.690  -0.899  -2.268  0.00  0.00    +0.440 HD
ATOM     24  H   LIG    1       -8.408  -1.932  -2.198  0.00  0.00    +0.440 HD
ENDBRANCH  20  21
ENDBRANCH  19  20
ENDBRANCH  18  19
ENDBRANCH   1  18
TORSDOF 8
