REMARK  Name = ZINCvU0000000Ith.0
REMARK                            x       y       z     vdW  Elec       q    Type
REMARK                         _______ _______ _______ _____ _____    ______ ____
ROOT
ATOM      1  C   LIG    1        1.319   1.925   0.414  0.00  0.00    +0.110 C 
ENDROOT
BRANCH   1   2
ATOM      2  C   LIG    1        0.039   1.137   0.519  0.00  0.00    +0.540 C 
ATOM      3  N   LIG    1       -1.126   1.773   0.753  0.00  0.00    -0.720 N 
ATOM      4  H   LIG    1       -1.140   2.737   0.858  0.00  0.00    +0.400 HD
ATOM      5  O   LIG    1        0.056  -0.068   0.388  0.00  0.00    -0.520 OA
BRANCH   3   6
ATOM      6  C   LIG    1       -2.372   1.008   0.849  0.00  0.00    +0.240 C 
ATOM      7  C   LIG    1       -2.540   0.484   2.277  0.00  0.00    +0.020 C 
BRANCH   6   8
ATOM      8  C   LIG    1       -3.554   1.912   0.495  0.00  0.00    -0.060 C 
ATOM      9  C   LIG    1       -3.387   2.435  -0.932  0.00  0.00    +0.020 C 
ATOM     10  C   LIG    1       -4.569   3.339  -1.287  0.00  0.00    -0.020 C 
ATOM     11  C   LIG    1       -4.619   4.518  -0.314  0.00  0.00    +0.010 C 
ATOM     12  C   LIG    1       -4.787   3.995   1.114  0.00  0.00    -0.020 C 
ATOM     13  C   LIG    1       -6.088   3.196   1.215  0.00  0.00    +0.010 C 
ATOM     14  C   LIG    1       -6.038   2.016   0.242  0.00  0.00    -0.020 C 
ATOM     15  C   LIG    1       -5.870   2.539  -1.186  0.00  0.00    +0.010 C 
ATOM     16  C   LIG    1       -3.604   3.091   1.468  0.00  0.00    +0.020 C 
ATOM     17  C   LIG    1       -4.855   1.112   0.596  0.00  0.00    +0.030 C 
ENDBRANCH   6   8
ENDBRANCH   3   6
ENDBRANCH   1   2
BRANCH   1  18
ATOM     18  S   LIG    1        2.697   0.797   0.090  0.00  0.00    +0.080 S 
BRANCH  18  20
ATOM     19  N   LIG    1        5.341   1.659  -0.209  0.00  0.00    -0.450 N 
ATOM     20  C   LIG    1        4.027   1.951   0.016  0.00  0.00    +0.140 A 
ATOM     21  N   LIG    1        3.937   3.254   0.162  0.00  0.00    -0.290 NA
ATOM     22  N   LIG    1        5.099   3.792   0.054  0.00  0.00    -0.260 NA
ATOM     23  C   LIG    1        6.001   2.866  -0.178  0.00  0.00    +0.230 A 
BRANCH  23  24
ATOM     24  C   LIG    1        7.451   3.080  -0.369  0.00  0.00    -0.020 A 
ATOM     25  C   LIG    1        8.373   2.304   0.335  0.00  0.00    +0.020 A 
ATOM     26  C   LIG    1        9.725   2.509   0.151  0.00  0.00    +0.010 A 
ATOM     27  C   LIG    1       10.167   3.481  -0.729  0.00  0.00    +0.030 A 
ATOM     28  C   LIG    1        9.258   4.254  -1.430  0.00  0.00    +0.010 A 
ATOM     29  C   LIG    1        7.904   4.055  -1.260  0.00  0.00    -0.040 A 
ATOM     30  C   LIG    1        6.915   4.894  -2.029  0.00  0.00    +0.100 C 
ENDBRANCH  23  24
BRANCH  19  32
ATOM     31  C   LIG    1        5.975   0.050  -1.938  0.00  0.00    +0.060 C 
ATOM     32  C   LIG    1        5.928   0.336  -0.436  0.00  0.00    +0.300 C 
ENDBRANCH  19  32
ENDBRANCH  18  20
ENDBRANCH   1  18
TORSDOF 7
