REMARK  Name = ZINCrD000000Dcxl.0
REMARK                            x       y       z     vdW  Elec       q    Type
REMARK                         _______ _______ _______ _____ _____    ______ ____
ROOT
ATOM      1  C   LIG    1       -3.134   3.913  -1.366  0.00  0.00    +0.140 C 
ATOM      2  C   LIG    1       -4.405   4.767  -1.371  0.00  0.00    +0.080 C 
ATOM      3  C   LIG    1       -4.895   4.921  -2.819  0.00  0.00    +0.170 C 
ATOM      4  C   LIG    1       -4.888   3.519  -3.472  0.00  0.00    +0.020 C 
ATOM      5  C   LIG    1       -3.470   3.365  -4.060  0.00  0.00    -0.000 C 
ATOM      6  C   LIG    1       -2.749   4.686  -3.708  0.00  0.00    +0.160 C 
ATOM      7  N   LIG    1       -3.850   5.675  -3.561  0.00  0.00    -0.500 NA
ATOM      8  C   LIG    1       -2.102   4.515  -2.324  0.00  0.00    +0.020 C 
ENDROOT
BRANCH   1   9
ATOM      9  O   LIG    1       -3.452   2.584  -1.786  0.00  0.00    -0.540 OA
ATOM     10  H   LIG    1       -2.693   1.986  -1.806  0.00  0.00    +0.360 HD
ENDBRANCH   1   9
BRANCH   7  11
ATOM     11  C   LIG    1       -4.346   6.110  -4.873  0.00  0.00    +0.330 C 
BRANCH  11  12
ATOM     12  C   LIG    1       -3.362   7.070  -5.489  0.00  0.00    +0.200 A 
ATOM     13  N   LIG    1       -2.351   6.762  -6.265  0.00  0.00    -0.480 NA
ATOM     14  C   LIG    1       -1.759   7.930  -6.570  0.00  0.00    +0.200 A 
ATOM     15  N   LIG    1       -2.428   8.872  -5.976  0.00  0.00    -0.380 NA
ATOM     16  O   LIG    1       -3.356   8.400  -5.354  0.00  0.00    +0.090 OA
BRANCH  14  17
ATOM     17  C   LIG    1       -0.543   8.114  -7.442  0.00  0.00    +0.060 C 
ATOM     18  C   LIG    1        0.084   9.508  -7.495  0.00  0.00    +0.050 C 
ATOM     19  C   LIG    1       -0.698   8.975  -8.697  0.00  0.00    +0.050 C 
ENDBRANCH  14  17
ENDBRANCH  11  12
ENDBRANCH   7  11
BRANCH   1  20
ATOM     20  C   LIG    1       -2.552   3.873   0.049  0.00  0.00    +0.070 C 
BRANCH  20  21
ATOM     21  C   LIG    1       -1.238   3.137   0.031  0.00  0.00    -0.130 A 
ATOM     22  C   LIG    1       -0.050   3.843   0.024  0.00  0.00    +0.080 A 
ATOM     23  C   LIG    1        1.157   3.169   0.008  0.00  0.00    -0.020 A 
ATOM     24  C   LIG    1        1.177   1.785   0.000  0.00  0.00    +0.130 A 
ATOM     25  C   LIG    1       -0.013   1.076   0.008  0.00  0.00    -0.040 A 
ATOM     26  F   LIG    1        2.356   1.126  -0.014  0.00  0.00    -0.130 F 
ATOM     27  C   LIG    1       -1.220   1.752   0.017  0.00  0.00    +0.120 A 
ATOM     28  F   LIG    1       -2.381   1.061   0.019  0.00  0.00    -0.120 F 
ENDBRANCH  20  21
ENDBRANCH   1  20
TORSDOF 6
