REMARK  Name = ZINCkj000005iIQq.0
REMARK                            x       y       z     vdW  Elec       q    Type
REMARK                         _______ _______ _______ _____ _____    ______ ____
ROOT
ATOM      1  C   LIG    1        6.162   0.443   0.363  0.00  0.00    +0.310 C 
ENDROOT
BRANCH   1   2
ATOM      2  N   LIG    1        4.750   0.609   0.717  0.00  0.00    -0.700 N 
ATOM      3  H   LIG    1        4.364   0.078   1.431  0.00  0.00    +0.410 HD
ATOM      4  C   LIG    1        3.988   1.498   0.050  0.00  0.00    +0.510 C 
ATOM      5  O   LIG    1        4.471   2.161  -0.843  0.00  0.00    -0.520 OA
BRANCH   4   6
ATOM      6  C   LIG    1        2.535   1.669   0.414  0.00  0.00    +0.180 C 
ATOM      7  C   LIG    1        1.678   0.544  -0.217  0.00  0.00    +0.100 C 
ATOM      8  C   LIG    1        0.272   1.182  -0.294  0.00  0.00    +0.080 C 
ATOM      9  C   LIG    1        0.518   2.702  -0.260  0.00  0.00    +0.280 C 
ATOM     10  N   LIG    1        1.982   2.903  -0.199  0.00  0.00    -0.500 N 
ATOM     11  H   LIG    1        2.200   3.704   0.374  0.00  0.00    +0.440 HD
ATOM     12  H   LIG    1        2.355   3.027  -1.128  0.00  0.00    +0.440 HD
ENDBRANCH   4   6
ENDBRANCH   1   2
BRANCH   1  13
ATOM     13  C   LIG    1        6.793  -0.619   1.265  0.00  0.00    +0.150 C 
ATOM     14  C   LIG    1        8.267  -0.792   0.895  0.00  0.00    +0.060 C 
BRANCH  13  15
ATOM     15  O   LIG    1        6.689  -0.208   2.630  0.00  0.00    -0.310 OA
BRANCH  15  19
ATOM     16  C   LIG    1        6.738  -3.183   5.492  0.00  0.00    +0.100 A 
ATOM     17  C   LIG    1        6.946  -3.500   4.158  0.00  0.00    +0.030 A 
ATOM     18  C   LIG    1        6.930  -2.505   3.200  0.00  0.00    -0.030 A 
ATOM     19  C   LIG    1        6.705  -1.188   3.573  0.00  0.00    +0.080 A 
ATOM     20  C   LIG    1        6.502  -0.870   4.907  0.00  0.00    +0.020 A 
ATOM     21  C   LIG    1        6.514  -1.865   5.864  0.00  0.00    -0.030 A 
BRANCH  16  23
ATOM     22  C   LIG    1        6.531  -3.763   7.789  0.00  0.00    +0.250 C 
ATOM     23  O   LIG    1        6.753  -4.162   6.435  0.00  0.00    -0.320 OA
ENDBRANCH  16  23
ENDBRANCH  15  19
ENDBRANCH  13  15
ENDBRANCH   1  13
TORSDOF 6
