REMARK  Name = ZINCrH000004nhjM.0
REMARK                            x       y       z     vdW  Elec       q    Type
REMARK                         _______ _______ _______ _____ _____    ______ ____
ROOT
ATOM      1  C   LIG    1       -2.192  -0.381   0.351  0.00  0.00    +0.360 C 
ENDROOT
BRANCH   1   2
ATOM      2  N   LIG    1       -2.433   1.036   0.048  0.00  0.00    -0.470 N 
ATOM      3  C   LIG    1       -3.082   1.192  -1.261  0.00  0.00    +0.190 C 
ATOM      4  C   LIG    1       -3.941   2.444  -1.293  0.00  0.00    +0.050 C 
ATOM      5  C   LIG    1       -3.136   3.728  -1.190  0.00  0.00    +0.190 C 
ATOM      6  N   LIG    1       -2.494   3.837   0.138  0.00  0.00    -0.480 N 
ATOM      7  C   LIG    1       -1.264   3.155   0.130  0.00  0.00    +0.130 A 
ATOM      8  C   LIG    1       -0.080   3.877   0.162  0.00  0.00    -0.040 A 
ATOM      9  C   LIG    1        1.132   3.206   0.156  0.00  0.00    +0.110 A 
ATOM     10  C   LIG    1        1.162   1.823   0.118  0.00  0.00    -0.010 A 
ATOM     11  C   LIG    1       -0.019   1.101   0.085  0.00  0.00    +0.020 A 
ATOM     12  F   LIG    1        2.288   3.904   0.187  0.00  0.00    -0.140 F 
ATOM     13  C   LIG    1       -2.313   5.244   0.521  0.00  0.00    +0.210 C 
ATOM     14  C   LIG    1       -1.234   1.771   0.086  0.00  0.00    +0.090 A 
ENDBRANCH   1   2
BRANCH   1  18
ATOM     15  C   LIG    1       -5.091  -2.337  -0.480  0.00  0.00    +0.210 A 
ATOM     16  N   LIG    1       -5.341  -1.952   0.745  0.00  0.00    -0.360 NA
ATOM     17  O   LIG    1       -4.429  -1.270   1.162  0.00  0.00    +0.100 OA
ATOM     18  C   LIG    1       -3.483  -1.148   0.225  0.00  0.00    +0.190 A 
ATOM     19  N   LIG    1       -3.892  -1.817  -0.825  0.00  0.00    -0.470 NA
BRANCH  15  24
ATOM     20  C   LIG    1       -7.990  -4.436  -1.644  0.00  0.00    +0.130 A 
ATOM     21  C   LIG    1       -7.586  -4.762  -2.931  0.00  0.00    -0.060 A 
ATOM     22  C   LIG    1       -6.377  -4.302  -3.418  0.00  0.00    +0.060 A 
ATOM     23  C   LIG    1       -5.565  -3.515  -2.626  0.00  0.00    +0.030 A 
ATOM     24  C   LIG    1       -5.963  -3.183  -1.333  0.00  0.00    +0.010 A 
ATOM     25  C   LIG    1       -7.178  -3.651  -0.841  0.00  0.00    +0.020 A 
BRANCH  20  27
ATOM     26  C   LIG    1       -9.963  -5.700  -2.049  0.00  0.00    +0.250 C 
ATOM     27  O   LIG    1       -9.180  -4.891  -1.169  0.00  0.00    -0.310 OA
ENDBRANCH  20  27
ENDBRANCH  15  24
ENDBRANCH   1  18
TORSDOF 4
