REMARK  Name = ZINCvU000000041Q.0
REMARK                            x       y       z     vdW  Elec       q    Type
REMARK                         _______ _______ _______ _____ _____    ______ ____
ROOT
ATOM      1  O   LIG    1       -0.515  -3.233   1.159  0.00  0.00    -0.320 OA
ENDROOT
BRANCH   1   2
ATOM      2  C   LIG    1        0.036  -2.853  -0.012  0.00  0.00    +0.530 C 
ATOM      3  O   LIG    1       -0.489  -3.171  -1.062  0.00  0.00    -0.480 OA
BRANCH   2   4
ATOM      4  C   LIG    1        1.268  -2.057  -0.019  0.00  0.00    -0.110 A 
ATOM      5  C   LIG    1        1.207  -0.648  -0.002  0.00  0.00    +0.010 A 
ATOM      6  C   LIG    1       -0.026   0.025   0.022  0.00  0.00    +0.000 A 
ATOM      7  C   LIG    1       -0.050   1.385   0.037  0.00  0.00    +0.040 A 
ATOM      8  C   LIG    1        1.123   2.137   0.031  0.00  0.00    +0.010 A 
ATOM      9  C   LIG    1        2.347   1.548   0.008  0.00  0.00    +0.050 A 
ATOM     10  C   LIG    1        2.442   0.140  -0.009  0.00  0.00    -0.060 A 
ATOM     11  C   LIG    1        3.683  -0.497  -0.033  0.00  0.00    +0.090 A 
ATOM     12  C   LIG    1        3.753  -1.890  -0.050  0.00  0.00    -0.060 A 
ATOM     13  C   LIG    1        4.997  -2.555  -0.075  0.00  0.00    +0.050 A 
ATOM     14  C   LIG    1        5.031  -3.913  -0.092  0.00  0.00    +0.010 A 
ATOM     15  C   LIG    1        3.863  -4.674  -0.086  0.00  0.00    +0.040 A 
ATOM     16  C   LIG    1        2.633  -4.093  -0.063  0.00  0.00    +0.000 A 
ATOM     17  C   LIG    1        2.527  -2.692  -0.043  0.00  0.00    +0.000 A 
ENDBRANCH   2   4
ENDBRANCH   1   2
BRANCH   1  18
ATOM     18  C   LIG    1       -1.734  -4.019   1.091  0.00  0.00    +0.270 C 
BRANCH  18  20
ATOM     19  O   LIG    1       -1.565  -3.958   3.444  0.00  0.00    -0.480 OA
ATOM     20  C   LIG    1       -2.199  -4.347   2.486  0.00  0.00    +0.520 C 
ATOM     21  N   LIG    1       -3.319  -5.074   2.669  0.00  0.00    -0.670 N 
ATOM     22  H   LIG    1       -3.861  -5.331   1.907  0.00  0.00    +0.420 HD
BRANCH  21  23
ATOM     23  C   LIG    1       -3.700  -5.460   3.960  0.00  0.00    +0.160 A 
ATOM     24  C   LIG    1       -3.459  -4.617   5.037  0.00  0.00    +0.130 A 
ATOM     25  C   LIG    1       -3.841  -4.998   6.309  0.00  0.00    -0.020 A 
ATOM     26  C   LIG    1       -4.452  -6.221   6.512  0.00  0.00    +0.110 A 
ATOM     27  C   LIG    1       -4.688  -7.066   5.443  0.00  0.00    +0.080 A 
ATOM     28  C   LIG    1       -4.314  -6.689   4.167  0.00  0.00    -0.020 A 
ATOM     29 CL   LIG    1       -4.611  -7.750   2.825  0.00  0.00    -0.030 Cl
BRANCH  25  30
ATOM     30  N   LIG    1       -3.589  -4.098   7.457  0.00  0.00    +0.020 N 
ATOM     31  O   LIG    1       -3.050  -3.020   7.279  0.00  0.00    -0.140 OA
ATOM     32  O   LIG    1       -3.920  -4.435   8.579  0.00  0.00    -0.150 OA
ENDBRANCH  25  30
ENDBRANCH  21  23
ENDBRANCH  18  20
ENDBRANCH   1  18
TORSDOF 6
