REMARK  Name = ZINCpk00000KfKso.0
REMARK                            x       y       z     vdW  Elec       q    Type
REMARK                         _______ _______ _______ _____ _____    ______ ____
ROOT
ATOM      1  C   LIG    1        2.084   1.497  -1.244  0.00  0.00    +0.150 C 
ATOM      2  C   LIG    1        1.350   2.006  -0.000  0.00  0.00    +0.170 C 
ATOM      3  N   LIG    1       -0.018   1.466   0.010  0.00  0.00    -0.510 NA
ATOM      4  C   LIG    1        0.002  -0.004   0.002  0.00  0.00    +0.160 C 
ATOM      5  C   LIG    1        0.750  -0.492  -1.242  0.00  0.00    +0.230 C 
ATOM      6  O   LIG    1        2.066   0.067  -1.251  0.00  0.00    -0.370 OA
ENDROOT
BRANCH   1   7
ATOM      7  C   LIG    1        3.532   1.990  -1.220  0.00  0.00    +0.310 C 
BRANCH   7   8
ATOM      8  N   LIG    1        4.201   1.601  -2.464  0.00  0.00    -0.590 N 
BRANCH   8   9
ATOM      9  C   LIG    1        4.862   0.380  -2.545  0.00  0.00    +0.350 A 
ATOM     10  C   LIG    1        4.803  -0.520  -1.482  0.00  0.00    -0.010 A 
ATOM     11  C   LIG    1        5.480  -1.723  -1.613  0.00  0.00    +0.050 A 
ATOM     12  C   LIG    1        6.173  -1.957  -2.792  0.00  0.00    +0.150 A 
ATOM     13  N   LIG    1        6.175  -1.049  -3.747  0.00  0.00    -0.210 NA
ATOM     14  N   LIG    1        5.546   0.065  -3.635  0.00  0.00    -0.310 NA
ENDBRANCH   8   9
BRANCH   8  16
ATOM     15  C   LIG    1        5.378   3.437  -3.569  0.00  0.00    +0.010 C 
ATOM     16  C   LIG    1        4.173   2.497  -3.623  0.00  0.00    +0.280 C 
ENDBRANCH   8  16
ENDBRANCH   7   8
ENDBRANCH   1   7
BRANCH   3  17
ATOM     17  C   LIG    1       -0.776   1.976   1.160  0.00  0.00    +0.400 C 
BRANCH  17  18
ATOM     18  C   LIG    1       -0.056   1.620   2.435  0.00  0.00    +0.140 A 
ATOM     19  N   LIG    1        0.856   2.340   3.043  0.00  0.00    -0.470 NA
ATOM     20  C   LIG    1        1.210   1.631   4.131  0.00  0.00    +0.200 A 
ATOM     21  N   LIG    1        0.513   0.534   4.124  0.00  0.00    -0.380 NA
ATOM     22  O   LIG    1       -0.220   0.508   3.158  0.00  0.00    +0.080 OA
BRANCH  20  23
ATOM     23  C   LIG    1        2.230   2.034   5.164  0.00  0.00    +0.060 C 
ATOM     24  C   LIG    1        2.631   0.988   6.206  0.00  0.00    +0.050 C 
ATOM     25  C   LIG    1        1.753   2.174   6.611  0.00  0.00    +0.060 C 
ENDBRANCH  20  23
ENDBRANCH  17  18
ENDBRANCH   3  17
TORSDOF 7
