REMARK  Name = ZINCqH0000035xTP.1
REMARK                            x       y       z     vdW  Elec       q    Type
REMARK                         _______ _______ _______ _____ _____    ______ ____
ROOT
ATOM      1  N   LIG    1       -1.023  -3.949  -2.024  0.00  0.00    -0.700 N 
ATOM      2  H   LIG    1       -1.930  -4.260  -1.877  0.00  0.00    +0.410 HD
ATOM      3  C   LIG    1       -0.611  -2.791  -1.471  0.00  0.00    +0.610 C 
ATOM      4  O   LIG    1        0.526  -2.400  -1.655  0.00  0.00    -0.510 OA
ENDROOT
BRANCH   3   5
ATOM      5  C   LIG    1       -1.539  -1.997  -0.641  0.00  0.00    -0.030 A 
ATOM      6  N   LIG    1       -2.797  -2.284  -0.347  0.00  0.00    -0.240 NA
ATOM      7  N   LIG    1       -3.271  -1.351   0.399  0.00  0.00    -0.230 N 
ATOM      8  H   LIG    1       -4.176  -1.335   0.745  0.00  0.00    +0.480 HD
ATOM      9  N   LIG    1       -2.390  -0.444   0.631  0.00  0.00    -0.270 NA
ATOM     10  C   LIG    1       -1.271  -0.766   0.011  0.00  0.00    +0.110 A 
BRANCH  10  11
ATOM     11  C   LIG    1        0.002  -0.004   0.002  0.00  0.00    -0.030 A 
ATOM     12  C   LIG    1       -0.017   1.389   0.010  0.00  0.00    +0.030 A 
ATOM     13  C   LIG    1        1.170   2.093   0.002  0.00  0.00    +0.000 A 
ATOM     14  C   LIG    1        2.377   1.418  -0.013  0.00  0.00    +0.020 A 
ATOM     15  C   LIG    1        2.402   0.035  -0.021  0.00  0.00    +0.000 A 
ATOM     16  C   LIG    1        1.221  -0.679  -0.013  0.00  0.00    +0.080 A 
ENDBRANCH  10  11
ENDBRANCH   3   5
BRANCH   1  17
ATOM     17  C   LIG    1       -0.102  -4.736  -2.847  0.00  0.00    +0.260 C 
ATOM     18  C   LIG    1       -0.127  -4.211  -4.284  0.00  0.00    +0.050 C 
BRANCH  17  19
ATOM     19  C   LIG    1       -0.534  -6.204  -2.833  0.00  0.00    +0.210 C 
BRANCH  19  20
ATOM     20  C   LIG    1       -0.628  -6.686  -1.409  0.00  0.00    -0.100 A 
ATOM     21  C   LIG    1       -1.784  -6.471  -0.682  0.00  0.00    +0.040 A 
ATOM     22  C   LIG    1       -1.874  -6.918   0.623  0.00  0.00    +0.040 A 
ATOM     23  C   LIG    1       -0.802  -7.571   1.205  0.00  0.00    -0.090 A 
ATOM     24  C   LIG    1        0.357  -7.781   0.479  0.00  0.00    +0.040 A 
ATOM     25 BR   LIG    1       -0.920  -8.175   2.993  0.00  0.00    -0.050 Br
ATOM     26  C   LIG    1        0.443  -7.338  -0.827  0.00  0.00    +0.030 A 
ENDBRANCH  19  20
BRANCH  19  28
ATOM     27  C   LIG    1       -2.015  -7.590  -4.110  0.00  0.00    +0.210 C 
ATOM     28  O   LIG    1       -1.809  -6.332  -3.465  0.00  0.00    -0.370 OA
ENDBRANCH  19  28
ENDBRANCH  17  19
ENDBRANCH   1  17
TORSDOF 6
