REMARK  Name = ZINCnE00000hdarR.1
REMARK                            x       y       z     vdW  Elec       q    Type
REMARK                         _______ _______ _______ _____ _____    ______ ____
ROOT
ATOM      1  N   LIG    1       -2.977   1.318   3.041  0.00  0.00    -0.670 NA
ATOM      2  C   LIG    1       -3.209   1.283   1.714  0.00  0.00    +0.670 C 
ATOM      3  N   LIG    1       -2.193   1.466   0.848  0.00  0.00    -0.610 N 
ATOM      4  C   LIG    1       -0.769   1.604   1.209  0.00  0.00    +0.240 C 
ATOM      5  C   LIG    1        0.005   1.172  -0.061  0.00  0.00    +0.000 C 
ATOM      6  C   LIG    1       -0.898   1.742  -1.186  0.00  0.00    +0.020 C 
ATOM      7  C   LIG    1       -2.319   1.561  -0.614  0.00  0.00    +0.220 C 
ATOM      8  O   LIG    1       -4.334   1.086   1.298  0.00  0.00    -0.630 OA
ENDROOT
BRANCH   1  10
ATOM      9  C   LIG    1       -3.956   1.129   5.320  0.00  0.00    -0.370 A 
ATOM     10  C   LIG    1       -4.021   1.130   3.931  0.00  0.00    +0.230 A 
ATOM     11  S   LIG    1       -5.674   0.839   3.555  0.00  0.00    +0.180 S 
ATOM     12  N   LIG    1       -6.210   0.738   5.159  0.00  0.00    -0.560 NA
ATOM     13  C   LIG    1       -5.189   0.915   5.935  0.00  0.00    +0.180 A 
ATOM     14  C   LIG    1       -5.326   0.884   7.435  0.00  0.00    +0.120 C 
BRANCH   9  15
ATOM     15  C   LIG    1       -2.712   1.338   6.067  0.00  0.00    +0.590 C 
ATOM     16  O   LIG    1       -2.375   2.463   6.385  0.00  0.00    -0.520 OA
BRANCH  15  18
ATOM     17  C   LIG    1       -0.722   0.566   7.139  0.00  0.00    +0.240 C 
ATOM     18  O   LIG    1       -1.940   0.284   6.400  0.00  0.00    -0.360 OA
ENDBRANCH  15  18
ENDBRANCH   9  15
ENDBRANCH   1  10
BRANCH   7  19
ATOM     19  C   LIG    1       -3.187   2.766  -0.984  0.00  0.00    -0.020 C 
ATOM     20  C   LIG    1       -3.232   2.935  -2.516  0.00  0.00    +0.010 C 
ATOM     21  C   LIG    1       -3.223   4.470  -2.729  0.00  0.00    +0.000 C 
ATOM     22  C   LIG    1       -2.256   4.963  -1.624  0.00  0.00    +0.000 C 
ATOM     23  C   LIG    1       -2.567   4.055  -0.416  0.00  0.00    +0.020 C 
ENDBRANCH   7  19
TORSDOF 4
