REMARK  Name = ZINCtV00000tRREp.0
REMARK                            x       y       z     vdW  Elec       q    Type
REMARK                         _______ _______ _______ _____ _____    ______ ____
ROOT
ATOM      1  C   LIG    1       -1.250   2.167   0.020  0.00  0.00    +0.190 C 
ATOM      2  C   LIG    1       -0.016   1.303   0.009  0.00  0.00    +0.170 A 
ATOM      3  N   LIG    1        0.002  -0.004   0.002  0.00  0.00    -0.280 NA
ATOM      4  N   LIG    1        1.337  -0.429  -0.013  0.00  0.00    -0.370 N 
ATOM      5  C   LIG    1        2.129   0.683  -0.015  0.00  0.00    +0.200 A 
ATOM      6  C   LIG    1        3.636   0.704  -0.030  0.00  0.00    +0.170 C 
ATOM      7  C   LIG    1        1.763  -1.707  -0.024  0.00  0.00    +0.630 C 
ATOM      8  O   LIG    1        2.954  -1.951  -0.037  0.00  0.00    -0.440 OA
ATOM      9  C   LIG    1        1.312   1.766  -0.001  0.00  0.00    -0.330 A 
ENDROOT
BRANCH   7  10
ATOM     10  C   LIG    1        0.791  -2.804  -0.021  0.00  0.00    -0.260 A 
ATOM     11  C   LIG    1        1.110  -4.105  -0.037  0.00  0.00    +0.050 A 
ATOM     12  C   LIG    1        0.022  -4.995  -0.025  0.00  0.00    -0.100 A 
ATOM     13  C   LIG    1        0.033  -6.410  -0.033  0.00  0.00    +0.070 A 
ATOM     14  C   LIG    1       -1.133  -7.109  -0.025  0.00  0.00    +0.020 A 
ATOM     15  C   LIG    1       -2.356  -6.448  -0.010  0.00  0.00    +0.060 A 
ATOM     16  C   LIG    1       -2.399  -5.075  -0.003  0.00  0.00    +0.050 A 
ATOM     17  C   LIG    1       -1.213  -4.334  -0.010  0.00  0.00    -0.140 A 
ATOM     18 CL   LIG    1        2.756  -4.656  -0.064  0.00  0.00    -0.010 Cl
ATOM     19  S   LIG    1       -0.951  -2.593  -0.003  0.00  0.00    +0.260 S 
ENDBRANCH   7  10
BRANCH   9  20
ATOM     20  S   LIG    1        1.823   3.452   0.003  0.00  0.00    +0.190 S 
BRANCH  20  21
ATOM     21  C   LIG    1        1.955   3.822   1.721  0.00  0.00    -0.060 A 
ATOM     22  C   LIG    1        1.665   2.847   2.668  0.00  0.00    +0.010 A 
ATOM     23  C   LIG    1        1.775   3.139   4.013  0.00  0.00    +0.090 A 
ATOM     24  C   LIG    1        2.163   4.402   4.418  0.00  0.00    +0.020 A 
ATOM     25  C   LIG    1        2.447   5.377   3.479  0.00  0.00    +0.130 A 
ATOM     26  C   LIG    1        2.345   5.091   2.132  0.00  0.00    -0.040 A 
BRANCH  26  27
ATOM     27  N   LIG    1        2.650   6.135   1.128  0.00  0.00    +0.030 N 
ATOM     28  O   LIG    1        2.560   5.881  -0.060  0.00  0.00    -0.150 OA
ATOM     29  O   LIG    1        2.991   7.247   1.489  0.00  0.00    -0.160 OA
ENDBRANCH  26  27
ENDBRANCH  20  21
ENDBRANCH   9  20
TORSDOF 4
