REMARK  Name = ZINCvU00000009Ay.0
REMARK                            x       y       z     vdW  Elec       q    Type
REMARK                         _______ _______ _______ _____ _____    ______ ____
ROOT
ATOM      1  C   LIG    1       -0.014   1.204   0.009  0.00  0.00    +0.470 C 
ATOM      2  O   LIG    1        0.002  -0.004   0.002  0.00  0.00    -0.500 OA
ENDROOT
BRANCH   1   3
ATOM      3  C   LIG    1       -1.329   1.940   0.019  0.00  0.00    -0.040 C 
ATOM      4  C   LIG    1       -2.479   0.930   0.019  0.00  0.00    +0.050 C 
ATOM      5  C   LIG    1       -3.814   1.677   0.029  0.00  0.00    +0.000 C 
ATOM      6  C   LIG    1       -3.901   2.548   1.284  0.00  0.00    +0.030 C 
ATOM      7  C   LIG    1       -2.752   3.558   1.284  0.00  0.00    +0.000 C 
ATOM      8  C   LIG    1       -2.851   4.444   0.040  0.00  0.00    +0.040 C 
ATOM      9  C   LIG    1       -2.764   3.572  -1.215  0.00  0.00    -0.010 C 
ATOM     10  C   LIG    1       -3.913   2.562  -1.215  0.00  0.00    +0.040 C 
ATOM     11  C   LIG    1       -1.428   2.825  -1.225  0.00  0.00    +0.050 C 
ATOM     12  C   LIG    1       -1.417   2.811   1.273  0.00  0.00    +0.050 C 
BRANCH   9  13
ATOM     13  C   LIG    1       -2.861   4.444  -2.440  0.00  0.00    -0.070 A 
ATOM     14  C   LIG    1       -1.823   4.473  -3.352  0.00  0.00    +0.000 A 
ATOM     15  C   LIG    1       -1.914   5.270  -4.478  0.00  0.00    +0.000 A 
ATOM     16  C   LIG    1       -3.039   6.044  -4.688  0.00  0.00    +0.000 A 
ATOM     17  C   LIG    1       -4.076   6.018  -3.773  0.00  0.00    +0.000 A 
ATOM     18  C   LIG    1       -3.986   5.219  -2.649  0.00  0.00    +0.010 A 
ENDBRANCH   9  13
ENDBRANCH   1   3
BRANCH   1  19
ATOM     19  O   LIG    1        1.139   1.891   0.001  0.00  0.00    -0.330 OA
BRANCH  19  20
ATOM     20  C   LIG    1        2.367   1.117  -0.015  0.00  0.00    +0.250 C 
BRANCH  20  22
ATOM     21  O   LIG    1        3.374   3.251  -0.013  0.00  0.00    -0.510 OA
ATOM     22  C   LIG    1        3.550   2.051  -0.021  0.00  0.00    +0.520 C 
ATOM     23  N   LIG    1        4.802   1.553  -0.035  0.00  0.00    -0.720 N 
ATOM     24  H   LIG    1        4.942   0.593  -0.042  0.00  0.00    +0.400 HD
BRANCH  23  25
ATOM     25  C   LIG    1        5.952   2.461  -0.042  0.00  0.00    +0.320 C 
BRANCH  25  26
ATOM     26  C   LIG    1        7.226   1.657  -0.058  0.00  0.00    -0.110 A 
ATOM     27  C   LIG    1        7.825   1.288   1.132  0.00  0.00    +0.050 A 
ATOM     28  C   LIG    1        8.992   0.547   1.117  0.00  0.00    +0.030 A 
ATOM     29  C   LIG    1        9.566   0.184  -0.088  0.00  0.00    -0.030 A 
ATOM     30  C   LIG    1        8.969   0.559  -1.279  0.00  0.00    +0.030 A 
ATOM     31 CL   LIG    1       11.036  -0.740  -0.107  0.00  0.00    -0.060 Cl
ATOM     32  C   LIG    1        7.799   1.296  -1.263  0.00  0.00    +0.050 A 
ENDBRANCH  25  26
ENDBRANCH  23  25
ENDBRANCH  20  22
ENDBRANCH  19  20
ENDBRANCH   1  19
TORSDOF 7
