REMARK  Name = ZINCvU00000006ia.0
REMARK                            x       y       z     vdW  Elec       q    Type
REMARK                         _______ _______ _______ _____ _____    ______ ____
ROOT
ATOM      1  N   LIG    1        2.210   4.099   0.888  0.00  0.00    -0.660 NA
ATOM      2  H   LIG    1        3.046   3.540   0.799  0.00  0.00    +0.350 HD
ENDROOT
BRANCH   1   4
ATOM      3  C   LIG    1        1.951   2.774   2.931  0.00  0.00    +0.010 C 
ATOM      4  C   LIG    1        1.756   4.146   2.284  0.00  0.00    +0.250 C 
BRANCH   4   5
ATOM      5  C   LIG    1        2.557   5.176   3.039  0.00  0.00    +0.060 A 
ATOM      6  C   LIG    1        2.022   5.777   4.163  0.00  0.00    +0.260 A 
ATOM      7  N   LIG    1        2.722   6.680   4.828  0.00  0.00    -0.430 NA
ATOM      8  C   LIG    1        3.938   7.011   4.415  0.00  0.00    +0.310 A 
ATOM      9  C   LIG    1        4.473   6.404   3.281  0.00  0.00    +0.200 A 
ATOM     10  N   LIG    1        3.771   5.499   2.626  0.00  0.00    -0.390 NA
BRANCH   8  11
ATOM     11  N   LIG    1        4.678   7.963   5.113  0.00  0.00    -0.660 N 
ATOM     12  H   LIG    1        5.594   8.151   4.854  0.00  0.00    +0.420 HD
ATOM     13  C   LIG    1        4.122   8.623   6.147  0.00  0.00    +0.510 C 
ATOM     14  O   LIG    1        3.010   8.325   6.530  0.00  0.00    -0.470 OA
BRANCH  13  15
ATOM     15  C   LIG    1        4.881   9.733   6.829  0.00  0.00    -0.080 C 
ATOM     16  C   LIG    1        5.195  10.834   5.814  0.00  0.00    +0.050 C 
ATOM     17  C   LIG    1        6.187   9.180   7.403  0.00  0.00    +0.050 C 
ATOM     18  C   LIG    1        4.030  10.311   7.962  0.00  0.00    +0.060 C 
ENDBRANCH  13  15
ENDBRANCH   8  11
ENDBRANCH   4   5
ENDBRANCH   1   4
BRANCH   1  19
ATOM     19  C   LIG    1        1.147   3.601   0.005  0.00  0.00    +0.270 C 
BRANCH  19  20
ATOM     20  C   LIG    1        1.374   4.115  -1.393  0.00  0.00    -0.030 A 
ATOM     21  C   LIG    1        2.655   4.175  -1.908  0.00  0.00    +0.050 A 
ATOM     22  C   LIG    1        2.865   4.641  -3.192  0.00  0.00    +0.060 A 
ATOM     23  C   LIG    1        1.793   5.059  -3.960  0.00  0.00    -0.080 A 
ATOM     24  C   LIG    1        0.509   5.005  -3.442  0.00  0.00    +0.110 A 
ATOM     25  F   LIG    1       -0.540   5.413  -4.191  0.00  0.00    -0.130 F 
ATOM     26 CL   LIG    1        2.056   5.651  -5.571  0.00  0.00    -0.050 Cl
ATOM     27  C   LIG    1        0.301   4.532  -2.158  0.00  0.00    +0.000 A 
ENDBRANCH  19  20
BRANCH  19  28
ATOM     28  C   LIG    1        1.167   2.094  -0.005  0.00  0.00    -0.110 A 
ATOM     29  C   LIG    1       -0.021   1.387   0.002  0.00  0.00    +0.010 A 
ATOM     30  C   LIG    1       -0.003   0.005  -0.007  0.00  0.00    +0.010 A 
ATOM     31  C   LIG    1        1.204  -0.670  -0.024  0.00  0.00    +0.000 A 
ATOM     32  C   LIG    1        2.392   0.036  -0.031  0.00  0.00    +0.010 A 
ATOM     33  C   LIG    1        2.373   1.419  -0.022  0.00  0.00    +0.010 A 
ENDBRANCH  19  28
ENDBRANCH   1  19
TORSDOF 7
