REMARK  Name = ZINCzw0000000b1D.1
REMARK                            x       y       z     vdW  Elec       q    Type
REMARK                         _______ _______ _______ _____ _____    ______ ____
ROOT
ATOM      1  C   LIG    1       -5.946   0.402   2.072  0.00  0.00    +0.170 C 
ATOM      2  C   LIG    1       -6.813   1.182   3.092  0.00  0.00    +0.330 C 
ATOM      3  N   LIG    1       -8.198   0.875   2.666  0.00  0.00    -0.630 N 
ATOM      4  C   LIG    1       -8.180   0.886   1.192  0.00  0.00    +0.280 C 
ATOM      5  C   LIG    1       -9.258   0.636   3.464  0.00  0.00    +0.730 C 
ATOM      6  N   LIG    1      -10.463   0.370   2.921  0.00  0.00    -0.670 N 
ATOM      7  H   LIG    1      -10.554   0.287   1.959  0.00  0.00    +0.410 HD
ATOM      8  O   LIG    1       -9.127   0.660   4.672  0.00  0.00    -0.550 OA
ATOM      9  C   LIG    1       -6.740   0.561   0.754  0.00  0.00    +0.010 C 
ATOM     10  C   LIG    1       -6.165   1.710  -0.077  0.00  0.00    +0.050 C 
ENDROOT
BRANCH   1  16
ATOM     11  C   LIG    1        0.240   0.098   1.182  0.00  0.00    +0.120 C 
ATOM     12  C   LIG    1       -0.549   0.729   2.299  0.00  0.00    +0.520 C 
ATOM     13  N   LIG    1       -1.823   1.115   2.090  0.00  0.00    -0.640 N 
ATOM     14  C   LIG    1       -2.462   0.936   0.777  0.00  0.00    +0.320 C 
ATOM     15  C   LIG    1       -3.813   0.236   0.990  0.00  0.00    +0.260 C 
ATOM     16  N   LIG    1       -4.613   1.006   1.952  0.00  0.00    -0.380 N 
ATOM     17  C   LIG    1       -3.956   1.001   3.265  0.00  0.00    +0.270 C 
ATOM     18  H   LIG    1       -4.705   1.956   1.627  0.00  0.00    +0.420 HD
ATOM     19  C   LIG    1       -2.613   1.733   3.166  0.00  0.00    +0.330 C 
ATOM     20  O   LIG    1       -0.038   0.890   3.387  0.00  0.00    -0.510 OA
ENDBRANCH   1  16
BRANCH   6  21
ATOM     21  C   LIG    1      -11.578   0.214   3.743  0.00  0.00    +0.180 A 
ATOM     22  C   LIG    1      -11.443  -0.390   4.990  0.00  0.00    +0.010 A 
ATOM     23  C   LIG    1      -12.541  -0.540   5.806  0.00  0.00    +0.060 A 
ATOM     24  C   LIG    1      -13.795  -0.095   5.377  0.00  0.00    -0.140 A 
ATOM     25  C   LIG    1      -13.928   0.505   4.122  0.00  0.00    +0.110 A 
ATOM     26  C   LIG    1      -12.825   0.658   3.313  0.00  0.00    -0.020 A 
BRANCH  24  27
ATOM     27  C   LIG    1      -14.976  -0.260   6.247  0.00  0.00    +0.560 C 
ATOM     28  N   LIG    1      -14.846  -0.840   7.457  0.00  0.00    -0.730 N 
ATOM     29  H   LIG    1      -13.976  -1.149   7.755  0.00  0.00    +0.400 HD
ATOM     30  O   LIG    1      -16.066   0.128   5.872  0.00  0.00    -0.530 OA
BRANCH  28  31
ATOM     31  C   LIG    1      -16.018  -1.003   8.321  0.00  0.00    +0.260 C 
BRANCH  31  32
ATOM     32  C   LIG    1      -15.599  -1.683   9.625  0.00  0.00    +0.070 C 
BRANCH  32  33
ATOM     33  C   LIG    1      -16.804  -1.851  10.514  0.00  0.00    -0.090 A 
ATOM     34  C   LIG    1      -17.142  -0.859  11.416  0.00  0.00    +0.010 A 
ATOM     35  C   LIG    1      -18.250  -1.011  12.228  0.00  0.00    +0.000 A 
ATOM     36  C   LIG    1      -19.015  -2.159  12.145  0.00  0.00    +0.000 A 
ATOM     37  C   LIG    1      -18.675  -3.153  11.246  0.00  0.00    +0.000 A 
ATOM     38  C   LIG    1      -17.569  -2.999  10.431  0.00  0.00    +0.010 A 
ENDBRANCH  32  33
ENDBRANCH  31  32
ENDBRANCH  28  31
ENDBRANCH  24  27
ENDBRANCH   6  21
TORSDOF 6
