REMARK  Name = ZINCrD00000F5Lq3.0
REMARK                            x       y       z     vdW  Elec       q    Type
REMARK                         _______ _______ _______ _____ _____    ______ ____
ROOT
ATOM      1  N   LIG    1        2.030  -2.024   0.413  0.00  0.00    -0.590 N 
ENDROOT
BRANCH   1   2
ATOM      2  C   LIG    1        3.301  -1.698   0.862  0.00  0.00    +0.470 A 
ATOM      3  C   LIG    1        4.075  -0.764   0.175  0.00  0.00    -0.160 A 
ATOM      4  C   LIG    1        5.342  -0.473   0.665  0.00  0.00    +0.430 A 
ATOM      5  N   LIG    1        5.768  -1.090   1.764  0.00  0.00    -0.570 NA
ATOM      6  C   LIG    1        5.007  -1.967   2.386  0.00  0.00    +0.580 A 
ATOM      7  N   LIG    1        3.798  -2.268   1.957  0.00  0.00    -0.570 NA
BRANCH   4   8
ATOM      8  N   LIG    1        6.156   0.455   0.013  0.00  0.00    -0.410 N 
ATOM      9  C   LIG    1        7.476   0.715   0.285  0.00  0.00    +0.170 A 
ATOM     10  C   LIG    1        7.870   1.672  -0.576  0.00  0.00    +0.150 A 
ATOM     11  N   LIG    1        6.823   1.997  -1.349  0.00  0.00    -0.470 NA
ATOM     12  C   LIG    1        5.791   1.276  -1.007  0.00  0.00    +0.410 A 
ENDBRANCH   4   8
ENDBRANCH   1   2
BRANCH   1  13
ATOM     13  C   LIG    1        1.371  -3.238   0.900  0.00  0.00    +0.310 C 
BRANCH  13  14
ATOM     14  C   LIG    1        1.718  -4.410  -0.019  0.00  0.00    +0.000 C 
BRANCH  14  15
ATOM     15  C   LIG    1        1.135  -5.702   0.559  0.00  0.00    +0.090 C 
ATOM     16  C   LIG    1        1.990  -6.316   1.679  0.00  0.00    +0.050 C 
ATOM     17  C   LIG    1        1.672  -7.688   1.063  0.00  0.00    +0.010 C 
ATOM     18  C   LIG    1        1.465  -6.953  -0.272  0.00  0.00    +0.000 C 
BRANCH  15  20
ATOM     19  C   LIG    1       -1.101  -5.359  -0.233  0.00  0.00    +0.200 C 
ATOM     20  O   LIG    1       -0.250  -5.585   0.892  0.00  0.00    -0.360 OA
ENDBRANCH  15  20
ENDBRANCH  14  15
ENDBRANCH  13  14
ENDBRANCH   1  13
BRANCH   1  21
ATOM     21  C   LIG    1        1.347  -1.154  -0.547  0.00  0.00    +0.390 C 
BRANCH  21  22
ATOM     22  C   LIG    1        0.355  -0.283   0.180  0.00  0.00    -0.190 A 
ATOM     23  C   LIG    1       -0.956  -0.595   0.273  0.00  0.00    -0.010 A 
ATOM     24  S   LIG    1       -1.669   0.681   1.181  0.00  0.00    +0.270 S 
ATOM     25  N   LIG    1       -0.232   1.557   1.397  0.00  0.00    -0.460 NA
ATOM     26  C   LIG    1        0.715   0.892   0.802  0.00  0.00    +0.130 A 
ATOM     27  C   LIG    1        2.139   1.386   0.793  0.00  0.00    +0.150 C 
ENDBRANCH  21  22
ENDBRANCH   1  21
TORSDOF 8
