REMARK  Name = ZINCqH0000051m55.0
REMARK                            x       y       z     vdW  Elec       q    Type
REMARK                         _______ _______ _______ _____ _____    ______ ____
ROOT
ATOM      1  O   LIG    1        0.648   4.117   0.018  0.00  0.00    -0.510 OA
ATOM      2  C   LIG    1        1.584   3.338   0.005  0.00  0.00    +0.590 C 
ATOM      3  N   LIG    1        1.356   2.010  -0.000  0.00  0.00    -0.720 N 
ATOM      4  H   LIG    1        2.102   1.390  -0.011  0.00  0.00    +0.400 HD
ENDROOT
BRANCH   2   5
ATOM      5  C   LIG    1        2.955   3.844  -0.005  0.00  0.00    -0.290 A 
ATOM      6  C   LIG    1        3.316   5.169  -0.002  0.00  0.00    +0.200 A 
ATOM      7  C   LIG    1        4.684   5.356  -0.013  0.00  0.00    +0.010 A 
ATOM      8  C   LIG    1        5.409   4.235  -0.025  0.00  0.00    -0.030 A 
ATOM      9  S   LIG    1        4.408   2.854  -0.017  0.00  0.00    +0.240 S 
BRANCH   6  10
ATOM     10  N   LIG    1        2.393   6.220   0.012  0.00  0.00    -0.390 N 
ATOM     11  C   LIG    1        1.327   6.356  -0.831  0.00  0.00    +0.210 A 
ATOM     12  C   LIG    1        0.674   7.490  -0.506  0.00  0.00    -0.070 A 
ATOM     13  C   LIG    1        1.365   8.082   0.571  0.00  0.00    -0.040 A 
ATOM     14  C   LIG    1        2.411   7.285   0.868  0.00  0.00    +0.140 A 
ENDBRANCH   6  10
ENDBRANCH   2   5
BRANCH   3  15
ATOM     15  C   LIG    1       -0.018   1.503   0.010  0.00  0.00    +0.320 C 
BRANCH  15  16
ATOM     16  C   LIG    1        0.002  -0.004   0.002  0.00  0.00    -0.100 A 
ATOM     17  C   LIG    1       -0.006  -0.689  -1.199  0.00  0.00    +0.030 A 
ATOM     18  C   LIG    1        0.018  -2.071  -1.206  0.00  0.00    +0.030 A 
ATOM     19  C   LIG    1        0.039  -2.768  -0.013  0.00  0.00    -0.110 A 
ATOM     20  C   LIG    1        0.041  -2.084   1.188  0.00  0.00    +0.030 A 
ATOM     21  C   LIG    1        0.023  -0.702   1.195  0.00  0.00    +0.030 A 
BRANCH  19  22
ATOM     22  C   LIG    1        0.058  -4.275  -0.021  0.00  0.00    +0.350 C 
BRANCH  22  23
ATOM     23  N   LIG    1       -1.317  -4.782  -0.011  0.00  0.00    -0.460 N 
ATOM     24  C   LIG    1       -2.089  -5.056  -1.107  0.00  0.00    +0.110 A 
ATOM     25  C   LIG    1       -3.276  -5.497  -0.647  0.00  0.00    +0.140 A 
ATOM     26  N   LIG    1       -3.228  -5.492   0.694  0.00  0.00    -0.490 NA
ATOM     27  C   LIG    1       -2.056  -5.070   1.081  0.00  0.00    +0.380 A 
ENDBRANCH  22  23
ENDBRANCH  19  22
ENDBRANCH  15  16
ENDBRANCH   3  15
TORSDOF 6
