REMARK  Name = ZINCrD0000075UeZ.0
REMARK                            x       y       z     vdW  Elec       q    Type
REMARK                         _______ _______ _______ _____ _____    ______ ____
ROOT
ATOM      1  C   LIG    1       -2.520  -2.934  -1.476  0.00  0.00    -0.120 A 
ATOM      2  C   LIG    1       -3.031  -1.633  -1.464  0.00  0.00    +0.110 A 
ATOM      3  C   LIG    1       -2.251  -0.588  -1.023  0.00  0.00    +0.030 A 
ATOM      4  C   LIG    1       -0.953  -0.823  -0.588  0.00  0.00    +0.120 A 
ATOM      5  C   LIG    1       -0.436  -2.123  -0.597  0.00  0.00    +0.080 A 
ATOM      6  N   LIG    1        0.868  -2.040  -0.112  0.00  0.00    -0.640 N 
ATOM      7  H   LIG    1        1.482  -2.783  -0.001  0.00  0.00    +0.440 HD
ATOM      8  C   LIG    1        1.130  -0.750   0.173  0.00  0.00    +0.680 A 
ATOM      9  O   LIG    1        2.184  -0.331   0.613  0.00  0.00    -0.550 OA
ATOM     10  N   LIG    1        0.049   0.004  -0.099  0.00  0.00    -0.530 N 
ATOM     11  C   LIG    1       -1.216  -3.175  -1.039  0.00  0.00    +0.060 A 
ENDROOT
BRANCH   1  13
ATOM     12  O   LIG    1       -4.448  -3.830  -2.443  0.00  0.00    -0.530 OA
ATOM     13  C   LIG    1       -3.359  -4.053  -1.949  0.00  0.00    +0.590 C 
ATOM     14  N   LIG    1       -2.918  -5.322  -1.834  0.00  0.00    -0.640 N 
ATOM     15  C   LIG    1       -1.750  -5.985  -1.232  0.00  0.00    +0.280 C 
ATOM     16  C   LIG    1       -2.615  -7.237  -1.087  0.00  0.00    -0.100 C 
ATOM     17  C   LIG    1       -1.905  -8.569  -1.355  0.00  0.00    +0.040 C 
ATOM     18  C   LIG    1       -1.794  -9.221   0.048  0.00  0.00    +0.020 C 
ATOM     19  C   LIG    1       -3.128  -8.817   0.724  0.00  0.00    +0.010 C 
ATOM     20  C   LIG    1       -3.387  -7.378   0.225  0.00  0.00    +0.040 C 
ATOM     21  C   LIG    1       -3.391  -6.649  -2.262  0.00  0.00    +0.290 C 
ENDBRANCH   1  13
BRANCH  10  22
ATOM     22  C   LIG    1       -0.051   1.454   0.083  0.00  0.00    +0.380 C 
BRANCH  22  23
ATOM     23  C   LIG    1       -0.565   1.752   1.468  0.00  0.00    -0.120 A 
ATOM     24  C   LIG    1       -1.925   1.868   1.690  0.00  0.00    +0.020 A 
ATOM     25  C   LIG    1       -2.397   2.136   2.962  0.00  0.00    +0.010 A 
ATOM     26  C   LIG    1       -1.509   2.299   4.009  0.00  0.00    +0.010 A 
ATOM     27  C   LIG    1       -0.149   2.187   3.786  0.00  0.00    +0.000 A 
ATOM     28  C   LIG    1        0.323   1.914   2.515  0.00  0.00    +0.040 A 
ENDBRANCH  22  23
ENDBRANCH  10  22
TORSDOF 3
