REMARK  Name = ZINCpk000000jsgH.0
REMARK                            x       y       z     vdW  Elec       q    Type
REMARK                         _______ _______ _______ _____ _____    ______ ____
ROOT
ATOM      1  N   LIG    1        3.400   0.733   1.672  0.00  0.00    -0.970 NA
ENDROOT
BRANCH   1   2
ATOM      2  S   LIG    1        3.135   1.611   0.293  0.00  0.00    +2.700 S 
ATOM      3  O   LIG    1        4.130   2.626   0.267  0.00  0.00    -0.950 OA
ATOM      4  O   LIG    1        2.959   0.668  -0.756  0.00  0.00    -0.940 OA
BRANCH   2  14
ATOM      5  C   LIG    1        0.476   0.193   0.513  0.00  0.00    +0.120 C 
ATOM      6  C   LIG    1        0.423   1.698   0.579  0.00  0.00    +0.060 A 
ATOM      7  C   LIG    1       -0.793   2.339   0.726  0.00  0.00    +0.020 A 
ATOM      8  C   LIG    1       -0.844   3.722   0.793  0.00  0.00    +0.100 A 
ATOM      9  C   LIG    1        0.331   4.464   0.700  0.00  0.00    +0.000 A 
ATOM     10  O   LIG    1        0.018   5.790   0.784  0.00  0.00    -0.300 OA
ATOM     11  C   LIG    1       -1.395   5.869   0.519  0.00  0.00    +0.440 C 
ATOM     12  C   LIG    1        1.546   3.814   0.547  0.00  0.00    +0.150 A 
ATOM     13  O   LIG    1       -1.893   4.583   0.936  0.00  0.00    -0.300 OA
ATOM     14  C   LIG    1        1.589   2.434   0.487  0.00  0.00    -0.670 A 
ENDBRANCH   2  14
ENDBRANCH   1   2
BRANCH   1  15
ATOM     15  C   LIG    1        3.084  -0.698   1.701  0.00  0.00    +0.350 C 
BRANCH  15  16
ATOM     16  C   LIG    1        4.340  -1.494   1.460  0.00  0.00    -0.110 A 
ATOM     17  C   LIG    1        4.702  -1.842   0.172  0.00  0.00    +0.040 A 
ATOM     18  C   LIG    1        5.857  -2.568  -0.049  0.00  0.00    +0.000 A 
ATOM     19  C   LIG    1        6.645  -2.956   1.018  0.00  0.00    +0.010 A 
ATOM     20  C   LIG    1        6.280  -2.613   2.307  0.00  0.00    +0.000 A 
ATOM     21  C   LIG    1        5.128  -1.882   2.528  0.00  0.00    +0.010 A 
ENDBRANCH  15  16
ENDBRANCH   1  15
BRANCH   1  22
ATOM     22  C   LIG    1        3.949   1.386   2.862  0.00  0.00    +0.330 C 
BRANCH  22  23
ATOM     23  C   LIG    1        2.823   1.801   3.773  0.00  0.00    +0.490 C 
ATOM     24  O   LIG    1        1.674   1.573   3.459  0.00  0.00    -0.520 OA
ATOM     25  N   LIG    1        3.092   2.425   4.937  0.00  0.00    -0.850 N 
ATOM     26  H   LIG    1        2.367   2.691   5.523  0.00  0.00    +0.400 HD
ATOM     27  H   LIG    1        4.011   2.607   5.188  0.00  0.00    +0.400 HD
ENDBRANCH  22  23
ENDBRANCH   1  22
TORSDOF 6
