REMARK  Name = ZINCnE000001TDVz.0
REMARK                            x       y       z     vdW  Elec       q    Type
REMARK                         _______ _______ _______ _____ _____    ______ ____
ROOT
ATOM      1  CA  LIG    1       -0.672  -0.734   0.995  0.00  0.00    +0.100 A 
ATOM      2  N   LIG    1       -0.638  -2.062   0.992  0.00  0.00    -0.400 NA
ATOM      3  C   LIG    1        0.005  -2.735   0.065  0.00  0.00    +0.020 A 
ATOM      4  C   LIG    1        0.682  -2.083  -0.958  0.00  0.00    +0.010 A 
ATOM      5  C   LIG    1        0.675  -0.702  -1.007  0.00  0.00    +0.060 A 
ATOM      6  C   LIG    1       -0.011  -0.004  -0.007  0.00  0.00    -0.040 A 
ENDROOT
BRANCH   6   7
ATOM      7  C   LIG    1       -0.045   1.476  -0.008  0.00  0.00    -0.100 A 
ATOM      8  C   LIG    1        1.145   2.214   0.001  0.00  0.00    +0.110 A 
ATOM      9  C   LIG    1        1.062   3.593  -0.001  0.00  0.00    -0.060 A 
ATOM     10  C   LIG    1       -0.189   4.198  -0.011  0.00  0.00    +0.320 A 
ATOM     11  N   LIG    1       -1.296   3.472  -0.020  0.00  0.00    -0.540 NA
ATOM     12  C   LIG    1       -1.262   2.155  -0.025  0.00  0.00    +0.360 A 
BRANCH  10  13
ATOM     13  O   LIG    1       -0.277   5.551  -0.013  0.00  0.00    -0.280 OA
BRANCH  13  14
ATOM     14  C   LIG    1       -1.590   6.116  -0.024  0.00  0.00    +0.160 C 
ATOM     15  C   LIG    1       -1.814   7.367  -0.875  0.00  0.00    +0.010 C 
ATOM     16  C   LIG    1       -1.780   7.476   0.651  0.00  0.00    +0.020 C 
ENDBRANCH  13  14
ENDBRANCH  10  13
ENDBRANCH   6   7
BRANCH   3  17
ATOM     17  C   LIG    1        0.008  -4.241   0.112  0.00  0.00    +0.520 C 
ATOM     18  F   LIG    1        1.311  -4.698   0.335  0.00  0.00    -0.180 F 
ATOM     19  F   LIG    1       -0.461  -4.746  -1.105  0.00  0.00    -0.180 F 
ATOM     20  F   LIG    1       -0.823  -4.677   1.149  0.00  0.00    -0.160 F 
ENDBRANCH   3  17
BRANCH   1  22
ATOM     21  O   LIG    1       -2.339  -0.570   2.631  0.00  0.00    -0.650 OA
ATOM     22  C   LIG    1       -1.408  -0.022   2.058  0.00  0.00    +0.530 C 
ATOM     23  OXT LIG    1       -1.087   1.118   2.366  0.00  0.00    -0.660 OA
ENDBRANCH   1  22
TORSDOF 5
