REMARK  Name = ZINCkj00000y7Bzs.2
REMARK                            x       y       z     vdW  Elec       q    Type
REMARK                         _______ _______ _______ _____ _____    ______ ____
ROOT
ATOM      1  N   LIG    1        4.553   2.117  -5.316  0.00  0.00    -0.500 N 
ATOM      2  H   LIG    1        4.663   3.120  -5.335  0.00  0.00    +0.420 HD
ATOM      3  H   LIG    1        3.925   1.834  -6.053  0.00  0.00    +0.430 HD
ENDROOT
BRANCH   1   4
ATOM      4  C   LIG    1        5.860   1.477  -5.513  0.00  0.00    +0.190 C 
ATOM      5  C   LIG    1        7.017   2.211  -4.886  0.00  0.00    -0.060 C 
ATOM      6  C   LIG    1        7.906   1.704  -3.753  0.00  0.00    +0.040 C 
ATOM      7  C   LIG    1        9.311   1.887  -4.409  0.00  0.00    +0.230 C 
ATOM      8  O   LIG    1        9.080   1.881  -5.846  0.00  0.00    -0.350 OA
ATOM      9  C   LIG    1        7.777   1.437  -6.041  0.00  0.00    +0.150 C 
ATOM     10  C   LIG    1        6.599   1.900  -6.827  0.00  0.00    -0.050 C 
ATOM     11  C   LIG    1        6.576   3.403  -7.113  0.00  0.00    +0.080 C 
ATOM     12  C   LIG    1        6.270   1.040  -8.048  0.00  0.00    +0.070 C 
ENDBRANCH   1   4
BRANCH   1  13
ATOM     13  C   LIG    1        3.999   1.711  -4.018  0.00  0.00    +0.270 C 
BRANCH  13  17
ATOM     14  N   LIG    1        0.836   1.311  -2.583  0.00  0.00    -0.500 NA
ATOM     15  C   LIG    1        0.315   1.703  -3.918  0.00  0.00    +0.170 C 
ATOM     16  C   LIG    1        1.595   1.785  -4.787  0.00  0.00    +0.030 C 
ATOM     17  C   LIG    1        2.638   2.378  -3.812  0.00  0.00    -0.030 C 
ATOM     18  C   LIG    1        2.096   2.065  -2.405  0.00  0.00    +0.190 C 
BRANCH  14  19
ATOM     19  C   LIG    1       -0.128   1.640  -1.524  0.00  0.00    +0.200 C 
BRANCH  19  20
ATOM     20  C   LIG    1       -1.493   1.043  -1.874  0.00  0.00    +0.170 C 
BRANCH  20  22
ATOM     21  C   LIG    1       -2.630  -1.043  -2.189  0.00  0.00    +0.200 C 
ATOM     22  O   LIG    1       -1.403  -0.383  -1.873  0.00  0.00    -0.380 OA
ENDBRANCH  20  22
ENDBRANCH  19  20
ENDBRANCH  14  19
ENDBRANCH  13  17
ENDBRANCH   1  13
TORSDOF 6
