REMARK  Name = ZINCpk000000o87l.0
REMARK                            x       y       z     vdW  Elec       q    Type
REMARK                         _______ _______ _______ _____ _____    ______ ____
ROOT
ATOM      1  C   LIG    1        1.219   2.098  -0.021  0.00  0.00    +0.220 C 
ATOM      2  C   LIG    1        1.730   2.240   1.415  0.00  0.00    +0.020 C 
ATOM      3  C   LIG    1        3.063   2.991   1.412  0.00  0.00    +0.030 C 
ATOM      4  C   LIG    1        2.853   4.393   0.832  0.00  0.00    +0.270 C 
ATOM      5  N   LIG    1        2.228   4.269  -0.491  0.00  0.00    -0.600 N 
ATOM      6  C   LIG    1        2.780   4.860  -1.570  0.00  0.00    +0.510 C 
ATOM      7  O   LIG    1        2.254   4.750  -2.657  0.00  0.00    -0.510 OA
ATOM      8  C   LIG    1        0.989   3.490  -0.617  0.00  0.00    +0.290 C 
ENDROOT
BRANCH   6   9
ATOM      9  C   LIG    1        4.051   5.656  -1.425  0.00  0.00    +0.230 C 
ATOM     10  C   LIG    1        3.735   7.081  -0.943  0.00  0.00    +0.140 C 
ATOM     11  C   LIG    1        4.243   7.979  -2.049  0.00  0.00    -0.140 A 
ATOM     12  C   LIG    1        4.235   9.354  -2.176  0.00  0.00    +0.050 A 
ATOM     13  C   LIG    1        4.770   9.951  -3.302  0.00  0.00    -0.010 A 
ATOM     14  C   LIG    1        5.312   9.168  -4.304  0.00  0.00    +0.040 A 
ATOM     15  C   LIG    1        5.322   7.794  -4.183  0.00  0.00    +0.010 A 
ATOM     16  C   LIG    1        4.785   7.184  -3.048  0.00  0.00    +0.150 A 
ATOM     17  N   LIG    1        4.696   5.825  -2.730  0.00  0.00    -0.540 N 
ATOM     18  C   LIG    1        5.140   4.819  -3.509  0.00  0.00    +0.530 C 
ATOM     19  O   LIG    1        5.574   5.056  -4.616  0.00  0.00    -0.510 OA
ATOM     20  C   LIG    1        5.096   3.400  -3.004  0.00  0.00    +0.100 C 
ENDBRANCH   6   9
BRANCH   1  22
ATOM     21  C   LIG    1       -0.026   0.004  -0.030  0.00  0.00    +0.510 C 
ATOM     22  N   LIG    1       -0.041   1.351  -0.020  0.00  0.00    -0.730 N 
ATOM     23  H   LIG    1       -0.887   1.827  -0.017  0.00  0.00    +0.400 HD
ATOM     24  O   LIG    1        1.031  -0.591  -0.039  0.00  0.00    -0.530 OA
BRANCH  21  26
ATOM     25  C   LIG    1       -1.027  -2.265  -0.041  0.00  0.00    +0.040 C 
ATOM     26  C   LIG    1       -1.323  -0.764  -0.029  0.00  0.00    +0.040 C 
ENDBRANCH  21  26
ENDBRANCH   1  22
TORSDOF 3
