REMARK  Name = ZINCpe000000T6WW.0
REMARK                            x       y       z     vdW  Elec       q    Type
REMARK                         _______ _______ _______ _____ _____    ______ ____
ROOT
ATOM      1  C   LIG    1       -0.014   1.209   0.009  0.00  0.00    +0.490 C 
ATOM      2  N   LIG    1        1.143   1.898   0.001  0.00  0.00    -0.730 N 
ATOM      3  H   LIG    1        1.130   2.868   0.007  0.00  0.00    +0.400 HD
ATOM      4  O   LIG    1        0.002  -0.004   0.002  0.00  0.00    -0.510 OA
ENDROOT
BRANCH   1   5
ATOM      5  C   LIG    1       -1.330   1.944   0.019  0.00  0.00    +0.370 C 
BRANCH   5  15
ATOM      6  C   LIG    1       -3.767   1.510  -1.988  0.00  0.00    +0.090 C 
ATOM      7  C   LIG    1       -3.101   0.407  -1.162  0.00  0.00    +0.120 C 
ATOM      8  C   LIG    1       -4.142  -0.520  -0.568  0.00  0.00    +0.540 C 
ATOM      9  N   LIG    1       -4.005  -0.413   0.769  0.00  0.00    -0.680 N 
ATOM     10  H   LIG    1       -4.548  -0.894   1.413  0.00  0.00    +0.430 HD
ATOM     11  C   LIG    1       -3.029   0.441   1.098  0.00  0.00    +0.710 C 
ATOM     12  O   LIG    1       -2.718   0.703   2.243  0.00  0.00    -0.530 OA
ATOM     13  O   LIG    1       -4.936  -1.211  -1.169  0.00  0.00    -0.460 OA
ATOM     14  C   LIG    1       -2.107  -0.381  -2.018  0.00  0.00    +0.090 C 
ATOM     15  N   LIG    1       -2.430   0.977   0.019  0.00  0.00    -0.600 N 
ENDBRANCH   5  15
ENDBRANCH   1   5
BRANCH   2  16
ATOM     16  C   LIG    1        2.422   1.183  -0.015  0.00  0.00    +0.330 C 
BRANCH  16  17
ATOM     17  C   LIG    1        3.554   2.178  -0.020  0.00  0.00    -0.110 A 
ATOM     18  C   LIG    1        4.203   2.480  -1.201  0.00  0.00    +0.060 A 
ATOM     19  C   LIG    1        5.238   3.397  -1.208  0.00  0.00    +0.030 A 
ATOM     20  C   LIG    1        5.634   4.006  -0.031  0.00  0.00    +0.050 A 
ATOM     21  C   LIG    1        4.992   3.703   1.154  0.00  0.00    +0.010 A 
ATOM     22  C   LIG    1        3.950   2.787   1.163  0.00  0.00    +0.130 A 
BRANCH  22  23
ATOM     23  N   LIG    1        3.296   2.478   2.365  0.00  0.00    -0.420 N 
ATOM     24  C   LIG    1        3.891   2.122   3.548  0.00  0.00    +0.130 A 
ATOM     25  C   LIG    1        2.900   1.915   4.436  0.00  0.00    +0.150 A 
ATOM     26  N   LIG    1        1.731   2.137   3.817  0.00  0.00    -0.480 NA
ATOM     27  C   LIG    1        1.955   2.480   2.578  0.00  0.00    +0.390 A 
ENDBRANCH  22  23
ENDBRANCH  16  17
ENDBRANCH   2  16
TORSDOF 5
