REMARK  Name = ZINCah0000001Ch0.0
REMARK                            x       y       z     vdW  Elec       q    Type
REMARK                         _______ _______ _______ _____ _____    ______ ____
ROOT
ATOM      1  S   LIG    1        1.556  -2.279  -0.025  0.00  0.00    +2.730 S 
ATOM      2  O   LIG    1        0.412  -2.915   0.527  0.00  0.00    -0.950 OA
ATOM      3  O   LIG    1        2.865  -2.436   0.506  0.00  0.00    -0.950 OA
ENDROOT
BRANCH   1   4
ATOM      4  C   LIG    1        1.219  -0.550  -0.013  0.00  0.00    -0.790 A 
ATOM      5  C   LIG    1        0.002  -0.004   0.002  0.00  0.00    +0.190 A 
ATOM      6  C   LIG    1       -0.017   1.380   0.010  0.00  0.00    +0.040 A 
ATOM      7  C   LIG    1        1.186   1.959   0.001  0.00  0.00    -0.170 A 
ATOM      8 BR   LIG    1        1.500   3.823   0.008  0.00  0.00    +0.030 Br
ATOM      9  S   LIG    1        2.435   0.721  -0.017  0.00  0.00    +0.290 S 
ENDBRANCH   1   4
BRANCH   1  10
ATOM     10  N   LIG    1        1.635  -2.752  -1.610  0.00  0.00    -1.250 NA
ATOM     11  H   LIG    1        1.814  -3.679  -1.831  0.00  0.00    +0.420 HD
ATOM     12  H   LIG    1        1.502  -2.101  -2.317  0.00  0.00    +0.420 HD
ENDBRANCH   1  10
TORSDOF 2
