REMARK  Name = ZINCrD00000hQ6DX.0
REMARK                            x       y       z     vdW  Elec       q    Type
REMARK                         _______ _______ _______ _____ _____    ______ ____
ROOT
ATOM      1  C   LIG    1       -0.046   1.482   0.021  0.00  0.00    +0.280 C 
ENDROOT
BRANCH   1   2
ATOM      2  C   LIG    1        0.029  -0.018   0.146  0.00  0.00    -0.100 A 
ATOM      3  C   LIG    1       -0.906  -0.790  -0.474  0.00  0.00    +0.050 A 
ATOM      4  C   LIG    1       -0.836  -2.189  -0.364  0.00  0.00    -0.050 A 
ATOM      5  C   LIG    1       -1.779  -3.018  -0.994  0.00  0.00    +0.030 A 
ATOM      6  C   LIG    1       -1.683  -4.370  -0.861  0.00  0.00    +0.000 A 
ATOM      7  C   LIG    1       -0.662  -4.946  -0.108  0.00  0.00    +0.010 A 
ATOM      8  C   LIG    1        0.270  -4.174   0.516  0.00  0.00    +0.020 A 
ATOM      9  C   LIG    1        0.203  -2.775   0.402  0.00  0.00    -0.050 A 
ATOM     10  C   LIG    1        1.146  -1.945   1.032  0.00  0.00    +0.030 A 
ATOM     11  C   LIG    1        1.050  -0.594   0.899  0.00  0.00    +0.020 A 
ENDBRANCH   1   2
BRANCH   1  12
ATOM     12  N   LIG    1        1.305   2.027  -0.135  0.00  0.00    -0.730 N 
ATOM     13  H   LIG    1        1.770   2.396   0.631  0.00  0.00    +0.400 HD
ATOM     14  C   LIG    1        1.900   2.014  -1.344  0.00  0.00    +0.520 C 
ATOM     15  O   LIG    1        1.287   1.634  -2.319  0.00  0.00    -0.510 OA
BRANCH  14  16
ATOM     16  C   LIG    1        3.329   2.473  -1.485  0.00  0.00    +0.070 C 
BRANCH  16  17
ATOM     17  C   LIG    1        3.760   2.359  -2.949  0.00  0.00    +0.180 C 
ATOM     18  C   LIG    1        5.166   2.941  -3.114  0.00  0.00    -0.010 C 
ATOM     19  C   LIG    1        5.614   2.769  -4.569  0.00  0.00    +0.010 C 
ATOM     20  C   LIG    1        5.551   1.284  -4.939  0.00  0.00    -0.020 C 
ATOM     21  C   LIG    1        4.130   0.767  -4.703  0.00  0.00    +0.200 C 
ATOM     22  O   LIG    1        3.765   0.985  -3.339  0.00  0.00    -0.370 OA
ENDBRANCH  16  17
ENDBRANCH  14  16
ENDBRANCH   1  12
BRANCH   1  23
ATOM     23  C   LIG    1       -0.690   2.067   1.280  0.00  0.00    +0.290 C 
BRANCH  23  26
ATOM     24  O   LIG    1       -1.837   3.710   3.083  0.00  0.00    -0.510 OA
ATOM     25  C   LIG    1       -1.279   4.262   2.158  0.00  0.00    +0.500 C 
ATOM     26  N   LIG    1       -0.674   3.530   1.202  0.00  0.00    -0.730 N 
ATOM     27  H   LIG    1       -0.228   3.971   0.462  0.00  0.00    +0.400 HD
BRANCH  25  28
ATOM     28  C   LIG    1       -1.262   5.767   2.077  0.00  0.00    +0.170 C 
ATOM     29 CL   LIG    1       -2.148   6.454   3.490  0.00  0.00    -0.130 Cl
ENDBRANCH  25  28
ENDBRANCH  23  26
ENDBRANCH   1  23
TORSDOF 7
