REMARK  Name = ZINCrD000000AquS.0
REMARK                            x       y       z     vdW  Elec       q    Type
REMARK                         _______ _______ _______ _____ _____    ______ ____
ROOT
ATOM      1  O   LIG    1        4.762   1.250  -0.139  0.00  0.00    -0.490 OA
ATOM      2  C   LIG    1        4.776   0.037  -0.144  0.00  0.00    +0.520 C 
ATOM      3  N   LIG    1        3.622  -0.651  -0.035  0.00  0.00    -0.670 N 
ATOM      4  H   LIG    1        3.638  -1.619   0.027  0.00  0.00    +0.420 HD
ENDROOT
BRANCH   3   5
ATOM      5  C   LIG    1        2.400   0.032  -0.013  0.00  0.00    +0.150 A 
ATOM      6  C   LIG    1        2.308   1.272   0.605  0.00  0.00    +0.080 A 
ATOM      7  C   LIG    1        1.101   1.944   0.626  0.00  0.00    +0.060 A 
ATOM      8  C   LIG    1       -0.016   1.381   0.033  0.00  0.00    -0.010 A 
ATOM      9  C   LIG    1        0.074   0.145  -0.583  0.00  0.00    -0.160 A 
ATOM     10 CL   LIG    1       -1.529   2.231   0.056  0.00  0.00    -0.040 Cl
ATOM     11  C   LIG    1        1.278  -0.530  -0.607  0.00  0.00    +0.070 A 
BRANCH   9  12
ATOM     12  C   LIG    1       -1.144  -0.465  -1.228  0.00  0.00    +0.510 C 
ATOM     13  F   LIG    1       -1.611   0.384  -2.238  0.00  0.00    -0.170 F 
ATOM     14  F   LIG    1       -2.145  -0.638  -0.266  0.00  0.00    -0.170 F 
ATOM     15  F   LIG    1       -0.808  -1.706  -1.780  0.00  0.00    -0.170 F 
ENDBRANCH   9  12
ENDBRANCH   3   5
BRANCH   2  16
ATOM     16  C   LIG    1        6.083  -0.701  -0.274  0.00  0.00    +0.240 C 
BRANCH  16  17
ATOM     17  O   LIG    1        7.154   0.240  -0.374  0.00  0.00    -0.280 OA
BRANCH  17  18
ATOM     18  C   LIG    1        8.410  -0.265  -0.497  0.00  0.00    +0.140 A 
ATOM     19  C   LIG    1        8.607  -1.638  -0.516  0.00  0.00    -0.040 A 
ATOM     20  C   LIG    1        9.882  -2.151  -0.647  0.00  0.00    +0.060 A 
ATOM     21  C   LIG    1       10.968  -1.293  -0.749  0.00  0.00    +0.090 A 
ATOM     22  C   LIG    1       10.771   0.081  -0.725  0.00  0.00    +0.090 A 
ATOM     23  C   LIG    1        9.495   0.593  -0.599  0.00  0.00    +0.030 A 
BRANCH  21  24
ATOM     24  N   LIG    1       12.265  -1.814  -0.876  0.00  0.00    -0.320 N 
ATOM     25  C   LIG    1       12.626  -3.115  -0.911  0.00  0.00    +0.460 A 
ATOM     26  N   LIG    1       13.927  -3.154  -1.041  0.00  0.00    -0.330 NA
ATOM     27  N   LIG    1       14.413  -1.966  -1.083  0.00  0.00    -0.030 NA
ATOM     28  N   LIG    1       13.467  -1.094  -0.989  0.00  0.00    -0.080 NA
ENDBRANCH  21  24
ENDBRANCH  17  18
ENDBRANCH  16  17
ENDBRANCH   2  16
TORSDOF 6
