REMARK  Name = ZINCnE000008IXCW.0
REMARK                            x       y       z     vdW  Elec       q    Type
REMARK                         _______ _______ _______ _____ _____    ______ ____
ROOT
ATOM      1  C   LIG    1        0.002  -0.004   0.002  0.00  0.00    +0.140 C 
ATOM      2  C   LIG    1       -0.697  -0.545   1.267  0.00  0.00    +0.080 C 
ATOM      3  C   LIG    1        0.181  -1.768   1.650  0.00  0.00    -0.030 C 
ATOM      4  C   LIG    1        1.595  -1.274   1.256  0.00  0.00    +0.270 C 
ATOM      5  N   LIG    1        1.391  -0.485   0.028  0.00  0.00    -0.590 N 
ATOM      6  C   LIG    1        2.323  -0.246  -0.916  0.00  0.00    +0.550 C 
ATOM      7  O   LIG    1        2.042   0.419  -1.891  0.00  0.00    -0.510 OA
ENDROOT
BRANCH   3   8
ATOM      8  C   LIG    1        0.099  -2.055   3.151  0.00  0.00    +0.460 C 
ATOM      9  F   LIG    1        1.006  -3.067   3.483  0.00  0.00    -0.190 F 
ATOM     10  F   LIG    1       -1.198  -2.467   3.476  0.00  0.00    -0.180 F 
ATOM     11  F   LIG    1        0.412  -0.894   3.865  0.00  0.00    -0.180 F 
ENDBRANCH   3   8
BRANCH   1  13
ATOM     12  O   LIG    1        1.029   2.127   0.004  0.00  0.00    -0.660 OA
ATOM     13  C   LIG    1       -0.018   1.503   0.010  0.00  0.00    +0.490 C 
ATOM     14  O   LIG    1       -1.082   2.098   0.019  0.00  0.00    -0.700 OA
ENDBRANCH   1  13
BRANCH   6  15
ATOM     15  C   LIG    1        3.714  -0.804  -0.760  0.00  0.00    +0.100 C 
BRANCH  15  16
ATOM     16  C   LIG    1        4.555  -0.395  -1.942  0.00  0.00    -0.040 A 
ATOM     17  C   LIG    1        4.612  -1.203  -3.064  0.00  0.00    -0.010 A 
ATOM     18  C   LIG    1        5.380  -0.824  -4.151  0.00  0.00    +0.030 A 
ATOM     19  C   LIG    1        6.099   0.355  -4.112  0.00  0.00    +0.040 A 
ATOM     20  C   LIG    1        6.046   1.161  -2.989  0.00  0.00    +0.030 A 
ATOM     21 CL   LIG    1        3.715  -2.689  -3.110  0.00  0.00    -0.060 Cl
ATOM     22  C   LIG    1        5.274   0.786  -1.904  0.00  0.00    -0.010 A 
ATOM     23 CL   LIG    1        5.209   1.797  -0.494  0.00  0.00    -0.040 Cl
ENDBRANCH  15  16
ENDBRANCH   6  15
TORSDOF 4
