REMARK  Name = ZINCrD0000072548.0
REMARK                            x       y       z     vdW  Elec       q    Type
REMARK                         _______ _______ _______ _____ _____    ______ ____
ROOT
ATOM      1  C   LIG    1       -1.363   3.100   0.409  0.00  0.00    +0.450 A 
ATOM      2  N   LIG    1       -0.334   3.793   0.872  0.00  0.00    -0.540 NA
ATOM      3  C   LIG    1        0.732   3.200   1.374  0.00  0.00    +0.340 A 
ATOM      4  C   LIG    1        0.822   1.821   1.439  0.00  0.00    -0.100 A 
ATOM      5  C   LIG    1       -0.224   1.047   0.969  0.00  0.00    +0.140 A 
ATOM      6  C   LIG    1       -1.343   1.695   0.435  0.00  0.00    -0.260 A 
ENDROOT
BRANCH   6   7
ATOM      7  C   LIG    1       -2.483   0.918  -0.085  0.00  0.00    +0.580 C 
ATOM      8  N   LIG    1       -2.520  -0.419   0.081  0.00  0.00    -0.720 N 
ATOM      9  H   LIG    1       -1.796  -0.870   0.542  0.00  0.00    +0.400 HD
ATOM     10  O   LIG    1       -3.391   1.484  -0.664  0.00  0.00    -0.550 OA
BRANCH   8  11
ATOM     11  C   LIG    1       -3.653  -1.190  -0.436  0.00  0.00    +0.240 C 
ATOM     12  C   LIG    1       -4.787  -1.270   0.638  0.00  0.00    +0.050 C 
ATOM     13  C   LIG    1       -5.324  -2.661   0.407  0.00  0.00    -0.050 C 
ATOM     14  C   LIG    1       -6.046  -3.509   1.416  0.00  0.00    +0.220 C 
ATOM     15  O   LIG    1       -5.602  -4.870   1.156  0.00  0.00    -0.390 OA
ATOM     16  C   LIG    1       -4.534  -4.842   0.160  0.00  0.00    +0.230 C 
ATOM     17  C   LIG    1       -3.961  -3.458   0.333  0.00  0.00    -0.060 C 
ATOM     18  C   LIG    1       -3.222  -2.665  -0.706  0.00  0.00    +0.060 C 
ENDBRANCH   8  11
ENDBRANCH   6   7
BRANCH   1  19
ATOM     19  N   LIG    1       -2.461   3.764  -0.110  0.00  0.00    -0.630 N 
ATOM     20  H   LIG    1       -3.197   3.259  -0.489  0.00  0.00    +0.430 HD
BRANCH  19  24
ATOM     21  C   LIG    1       -2.605   7.929  -0.037  0.00  0.00    +0.110 A 
ATOM     22  C   LIG    1       -3.780   7.194   0.013  0.00  0.00    +0.000 A 
ATOM     23  C   LIG    1       -3.733   5.814  -0.011  0.00  0.00    +0.020 A 
ATOM     24  C   LIG    1       -2.509   5.163  -0.086  0.00  0.00    +0.110 A 
ATOM     25  C   LIG    1       -1.333   5.899  -0.131  0.00  0.00    +0.070 A 
ATOM     26  C   LIG    1       -1.382   7.279  -0.112  0.00  0.00    -0.060 A 
BRANCH  21  27
ATOM     27  O   LIG    1       -2.652   9.288  -0.014  0.00  0.00    -0.320 OA
BRANCH  27  29
ATOM     28  C   LIG    1       -1.656  11.490  -0.032  0.00  0.00    +0.070 C 
ATOM     29  C   LIG    1       -1.403   9.981  -0.069  0.00  0.00    +0.170 C 
ENDBRANCH  27  29
ENDBRANCH  21  27
ENDBRANCH  19  24
ENDBRANCH   1  19
TORSDOF 6
