REMARK  Name = ZINCrH000004stdr.0
REMARK                            x       y       z     vdW  Elec       q    Type
REMARK                         _______ _______ _______ _____ _____    ______ ____
ROOT
ATOM      1  C   LIG    1        1.590   1.664   0.899  0.00  0.00    +0.190 A 
ATOM      2  C   LIG    1        0.476   0.880   1.158  0.00  0.00    -0.080 A 
ATOM      3  C   LIG    1       -0.776   1.459   1.234  0.00  0.00    +0.080 A 
ATOM      4  C   LIG    1       -0.927   2.825   1.064  0.00  0.00    -0.030 A 
ATOM      5  C   LIG    1        0.169   3.619   0.806  0.00  0.00    +0.080 A 
ATOM      6  C   LIG    1        1.440   3.046   0.721  0.00  0.00    -0.170 A 
ENDROOT
BRANCH   6   7
ATOM      7  C   LIG    1        2.618   3.891   0.445  0.00  0.00    +0.560 C 
ATOM      8  N   LIG    1        2.470   5.219   0.274  0.00  0.00    -0.730 N 
ATOM      9  H   LIG    1        1.588   5.620   0.333  0.00  0.00    +0.400 HD
ATOM     10  O   LIG    1        3.723   3.388   0.372  0.00  0.00    -0.510 OA
BRANCH   8  11
ATOM     11  C   LIG    1        3.639   6.058   0.001  0.00  0.00    +0.300 C 
ATOM     12  C   LIG    1        3.902   6.091  -1.506  0.00  0.00    +0.040 C 
BRANCH  11  13
ATOM     13  C   LIG    1        3.381   7.457   0.497  0.00  0.00    -0.140 A 
ATOM     14  C   LIG    1        2.087   7.935   0.575  0.00  0.00    +0.080 A 
ATOM     15  C   LIG    1        1.849   9.218   1.029  0.00  0.00    -0.010 A 
ATOM     16  C   LIG    1        2.907  10.027   1.407  0.00  0.00    +0.130 A 
ATOM     17  C   LIG    1        4.204   9.549   1.330  0.00  0.00    -0.040 A 
ATOM     18  F   LIG    1        2.674  11.281   1.851  0.00  0.00    -0.130 F 
ATOM     19  C   LIG    1        4.441   8.263   0.880  0.00  0.00    +0.140 A 
ATOM     20  F   LIG    1        5.706   7.794   0.808  0.00  0.00    -0.120 F 
ENDBRANCH  11  13
ENDBRANCH   8  11
ENDBRANCH   6   7
BRANCH   1  21
ATOM     21  O   LIG    1        2.819   1.096   0.818  0.00  0.00    -0.270 OA
BRANCH  21  22
ATOM     22  C   LIG    1        2.894  -0.318   1.010  0.00  0.00    +0.340 C 
BRANCH  22  26
ATOM     23  C   LIG    1        7.269  -1.950  -0.799  0.00  0.00    +0.260 C 
ATOM     24  C   LIG    1        6.170  -1.457   0.107  0.00  0.00    +0.180 A 
ATOM     25  N   LIG    1        4.942  -1.161  -0.245  0.00  0.00    -0.470 NA
ATOM     26  C   LIG    1        4.327  -0.767   0.884  0.00  0.00    +0.170 A 
ATOM     27  N   LIG    1        5.194  -0.850   1.849  0.00  0.00    -0.360 NA
ATOM     28  O   LIG    1        6.259  -1.244   1.423  0.00  0.00    +0.090 OA
ENDBRANCH  22  26
ENDBRANCH  21  22
ENDBRANCH   1  21
TORSDOF 6
