REMARK  Name = ZINCpe000000ZsOm.0
REMARK                            x       y       z     vdW  Elec       q    Type
REMARK                         _______ _______ _______ _____ _____    ______ ____
ROOT
ATOM      1  C   LIG    1        1.155   3.595   0.010  0.00  0.00    +0.190 C 
ENDROOT
BRANCH   1   2
ATOM      2  C   LIG    1        1.390   2.150  -0.347  0.00  0.00    -0.120 A 
ATOM      3  C   LIG    1        2.677   1.649  -0.390  0.00  0.00    +0.090 A 
ATOM      4  C   LIG    1        2.893   0.323  -0.719  0.00  0.00    +0.000 A 
ATOM      5  C   LIG    1        1.822  -0.503  -1.004  0.00  0.00    +0.060 A 
ATOM      6  C   LIG    1        0.534  -0.004  -0.961  0.00  0.00    -0.010 A 
ATOM      7  C   LIG    1        0.316   1.323  -0.633  0.00  0.00    +0.110 A 
ATOM      8  F   LIG    1       -0.942   1.813  -0.596  0.00  0.00    -0.140 F 
ENDBRANCH   1   2
BRANCH   1  10
ATOM      9  O   LIG    1        2.153   4.873  -1.704  0.00  0.00    -0.500 OA
ATOM     10  C   LIG    1        1.123   4.424  -1.248  0.00  0.00    +0.560 C 
ATOM     11  N   LIG    1       -0.050   4.667  -1.865  0.00  0.00    -0.650 N 
ATOM     12  C   LIG    1       -1.459   4.309  -1.641  0.00  0.00    +0.310 C 
ATOM     13  C   LIG    1       -1.845   5.599  -2.384  0.00  0.00    +0.260 C 
ATOM     14  C   LIG    1       -0.484   5.400  -3.064  0.00  0.00    +0.300 C 
BRANCH  13  15
ATOM     15  N   LIG    1       -1.924   6.791  -1.535  0.00  0.00    -0.360 N 
ATOM     16  C   LIG    1       -1.548   6.890  -0.248  0.00  0.00    +0.460 A 
ATOM     17  N   LIG    1       -1.777   8.115   0.148  0.00  0.00    -0.540 NA
ATOM     18  C   LIG    1       -2.304   8.823  -0.850  0.00  0.00    +0.420 A 
ATOM     19  N   LIG    1       -2.414   8.055  -1.902  0.00  0.00    -0.310 NA
ENDBRANCH  13  15
ENDBRANCH   1  10
BRANCH   1  20
ATOM     20  N   LIG    1        2.240   4.067   0.880  0.00  0.00    -0.510 NA
ATOM     21  C   LIG    1        2.281   3.300   2.134  0.00  0.00    +0.150 C 
ATOM     22  C   LIG    1        3.460   3.783   2.983  0.00  0.00    +0.230 C 
ATOM     23  O   LIG    1        3.331   5.189   3.212  0.00  0.00    -0.380 OA
ATOM     24  C   LIG    1        3.289   5.966   2.012  0.00  0.00    +0.230 C 
ATOM     25  C   LIG    1        2.108   5.505   1.153  0.00  0.00    +0.140 C 
ENDBRANCH   1  20
TORSDOF 4
