REMARK  Name = ZINCpk00000xIgOt.0
REMARK                            x       y       z     vdW  Elec       q    Type
REMARK                         _______ _______ _______ _____ _____    ______ ____
ROOT
ATOM      1  N   LIG    1       -1.534  -6.683   3.745  0.00  0.00    -0.560 N 
ATOM      2  C   LIG    1       -0.690  -7.471   2.830  0.00  0.00    +0.340 C 
ATOM      3  C   LIG    1       -0.441  -6.524   1.672  0.00  0.00    +0.520 C 
ATOM      4  N   LIG    1       -1.089  -5.385   1.988  0.00  0.00    -0.570 N 
ATOM      5  O   LIG    1        0.207  -6.745   0.672  0.00  0.00    -0.450 OA
ATOM      6  C   LIG    1       -1.711  -5.481   3.168  0.00  0.00    +0.700 C 
ATOM      7  O   LIG    1       -2.365  -4.584   3.662  0.00  0.00    -0.510 OA
ENDROOT
BRANCH   1  12
ATOM      8  C   LIG    1       -3.344  -6.667   6.957  0.00  0.00    -0.090 A 
ATOM      9  C   LIG    1       -3.064  -7.955   7.417  0.00  0.00    +0.060 A 
ATOM     10  C   LIG    1       -2.284  -8.804   6.659  0.00  0.00    +0.040 A 
ATOM     11  C   LIG    1       -1.776  -8.384   5.444  0.00  0.00    +0.020 A 
ATOM     12  C   LIG    1       -2.049  -7.104   4.977  0.00  0.00    +0.170 A 
ATOM     13  C   LIG    1       -2.828  -6.241   5.733  0.00  0.00    +0.080 A 
BRANCH   8  14
ATOM     14  C   LIG    1       -4.179  -5.756   7.767  0.00  0.00    +0.510 C 
ATOM     15  O   LIG    1       -4.421  -4.636   7.364  0.00  0.00    -0.490 OA
BRANCH  14  17
ATOM     16  C   LIG    1       -5.485  -5.220   9.692  0.00  0.00    +0.290 C 
ATOM     17  O   LIG    1       -4.672  -6.168   8.951  0.00  0.00    -0.350 OA
ENDBRANCH  14  17
ENDBRANCH   8  14
ENDBRANCH   1  12
BRANCH   4  18
ATOM     18  C   LIG    1       -1.112  -4.190   1.140  0.00  0.00    +0.330 C 
BRANCH  18  19
ATOM     19  C   LIG    1        0.060  -3.280   1.509  0.00  0.00    +0.310 C 
BRANCH  19  20
ATOM     20  N   LIG    1        0.037  -2.085   0.661  0.00  0.00    -0.380 N 
ATOM     21  C   LIG    1        0.023  -0.806   1.092  0.00  0.00    +0.230 A 
ATOM     22  C   LIG    1        0.002  -0.004   0.002  0.00  0.00    -0.240 A 
ATOM     23  C   LIG    1       -0.004  -0.821  -1.133  0.00  0.00    +0.240 A 
ATOM     24  C   LIG    1       -0.018   1.503   0.010  0.00  0.00    +0.110 C 
ATOM     25  N   LIG    1        0.023  -2.068  -0.740  0.00  0.00    -0.290 NA
ENDBRANCH  19  20
ENDBRANCH  18  19
ENDBRANCH   4  18
TORSDOF 6
