REMARK  Name = ZINCpe00000MJIq5.0
REMARK                            x       y       z     vdW  Elec       q    Type
REMARK                         _______ _______ _______ _____ _____    ______ ____
ROOT
ATOM      1  C   LIG    1        1.481   2.971  -0.678  0.00  0.00    +0.500 C 
ATOM      2  N   LIG    1        1.049   2.114   0.268  0.00  0.00    -0.600 N 
ATOM      3  C   LIG    1       -0.365   1.716   0.337  0.00  0.00    +0.310 C 
ATOM      4  C   LIG    1       -0.438   0.186   0.388  0.00  0.00    +0.180 C 
ATOM      5  N   LIG    1        0.399  -0.304   1.490  0.00  0.00    -0.490 N 
ATOM      6  C   LIG    1        1.813   0.029   1.275  0.00  0.00    +0.190 C 
ATOM      7  C   LIG    1        1.979   1.553   1.260  0.00  0.00    +0.290 C 
ATOM      8  O   LIG    1        2.634   3.349  -0.673  0.00  0.00    -0.530 OA
ENDROOT
BRANCH   1  15
ATOM      9  C   LIG    1       -0.931   6.711  -4.945  0.00  0.00    +0.100 C 
ATOM     10  C   LIG    1       -0.154   6.302  -3.720  0.00  0.00    +0.520 C 
ATOM     11  N   LIG    1        0.280   5.033  -3.591  0.00  0.00    -0.610 N 
ATOM     12  C   LIG    1       -0.115   4.004  -4.562  0.00  0.00    +0.270 C 
ATOM     13  C   LIG    1       -0.725   2.820  -3.805  0.00  0.00    +0.030 C 
ATOM     14  C   LIG    1        0.264   2.334  -2.743  0.00  0.00    +0.050 C 
ATOM     15  C   LIG    1        0.533   3.460  -1.742  0.00  0.00    +0.110 C 
ATOM     16  C   LIG    1        1.157   4.652  -2.475  0.00  0.00    +0.290 C 
ATOM     17  O   LIG    1        0.081   7.115  -2.851  0.00  0.00    -0.540 OA
BRANCH  15  18
ATOM     18  O   LIG    1       -0.697   3.863  -1.136  0.00  0.00    -0.540 OA
ATOM     19  H   LIG    1       -0.614   4.626  -0.547  0.00  0.00    +0.390 HD
ENDBRANCH  15  18
ENDBRANCH   1  15
BRANCH   5  20
ATOM     20  C   LIG    1        0.232  -1.680   1.673  0.00  0.00    +0.100 A 
ATOM     21  C   LIG    1       -0.646  -2.388   0.861  0.00  0.00    +0.000 A 
ATOM     22  C   LIG    1       -0.805  -3.748   1.040  0.00  0.00    +0.010 A 
ATOM     23  C   LIG    1       -0.100  -4.404   2.034  0.00  0.00    +0.070 A 
ATOM     24  C   LIG    1        0.770  -3.700   2.849  0.00  0.00    +0.010 A 
ATOM     25  F   LIG    1       -0.262  -5.734   2.211  0.00  0.00    -0.140 F 
ATOM     26  C   LIG    1        0.937  -2.341   2.670  0.00  0.00    +0.030 A 
ENDBRANCH   5  20
TORSDOF 3
