REMARK  Name = ZINCrD000000CYWg.0
REMARK                            x       y       z     vdW  Elec       q    Type
REMARK                         _______ _______ _______ _____ _____    ______ ____
ROOT
ATOM      1  N   LIG    1        2.129   1.146   1.196  0.00  0.00    -0.550 NA
ATOM      2  C   LIG    1        1.491   1.648   2.419  0.00  0.00    +0.180 C 
ATOM      3  C   LIG    1        0.057   1.118   2.502  0.00  0.00    +0.040 C 
ATOM      4  C   LIG    1       -0.725   1.581   1.270  0.00  0.00    +0.030 C 
ATOM      5  C   LIG    1       -0.013   1.086   0.008  0.00  0.00    +0.100 C 
ATOM      6  C   LIG    1        1.423   1.616  -0.003  0.00  0.00    +0.210 C 
ENDROOT
BRANCH   5   7
ATOM      7  C   LIG    1       -0.743   1.586  -1.212  0.00  0.00    +0.100 A 
ATOM      8  N   LIG    1       -1.258   0.827  -2.103  0.00  0.00    -0.460 NA
ATOM      9  C   LIG    1       -1.883   1.412  -3.143  0.00  0.00    +0.080 A 
ATOM     10  C   LIG    1       -2.530   0.827  -4.250  0.00  0.00    +0.080 A 
ATOM     11  C   LIG    1       -3.108   1.609  -5.204  0.00  0.00    +0.030 A 
ATOM     12  C   LIG    1       -3.072   2.992  -5.105  0.00  0.00    +0.040 A 
ATOM     13  C   LIG    1       -2.448   3.592  -4.034  0.00  0.00    +0.060 A 
ATOM     14  C   LIG    1       -1.851   2.808  -3.049  0.00  0.00    -0.180 A 
ATOM     15  S   LIG    1       -0.993   3.235  -1.572  0.00  0.00    +0.100 S 
ENDBRANCH   5   7
BRANCH   1  16
ATOM     16  C   LIG    1        3.549   1.520   1.151  0.00  0.00    +0.460 C 
BRANCH  16  27
ATOM     17  O   LIG    1        4.076   1.647   3.996  0.00  0.00    -0.470 OA
ATOM     18  C   LIG    1        4.572   0.797   3.288  0.00  0.00    +0.540 C 
ATOM     19  C   LIG    1        5.580  -0.237   3.696  0.00  0.00    +0.000 C 
ATOM     20  C   LIG    1        5.598  -0.636   5.135  0.00  0.00    +0.110 C 
ATOM     21  C   LIG    1        4.623  -1.720   5.471  0.00  0.00    -0.030 C 
ATOM     22  C   LIG    1        3.990  -2.405   4.579  0.00  0.00    -0.040 C 
ATOM     23  C   LIG    1        4.096  -2.193   3.108  0.00  0.00    +0.080 C 
ATOM     24  C   LIG    1        5.326  -1.379   2.699  0.00  0.00    +0.040 C 
ATOM     25  C   LIG    1        4.863  -0.546   1.492  0.00  0.00    +0.530 C 
ATOM     26  O   LIG    1        4.963  -0.855   0.324  0.00  0.00    -0.470 OA
ATOM     27  N   LIG    1        4.325   0.590   1.975  0.00  0.00    -0.580 N 
ENDBRANCH  16  27
ENDBRANCH   1  16
TORSDOF 3
