REMARK  Name = ZINCrH00000No4Bd.0
REMARK                            x       y       z     vdW  Elec       q    Type
REMARK                         _______ _______ _______ _____ _____    ______ ____
ROOT
ATOM      1  C   LIG    1        3.297   3.030  -2.186  0.00  0.00    +0.560 C 
ATOM      2  N   LIG    1        3.435   3.250  -0.863  0.00  0.00    -0.610 N 
ATOM      3  C   LIG    1        4.590   2.847  -0.041  0.00  0.00    +0.250 C 
ATOM      4  C   LIG    1        4.575   3.817   1.167  0.00  0.00    +0.040 C 
ATOM      5  C   LIG    1        3.053   3.973   1.422  0.00  0.00    +0.050 C 
ATOM      6  C   LIG    1        2.458   3.931  -0.001  0.00  0.00    +0.270 C 
ATOM      7  O   LIG    1        2.296   3.408  -2.764  0.00  0.00    -0.530 OA
ENDROOT
BRANCH   6   8
ATOM      8  C   LIG    1        1.160   3.164   0.008  0.00  0.00    -0.080 A 
ATOM      9  C   LIG    1        1.175   1.783   0.000  0.00  0.00    +0.030 A 
ATOM     10  C   LIG    1       -0.013   1.076   0.008  0.00  0.00    +0.020 A 
ATOM     11  C   LIG    1       -1.223   1.752   0.017  0.00  0.00    +0.050 A 
ATOM     12  O   LIG    1       -2.385   1.043   0.025  0.00  0.00    -0.310 OA
ATOM     13  C   LIG    1       -3.568   1.746   0.418  0.00  0.00    +0.220 C 
ATOM     14  C   LIG    1       -3.590   3.095  -0.313  0.00  0.00    +0.220 C 
ATOM     15  O   LIG    1       -2.415   3.825   0.055  0.00  0.00    -0.310 OA
ATOM     16  C   LIG    1       -1.238   3.142   0.034  0.00  0.00    +0.050 A 
ATOM     17  C   LIG    1       -0.043   3.845   0.025  0.00  0.00    +0.030 A 
ENDBRANCH   6   8
BRANCH   1  19
ATOM     18  C   LIG    1        4.215   2.114  -4.250  0.00  0.00    +0.110 C 
ATOM     19  C   LIG    1        4.353   2.335  -2.926  0.00  0.00    -0.050 C 
BRANCH  18  25
ATOM     20  C   LIG    1        5.133   1.179  -6.377  0.00  0.00    -0.010 A 
ATOM     21  C   LIG    1        6.150   0.522  -7.068  0.00  0.00    +0.070 A 
ATOM     22  C   LIG    1        7.280   0.099  -6.397  0.00  0.00    +0.030 A 
ATOM     23  C   LIG    1        7.417   0.327  -5.038  0.00  0.00    +0.050 A 
ATOM     24  C   LIG    1        6.426   0.981  -4.334  0.00  0.00    +0.040 A 
ATOM     25  C   LIG    1        5.275   1.417  -4.993  0.00  0.00    -0.030 A 
BRANCH  20  27
ATOM     26  N   LIG    1        3.022   1.959  -7.614  0.00  0.00    -0.400 NA
ATOM     27  C   LIG    1        3.956   1.614  -7.067  0.00  0.00    +0.240 C 
ENDBRANCH  20  27
ENDBRANCH  18  25
ENDBRANCH   1  19
TORSDOF 4
