REMARK  Name = ZINCrH00000tj1ix.0
REMARK                            x       y       z     vdW  Elec       q    Type
REMARK                         _______ _______ _______ _____ _____    ______ ____
ROOT
ATOM      1  N   LIG    1       -1.200  -0.722   0.009  0.00  0.00    -0.300 N 
ATOM      2  N   LIG    1       -2.376  -0.348   0.672  0.00  0.00    -0.240 NA
ATOM      3  C   LIG    1       -3.298  -1.249   0.464  0.00  0.00    +0.340 A 
ATOM      4  C   LIG    1       -2.759  -2.259  -0.352  0.00  0.00    -0.210 A 
ATOM      5  C   LIG    1       -3.269  -3.506  -0.923  0.00  0.00    +0.370 A 
ATOM      6  N   LIG    1       -4.424  -4.137  -0.880  0.00  0.00    -0.520 NA
ATOM      7  C   LIG    1       -4.347  -5.263  -1.596  0.00  0.00    +0.320 A 
ATOM      8  N   LIG    1       -3.138  -5.372  -2.110  0.00  0.00    -0.300 NA
ATOM      9  N   LIG    1       -2.412  -4.248  -1.693  0.00  0.00    -0.360 N 
ATOM     10  C   LIG    1       -1.140  -3.818  -1.902  0.00  0.00    +0.660 A 
ATOM     11  N   LIG    1       -0.680  -2.711  -1.397  0.00  0.00    -0.490 NA
ATOM     12  C   LIG    1       -1.431  -1.904  -0.634  0.00  0.00    +0.320 A 
ENDROOT
BRANCH   1  17
ATOM     13  C   LIG    1        3.671   2.190  -0.021  0.00  0.00    +0.120 C 
ATOM     14  C   LIG    1        2.377   1.416  -0.013  0.00  0.00    -0.070 A 
ATOM     15  C   LIG    1        1.171   2.090   0.002  0.00  0.00    +0.060 A 
ATOM     16  C   LIG    1       -0.017   1.384   0.010  0.00  0.00    +0.050 A 
ATOM     17  C   LIG    1        0.002  -0.004   0.002  0.00  0.00    +0.150 A 
ATOM     18  C   LIG    1        1.216  -0.679  -0.013  0.00  0.00    +0.050 A 
ATOM     19  C   LIG    1        2.400   0.032  -0.021  0.00  0.00    -0.020 A 
ATOM     20 CL   LIG    1        3.918  -0.810  -0.040  0.00  0.00    -0.050 Cl
ENDBRANCH   1  17
BRANCH   7  21
ATOM     21  C   LIG    1       -5.450  -6.239  -1.783  0.00  0.00    -0.010 A 
ATOM     22  C   LIG    1       -6.689  -6.015  -1.187  0.00  0.00    +0.060 A 
ATOM     23  C   LIG    1       -7.714  -6.923  -1.362  0.00  0.00    +0.030 A 
ATOM     24  C   LIG    1       -7.514  -8.056  -2.129  0.00  0.00    +0.020 A 
ATOM     25  C   LIG    1       -6.283  -8.286  -2.726  0.00  0.00    +0.100 A 
ATOM     26  C   LIG    1       -5.251  -7.378  -2.559  0.00  0.00    +0.040 A 
BRANCH  25  27
ATOM     27  O   LIG    1       -6.091  -9.401  -3.479  0.00  0.00    -0.500 OA
ATOM     28  H   LIG    1       -6.301  -9.284  -4.416  0.00  0.00    +0.390 HD
ENDBRANCH  25  27
ENDBRANCH   7  21
TORSDOF 3
