REMARK  Name = ZINCpe000000XyDv.0
REMARK                            x       y       z     vdW  Elec       q    Type
REMARK                         _______ _______ _______ _____ _____    ______ ____
ROOT
ATOM      1  C   LIG    1       -2.523  -0.930   0.588  0.00  0.00    +0.520 C 
ATOM      2  N   LIG    1       -2.770   0.338   0.973  0.00  0.00    -0.720 N 
ATOM      3  H   LIG    1       -3.064   0.520   1.879  0.00  0.00    +0.400 HD
ATOM      4  O   LIG    1       -2.156  -1.159  -0.545  0.00  0.00    -0.530 OA
ENDROOT
BRANCH   2   5
ATOM      5  C   LIG    1       -2.594   1.439   0.024  0.00  0.00    +0.320 C 
ATOM      6  C   LIG    1       -3.460   2.631   0.449  0.00  0.00    +0.020 C 
ATOM      7  C   LIG    1       -3.085   3.859  -0.385  0.00  0.00    +0.040 C 
ATOM      8  C   LIG    1       -1.692   4.353   0.036  0.00  0.00    +0.110 C 
ATOM      9  C   LIG    1       -0.750   3.175   0.025  0.00  0.00    +0.090 A 
ATOM     10  N   LIG    1        0.593   3.191   0.013  0.00  0.00    -0.370 N 
ATOM     11  C   LIG    1        1.443   4.384   0.013  0.00  0.00    +0.360 C 
ATOM     12  N   LIG    1        1.038   1.860   0.002  0.00  0.00    -0.300 NA
ATOM     13  C   LIG    1       -0.013   1.076   0.008  0.00  0.00    +0.250 A 
ATOM     14  C   LIG    1       -1.151   1.878   0.017  0.00  0.00    -0.250 A 
ENDBRANCH   2   5
BRANCH   1  15
ATOM     15  C   LIG    1       -2.705  -2.063   1.564  0.00  0.00    +0.150 C 
BRANCH  15  18
ATOM     16  C   LIG    1       -0.077  -3.170   1.818  0.00  0.00    +0.160 C 
ATOM     17  C   LIG    1       -1.125  -3.891   1.009  0.00  0.00    +0.230 A 
ATOM     18  C   LIG    1       -2.366  -3.367   0.889  0.00  0.00    -0.260 A 
ATOM     19  C   LIG    1       -3.344  -4.047   0.136  0.00  0.00    +0.580 A 
ATOM     20  N   LIG    1       -3.035  -5.210  -0.470  0.00  0.00    -0.360 N 
ATOM     21  N   LIG    1       -3.782  -6.086  -1.267  0.00  0.00    -0.260 NA
ATOM     22  C   LIG    1       -3.016  -7.092  -1.609  0.00  0.00    +0.290 A 
ATOM     23  C   LIG    1       -1.753  -6.901  -1.046  0.00  0.00    -0.120 A 
ATOM     24  C   LIG    1       -1.780  -5.733  -0.345  0.00  0.00    +0.300 A 
ATOM     25  O   LIG    1       -4.465  -3.582   0.028  0.00  0.00    -0.490 OA
ATOM     26  N   LIG    1       -0.821  -5.070   0.398  0.00  0.00    -0.600 N 
ATOM     27  H   LIG    1        0.069  -5.445   0.485  0.00  0.00    +0.430 HD
ENDBRANCH  15  18
ENDBRANCH   1  15
TORSDOF 3
