REMARK  Name = ZINCqH00000076qs.0
REMARK                            x       y       z     vdW  Elec       q    Type
REMARK                         _______ _______ _______ _____ _____    ______ ____
ROOT
ATOM      1  N   LIG    1       -2.374  -0.476  -0.247  0.00  0.00    -0.720 N 
ATOM      2  H   LIG    1       -2.423   0.492  -0.290  0.00  0.00    +0.400 HD
ATOM      3  C   LIG    1       -1.196  -1.100  -0.442  0.00  0.00    +0.600 C 
ATOM      4  O   LIG    1       -1.135  -2.314  -0.389  0.00  0.00    -0.550 OA
ENDROOT
BRANCH   3   5
ATOM      5  C   LIG    1        0.019  -0.313  -0.720  0.00  0.00    -0.300 A 
ATOM      6  C   LIG    1        1.287  -0.812  -0.939  0.00  0.00    +0.320 A 
ATOM      7  N   LIG    1        2.099   0.235  -1.154  0.00  0.00    -0.350 N 
ATOM      8  N   LIG    1        1.342   1.409  -1.071  0.00  0.00    -0.280 NA
ATOM      9  C   LIG    1        0.103   1.095  -0.813  0.00  0.00    +0.270 A 
BRANCH   7  10
ATOM     10  C   LIG    1        3.537   0.161  -1.428  0.00  0.00    +0.380 C 
BRANCH  10  11
ATOM     11  C   LIG    1        3.841   0.886  -2.714  0.00  0.00    -0.120 A 
ATOM     12  C   LIG    1        3.816   0.203  -3.915  0.00  0.00    +0.020 A 
ATOM     13  C   LIG    1        4.090   0.870  -5.095  0.00  0.00    +0.000 A 
ATOM     14  C   LIG    1        4.399   2.217  -5.072  0.00  0.00    +0.010 A 
ATOM     15  C   LIG    1        4.428   2.899  -3.870  0.00  0.00    +0.010 A 
ATOM     16  C   LIG    1        4.149   2.234  -2.691  0.00  0.00    +0.050 A 
ENDBRANCH  10  11
ENDBRANCH   7  10
ENDBRANCH   3   5
BRANCH   1  17
ATOM     17  C   LIG    1       -3.582  -1.258   0.029  0.00  0.00    +0.300 C 
ATOM     18  C   LIG    1       -3.691  -1.513   1.533  0.00  0.00    +0.040 C 
BRANCH  17  25
ATOM     19  C   LIG    1       -5.943  -1.179  -0.813  0.00  0.00    +0.130 A 
ATOM     20  C   LIG    1       -7.056  -0.474  -1.245  0.00  0.00    -0.070 A 
ATOM     21  C   LIG    1       -7.019   0.906  -1.305  0.00  0.00    +0.050 A 
ATOM     22  C   LIG    1       -5.873   1.584  -0.934  0.00  0.00    -0.120 A 
ATOM     23  C   LIG    1       -4.763   0.884  -0.498  0.00  0.00    +0.050 A 
ATOM     24  C   LIG    1       -5.835   3.089  -1.000  0.00  0.00    +0.100 C 
ATOM     25  C   LIG    1       -4.793  -0.496  -0.442  0.00  0.00    -0.120 A 
BRANCH  19  27
ATOM     26  C   LIG    1       -7.193  -3.172  -1.151  0.00  0.00    +0.250 C 
ATOM     27  O   LIG    1       -5.977  -2.536  -0.754  0.00  0.00    -0.310 OA
ENDBRANCH  19  27
ENDBRANCH  17  25
ENDBRANCH   1  17
TORSDOF 6
