REMARK  Name = ZINCvU00000005QI.0
REMARK                            x       y       z     vdW  Elec       q    Type
REMARK                         _______ _______ _______ _____ _____    ______ ____
ROOT
ATOM      1  C   LIG    1        1.682  -1.496   4.601  0.00  0.00    +0.280 C 
ENDROOT
BRANCH   1   8
ATOM      2  C   LIG    1       -1.486  -1.561   4.535  0.00  0.00    +0.150 C 
ATOM      3  C   LIG    1       -0.587  -1.090   3.420  0.00  0.00    +0.080 A 
ATOM      4  N   LIG    1       -0.980  -0.637   2.257  0.00  0.00    -0.280 NA
ATOM      5  N   LIG    1        0.157  -0.305   1.510  0.00  0.00    -0.360 N 
ATOM      6  C   LIG    1        1.244  -0.581   2.262  0.00  0.00    +0.120 A 
ATOM      7  C   LIG    1        2.680  -0.384   1.853  0.00  0.00    +0.140 C 
ATOM      8  C   LIG    1        0.811  -1.062   3.451  0.00  0.00    -0.240 A 
BRANCH   5   9
ATOM      9  C   LIG    1        0.166   0.238   0.150  0.00  0.00    +0.390 C 
BRANCH   9  10
ATOM     10  C   LIG    1        0.074  -0.891  -0.844  0.00  0.00    -0.110 A 
ATOM     11  C   LIG    1        1.222  -1.402  -1.418  0.00  0.00    +0.040 A 
ATOM     12  C   LIG    1        1.138  -2.442  -2.325  0.00  0.00    +0.010 A 
ATOM     13  C   LIG    1       -0.095  -2.963  -2.667  0.00  0.00    +0.030 A 
ATOM     14  C   LIG    1       -1.245  -2.450  -2.096  0.00  0.00    +0.020 A 
ATOM     15  C   LIG    1       -1.161  -1.414  -1.184  0.00  0.00    -0.010 A 
ATOM     16 CL   LIG    1       -2.605  -0.769  -0.467  0.00  0.00    -0.050 Cl
ENDBRANCH   9  10
ENDBRANCH   5   9
ENDBRANCH   1   8
BRANCH   1  17
ATOM     17  N   LIG    1        2.003  -2.923   4.461  0.00  0.00    -0.550 NA
ATOM     18  C   LIG    1        0.797  -3.750   4.604  0.00  0.00    +0.200 C 
BRANCH  17  19
ATOM     19  C   LIG    1        3.036  -3.327   5.424  0.00  0.00    +0.520 C 
BRANCH  19  20
ATOM     20  N   LIG    1        3.748  -4.500   4.912  0.00  0.00    -0.370 N 
ATOM     21  N   LIG    1        3.269  -5.817   4.884  0.00  0.00    -0.270 NA
ATOM     22  C   LIG    1        4.182  -6.567   4.357  0.00  0.00    +0.500 A 
ATOM     23  N   LIG    1        5.268  -5.787   4.039  0.00  0.00    -0.450 N 
ATOM     24  C   LIG    1        4.991  -4.513   4.385  0.00  0.00    +0.470 A 
ATOM     25  S   LIG    1        6.025  -3.163   4.193  0.00  0.00    -0.570 S 
BRANCH  23  26
ATOM     26  C   LIG    1        6.459  -6.237   3.454  0.00  0.00    +0.110 A 
ATOM     27  C   LIG    1        6.787  -5.855   2.160  0.00  0.00    +0.060 A 
ATOM     28  C   LIG    1        7.965  -6.295   1.589  0.00  0.00    +0.030 A 
ATOM     29  C   LIG    1        8.812  -7.126   2.300  0.00  0.00    +0.030 A 
ATOM     30  C   LIG    1        8.485  -7.513   3.587  0.00  0.00    +0.030 A 
ATOM     31  C   LIG    1        7.312  -7.071   4.166  0.00  0.00    +0.030 A 
ENDBRANCH  23  26
ENDBRANCH  19  20
ENDBRANCH  17  19
ENDBRANCH   1  17
TORSDOF 7
