REMARK  Name = ZINCqH000005023d.0
REMARK                            x       y       z     vdW  Elec       q    Type
REMARK                         _______ _______ _______ _____ _____    ______ ____
ROOT
ATOM      1  C   LIG    1       -0.014   1.213   0.009  0.00  0.00    +0.610 C 
ATOM      2  N   LIG    1        1.128   1.922  -0.075  0.00  0.00    -0.610 N 
ATOM      3  C   LIG    1        2.439   1.253  -0.058  0.00  0.00    +0.270 C 
ATOM      4  C   LIG    1        3.260   1.768  -1.245  0.00  0.00    +0.190 C 
ATOM      5  O   LIG    1        3.277   3.197  -1.222  0.00  0.00    -0.370 OA
ATOM      6  C   LIG    1        1.989   3.800  -1.369  0.00  0.00    +0.150 C 
ATOM      7  C   LIG    1        2.137   5.322  -1.393  0.00  0.00    +0.080 C 
ATOM      8  C   LIG    1        1.102   3.389  -0.193  0.00  0.00    +0.270 C 
ATOM      9  O   LIG    1       -1.086   1.788   0.053  0.00  0.00    -0.510 OA
ENDROOT
BRANCH   1  12
ATOM     10  C   LIG    1       -2.494  -0.682  -0.112  0.00  0.00    +0.150 C 
ATOM     11  C   LIG    1       -1.047  -1.086  -0.000  0.00  0.00    -0.010 A 
ATOM     12  C   LIG    1        0.034  -0.254   0.052  0.00  0.00    -0.110 A 
ATOM     13  O   LIG    1        1.158  -1.002   0.145  0.00  0.00    -0.140 OA
ATOM     14  C   LIG    1        0.844  -2.290   0.165  0.00  0.00    +0.080 A 
ATOM     15  C   LIG    1        1.747  -3.493   0.264  0.00  0.00    +0.160 C 
ATOM     16  C   LIG    1        0.934  -4.697   0.748  0.00  0.00    +0.070 C 
ATOM     17  C   LIG    1       -0.307  -4.899  -0.126  0.00  0.00    +0.040 C 
ATOM     18  C   LIG    1       -1.221  -3.695   0.052  0.00  0.00    +0.430 C 
ATOM     19  O   LIG    1       -2.423  -3.803   0.171  0.00  0.00    -0.440 OA
ATOM     20  C   LIG    1       -0.539  -2.392   0.070  0.00  0.00    -0.280 A 
ENDBRANCH   1  12
BRANCH   4  21
ATOM     21  C   LIG    1        4.670   1.246  -1.145  0.00  0.00    -0.090 A 
ATOM     22  C   LIG    1        5.577   1.862  -0.303  0.00  0.00    +0.040 A 
ATOM     23  C   LIG    1        6.870   1.381  -0.208  0.00  0.00    +0.000 A 
ATOM     24  C   LIG    1        7.258   0.290  -0.962  0.00  0.00    +0.010 A 
ATOM     25  C   LIG    1        6.353  -0.323  -1.808  0.00  0.00    +0.010 A 
ATOM     26  C   LIG    1        5.059   0.155  -1.900  0.00  0.00    +0.010 A 
ENDBRANCH   4  21
TORSDOF 2
