REMARK  Name = ZINCvU0000000EgM.0
REMARK                            x       y       z     vdW  Elec       q    Type
REMARK                         _______ _______ _______ _____ _____    ______ ____
ROOT
ATOM      1  N   LIG    1        4.209   0.254   1.644  0.00  0.00    -0.600 N 
ATOM      2  C   LIG    1        5.307  -0.474   1.929  0.00  0.00    +0.570 C 
ATOM      3  O   LIG    1        6.400   0.057   1.951  0.00  0.00    -0.490 OA
ENDROOT
BRANCH   2   4
ATOM      4  C   LIG    1        5.182  -1.918   2.215  0.00  0.00    -0.240 A 
ATOM      5  C   LIG    1        4.492  -2.767   1.339  0.00  0.00    +0.350 A 
ATOM      6  N   LIG    1        4.407  -4.051   1.627  0.00  0.00    -0.510 NA
ATOM      7  C   LIG    1        4.954  -4.539   2.734  0.00  0.00    +0.380 A 
ATOM      8  N   LIG    1        5.610  -3.767   3.591  0.00  0.00    -0.510 NA
ATOM      9  C   LIG    1        5.744  -2.473   3.372  0.00  0.00    +0.380 A 
BRANCH   7  10
ATOM     10  C   LIG    1        4.829  -5.987   3.021  0.00  0.00    -0.060 A 
ATOM     11  C   LIG    1        5.399  -6.525   4.174  0.00  0.00    +0.070 A 
ATOM     12  C   LIG    1        5.275  -7.873   4.438  0.00  0.00    +0.000 A 
ATOM     13  C   LIG    1        4.595  -8.694   3.556  0.00  0.00    +0.040 A 
ATOM     14  C   LIG    1        4.031  -8.168   2.407  0.00  0.00    +0.000 A 
ATOM     15  C   LIG    1        4.144  -6.820   2.135  0.00  0.00    +0.070 A 
ENDBRANCH   7  10
ENDBRANCH   2   4
BRANCH   1  17
ATOM     16  C   LIG    1        1.869   0.506   0.980  0.00  0.00    +0.050 C 
ATOM     17  C   LIG    1        2.881  -0.356   1.738  0.00  0.00    +0.260 C 
BRANCH  17  18
ATOM     18  C   LIG    1        2.473  -0.454   3.185  0.00  0.00    -0.110 A 
ATOM     19  C   LIG    1        1.581  -1.429   3.588  0.00  0.00    +0.010 A 
ATOM     20  C   LIG    1        1.208  -1.519   4.916  0.00  0.00    +0.000 A 
ATOM     21  C   LIG    1        1.727  -0.634   5.841  0.00  0.00    +0.000 A 
ATOM     22  C   LIG    1        2.620   0.342   5.439  0.00  0.00    +0.000 A 
ATOM     23  C   LIG    1        2.992   0.432   4.110  0.00  0.00    +0.030 A 
ENDBRANCH  17  18
ENDBRANCH   1  17
BRANCH   1  24
ATOM     24  C   LIG    1        4.345   1.656   1.241  0.00  0.00    +0.350 C 
BRANCH  24  25
ATOM     25  C   LIG    1        4.208   2.542   2.452  0.00  0.00    -0.140 A 
ATOM     26  C   LIG    1        2.993   3.129   2.746  0.00  0.00    +0.040 A 
ATOM     27  C   LIG    1        2.867   3.942   3.857  0.00  0.00    +0.000 A 
ATOM     28  C   LIG    1        3.957   4.170   4.677  0.00  0.00    +0.030 A 
ATOM     29  C   LIG    1        5.175   3.587   4.387  0.00  0.00    -0.020 A 
ATOM     30  C   LIG    1        5.302   2.765   3.276  0.00  0.00    +0.130 A 
BRANCH  30  31
ATOM     31  O   LIG    1        6.498   2.185   2.992  0.00  0.00    -0.470 OA
ATOM     32  H   LIG    1        7.098   2.749   2.486  0.00  0.00    +0.390 HD
ENDBRANCH  30  31
ENDBRANCH  24  25
ENDBRANCH   1  24
TORSDOF 7
