REMARK  Name = ZINCvU000000070x.1
REMARK                            x       y       z     vdW  Elec       q    Type
REMARK                         _______ _______ _______ _____ _____    ______ ____
ROOT
ATOM      1  C   LIG    1        1.108   1.478  -0.220  0.00  0.00    +0.170 A 
ATOM      2  C   LIG    1        0.029   0.613  -0.348  0.00  0.00    +0.010 A 
ATOM      3  C   LIG    1       -1.242   1.118  -0.533  0.00  0.00    +0.040 A 
ATOM      4  C   LIG    1       -1.444   2.491  -0.581  0.00  0.00    +0.110 A 
ATOM      5  C   LIG    1       -0.365   3.356  -0.453  0.00  0.00    +0.130 A 
ATOM      6  C   LIG    1        0.907   2.851  -0.273  0.00  0.00    -0.030 A 
ENDROOT
BRANCH   1   7
ATOM      7  N   LIG    1        2.398   0.966  -0.037  0.00  0.00    -1.050 N 
ATOM      8  H   LIG    1        2.550   0.251   0.601  0.00  0.00    +0.430 HD
BRANCH   7   9
ATOM      9  S   LIG    1        3.664   1.581  -0.909  0.00  0.00    +2.700 S 
ATOM     10  O   LIG    1        3.219   1.669  -2.256  0.00  0.00    -0.940 OA
ATOM     11  O   LIG    1        4.815   0.846  -0.518  0.00  0.00    -0.930 OA
BRANCH   9  18
ATOM     12  C   LIG    1        4.308   3.481   0.949  0.00  0.00    +0.250 A 
ATOM     13  C   LIG    1        4.509   4.785   1.378  0.00  0.00    -0.070 A 
ATOM     14  C   LIG    1        4.323   5.836   0.501  0.00  0.00    +0.160 A 
ATOM     15  C   LIG    1        3.936   5.589  -0.804  0.00  0.00    -0.150 A 
ATOM     16  C   LIG    1        3.741   4.289  -1.236  0.00  0.00    +0.200 A 
ATOM     17 BR   LIG    1        3.682   7.030  -2.002  0.00  0.00    -0.030 Br
ATOM     18  C   LIG    1        3.920   3.236  -0.361  0.00  0.00    -0.710 A 
BRANCH  12  19
ATOM     19  O   LIG    1        4.491   2.445   1.810  0.00  0.00    -0.310 OA
BRANCH  19  21
ATOM     20  C   LIG    1        5.054   1.493   3.958  0.00  0.00    +0.060 C 
ATOM     21  C   LIG    1        4.782   2.775   3.169  0.00  0.00    +0.190 C 
ENDBRANCH  19  21
ENDBRANCH  12  19
ENDBRANCH   9  18
ENDBRANCH   7   9
ENDBRANCH   1   7
BRANCH   4  22
ATOM     22  N   LIG    1       -2.735   3.004  -0.763  0.00  0.00    -0.630 N 
ATOM     23  H   LIG    1       -3.318   2.621  -1.438  0.00  0.00    +0.410 HD
BRANCH  22  24
ATOM     24  C   LIG    1       -3.167   4.029  -0.002  0.00  0.00    +0.550 C 
ATOM     25  S   LIG    1       -2.103   4.776   1.111  0.00  0.00    -0.610 S 
BRANCH  24  26
ATOM     26  N   LIG    1       -4.437   4.465  -0.117  0.00  0.00    -0.670 N 
ATOM     27  H   LIG    1       -5.040   4.041  -0.747  0.00  0.00    +0.400 HD
BRANCH  26  28
ATOM     28  C   LIG    1       -4.907   5.578   0.711  0.00  0.00    +0.370 C 
BRANCH  28  29
ATOM     29  C   LIG    1       -6.351   5.867   0.392  0.00  0.00    -0.120 A 
ATOM     30  C   LIG    1       -6.671   6.778  -0.598  0.00  0.00    +0.030 A 
ATOM     31  C   LIG    1       -7.996   7.040  -0.894  0.00  0.00    +0.010 A 
ATOM     32  C   LIG    1       -9.000   6.399  -0.194  0.00  0.00    +0.020 A 
ATOM     33  C   LIG    1       -8.680   5.492   0.799  0.00  0.00    +0.010 A 
ATOM     34  C   LIG    1       -7.356   5.226   1.092  0.00  0.00    +0.030 A 
ENDBRANCH  28  29
ENDBRANCH  26  28
ENDBRANCH  24  26
ENDBRANCH  22  24
ENDBRANCH   4  22
TORSDOF 10
