REMARK  Name = ZINCvU0000000J9Y.0
REMARK                            x       y       z     vdW  Elec       q    Type
REMARK                         _______ _______ _______ _____ _____    ______ ____
ROOT
ATOM      1  C   LIG    1        0.974   0.311   4.725  0.00  0.00    +0.160 A 
ATOM      2  N   LIG    1        0.800   1.612   4.780  0.00  0.00    -0.280 NA
ATOM      3  N   LIG    1        1.094   2.048   5.953  0.00  0.00    -0.260 NA
ATOM      4  C   LIG    1        1.483   1.055   6.718  0.00  0.00    +0.240 A 
ATOM      5  N   LIG    1        1.419  -0.091   5.955  0.00  0.00    -0.410 N 
ENDROOT
BRANCH   4   6
ATOM      6  C   LIG    1        1.909   1.148   8.130  0.00  0.00    -0.030 A 
ATOM      7  C   LIG    1        1.589   2.277   8.885  0.00  0.00    +0.110 A 
ATOM      8  C   LIG    1        1.985   2.357  10.204  0.00  0.00    +0.000 A 
ATOM      9  C   LIG    1        2.709   1.323  10.776  0.00  0.00    +0.120 A 
ATOM     10  C   LIG    1        3.034   0.201  10.029  0.00  0.00    -0.010 A 
ATOM     11  F   LIG    1        3.100   1.408  12.067  0.00  0.00    -0.130 F 
ATOM     12  C   LIG    1        2.638   0.109   8.711  0.00  0.00    +0.070 A 
ENDBRANCH   4   6
BRANCH   5  13
ATOM     13  C   LIG    1        1.741  -1.395   6.356  0.00  0.00    +0.090 A 
ATOM     14  C   LIG    1        0.950  -2.051   7.290  0.00  0.00    +0.030 A 
ATOM     15  C   LIG    1        1.267  -3.337   7.679  0.00  0.00    +0.040 A 
ATOM     16  C   LIG    1        2.377  -3.969   7.147  0.00  0.00    +0.040 A 
ATOM     17  C   LIG    1        3.169  -3.316   6.221  0.00  0.00    +0.040 A 
ATOM     18  C   LIG    1        2.854  -2.031   5.824  0.00  0.00    +0.030 A 
ENDBRANCH   5  13
BRANCH   1  19
ATOM     19  S   LIG    1        0.695  -0.723   3.325  0.00  0.00    +0.090 S 
BRANCH  19  21
ATOM     20  C   LIG    1       -1.194   1.112   2.597  0.00  0.00    +0.090 C 
ATOM     21  C   LIG    1        0.134   0.514   2.128  0.00  0.00    +0.020 C 
BRANCH  21  22
ATOM     22  C   LIG    1       -0.055  -0.139   0.783  0.00  0.00    +0.540 C 
ATOM     23  N   LIG    1        0.028   0.599  -0.341  0.00  0.00    -0.570 N 
ATOM     24  C   LIG    1        0.189   2.053  -0.254  0.00  0.00    +0.300 C 
ATOM     25  O   LIG    1       -0.283  -1.328   0.713  0.00  0.00    -0.510 OA
BRANCH  23  26
ATOM     26  C   LIG    1       -0.038  -0.023  -1.593  0.00  0.00    +0.130 A 
ATOM     27  C   LIG    1        1.068  -0.018  -2.432  0.00  0.00    +0.010 A 
ATOM     28  C   LIG    1        1.001  -0.638  -3.664  0.00  0.00    +0.020 A 
ATOM     29  C   LIG    1       -0.170  -1.253  -4.068  0.00  0.00    +0.010 A 
ATOM     30  C   LIG    1       -1.275  -1.255  -3.237  0.00  0.00    +0.020 A 
ATOM     31  C   LIG    1       -1.213  -0.642  -2.001  0.00  0.00    +0.020 A 
ENDBRANCH  23  26
ENDBRANCH  21  22
ENDBRANCH  19  21
ENDBRANCH   1  19
TORSDOF 6
