REMARK  Name = ZINCb80000003VPy.0
REMARK                            x       y       z     vdW  Elec       q    Type
REMARK                         _______ _______ _______ _____ _____    ______ ____
ROOT
ATOM      1  C   LIG    1       -0.834   1.634  -1.180  0.00  0.00    +0.230 C 
ATOM      2  C   LIG    1       -0.013   1.086   0.008  0.00  0.00    +0.070 C 
ATOM      3  C   LIG    1       -0.812   1.622   1.219  0.00  0.00    +0.160 C 
ATOM      4  C   LIG    1       -2.213   1.818   0.680  0.00  0.00    +0.490 C 
ATOM      5  O   LIG    1       -3.206   1.956   1.362  0.00  0.00    -0.530 OA
ATOM      6  N   LIG    1       -2.196   1.815  -0.664  0.00  0.00    -0.710 N 
ATOM      7  H   LIG    1       -2.983   1.919  -1.222  0.00  0.00    +0.410 HD
ENDROOT
BRANCH   1   9
ATOM      8  C   LIG    1       -1.454  -0.688  -1.861  0.00  0.00    +0.030 C 
ATOM      9  C   LIG    1       -0.834   0.628  -2.333  0.00  0.00    -0.080 C 
ATOM     10  C   LIG    1        0.605   0.378  -2.792  0.00  0.00    +0.040 C 
ATOM     11  C   LIG    1       -1.651   1.188  -3.499  0.00  0.00    +0.020 C 
ENDBRANCH   1   9
BRANCH   3  12
ATOM     12  O   LIG    1       -0.269   2.866   1.665  0.00  0.00    -0.540 OA
ATOM     13  H   LIG    1       -0.732   3.248   2.423  0.00  0.00    +0.390 HD
ENDBRANCH   3  12
TORSDOF 2
