REMARK  Name = ZINCrH000004sOIm.0
REMARK                            x       y       z     vdW  Elec       q    Type
REMARK                         _______ _______ _______ _____ _____    ______ ____
ROOT
ATOM      1  C   LIG    1        0.016  -0.021   0.041  0.00  0.00    +0.150 A 
ATOM      2  C   LIG    1        1.142  -0.578   0.637  0.00  0.00    +0.020 A 
ATOM      3  C   LIG    1        2.333   0.117   0.647  0.00  0.00    +0.050 A 
ATOM      4  C   LIG    1        2.407   1.379   0.060  0.00  0.00    -0.030 A 
ATOM      5  C   LIG    1        1.277   1.936  -0.537  0.00  0.00    +0.080 A 
ATOM      6  C   LIG    1        0.088   1.237  -0.545  0.00  0.00    -0.010 A 
ENDROOT
BRANCH   4   7
ATOM      7  C   LIG    1        3.688   2.129   0.070  0.00  0.00    +0.120 A 
ATOM      8  C   LIG    1        4.857   1.702   0.622  0.00  0.00    +0.110 A 
ATOM      9  N   LIG    1        5.781   2.687   0.410  0.00  0.00    -0.400 N 
ATOM     10  C   LIG    1        7.101   2.801   0.740  0.00  0.00    +0.290 A 
ATOM     11  C   LIG    1        7.772   3.926   0.394  0.00  0.00    -0.040 A 
ATOM     12  C   LIG    1        7.097   4.945  -0.293  0.00  0.00    +0.360 A 
ATOM     13  N   LIG    1        5.828   4.811  -0.599  0.00  0.00    -0.440 NA
ATOM     14  C   LIG    1        5.151   3.703  -0.262  0.00  0.00    +0.380 A 
ATOM     15  N   LIG    1        3.890   3.348  -0.458  0.00  0.00    -0.460 NA
ENDBRANCH   4   7
BRANCH   1  17
ATOM     16  C   LIG    1       -1.185  -2.070  -0.090  0.00  0.00    +0.520 C 
ATOM     17  N   LIG    1       -1.191  -0.727   0.032  0.00  0.00    -0.670 N 
ATOM     18  H   LIG    1       -2.032  -0.252   0.112  0.00  0.00    +0.410 HD
ATOM     19  O   LIG    1       -0.132  -2.672  -0.109  0.00  0.00    -0.500 OA
BRANCH  16  20
ATOM     20  C   LIG    1       -2.485  -2.822  -0.203  0.00  0.00    +0.080 C 
ATOM     21  C   LIG    1       -3.246  -2.342  -1.441  0.00  0.00    +0.070 C 
BRANCH  20  28
ATOM     22  C   LIG    1       -0.617  -4.305  -2.403  0.00  0.00    +0.160 C 
ATOM     23  C   LIG    1       -1.391  -4.950  -1.283  0.00  0.00    +0.050 A 
ATOM     24  N   LIG    1       -1.442  -6.221  -1.002  0.00  0.00    -0.370 NA
ATOM     25  O   LIG    1       -2.152  -6.437  -0.047  0.00  0.00    +0.100 OA
ATOM     26  C   LIG    1       -2.674  -5.304   0.446  0.00  0.00    -0.020 A 
ATOM     27  C   LIG    1       -3.602  -5.177   1.626  0.00  0.00    +0.190 C 
ATOM     28  C   LIG    1       -2.204  -4.297  -0.328  0.00  0.00    -0.190 A 
ENDBRANCH  20  28
ENDBRANCH  16  20
ENDBRANCH   1  17
TORSDOF 4
