REMARK  Name = ZINCrD0000074ZCi.0
REMARK                            x       y       z     vdW  Elec       q    Type
REMARK                         _______ _______ _______ _____ _____    ______ ____
ROOT
ATOM      1  C   LIG    1        3.806  -0.960  -0.754  0.00  0.00    +0.520 C 
ATOM      2  N   LIG    1        3.404   0.251  -0.320  0.00  0.00    -0.640 N 
ATOM      3  H   LIG    1        4.061   0.935  -0.115  0.00  0.00    +0.410 HD
ATOM      4  O   LIG    1        2.984  -1.789  -1.084  0.00  0.00    -0.500 OA
ENDROOT
BRANCH   2   5
ATOM      5  C   LIG    1        2.032   0.523  -0.164  0.00  0.00    -0.010 A 
ATOM      6  C   LIG    1        1.286   1.343  -0.948  0.00  0.00    +0.100 A 
ATOM      7  N   LIG    1        0.015   1.330  -0.461  0.00  0.00    -0.320 N 
ATOM      8  N   LIG    1       -0.011   0.477   0.650  0.00  0.00    -0.280 NA
ATOM      9  C   LIG    1        1.776   2.126  -2.139  0.00  0.00    +0.160 C 
ATOM     10  C   LIG    1        1.193  -0.005   0.828  0.00  0.00    +0.100 A 
ATOM     11  C   LIG    1        1.606  -0.964   1.915  0.00  0.00    +0.160 C 
BRANCH   7  12
ATOM     12  C   LIG    1       -1.075   2.039  -0.983  0.00  0.00    +0.150 A 
ATOM     13  C   LIG    1       -0.888   3.304  -1.524  0.00  0.00    +0.000 A 
ATOM     14  C   LIG    1       -1.964   3.998  -2.042  0.00  0.00    +0.030 A 
ATOM     15  C   LIG    1       -3.229   3.439  -2.012  0.00  0.00    +0.010 A 
ATOM     16  C   LIG    1       -3.419   2.182  -1.469  0.00  0.00    +0.030 A 
ATOM     17  C   LIG    1       -2.346   1.480  -0.954  0.00  0.00    +0.020 A 
ENDBRANCH   7  12
ENDBRANCH   2   5
BRANCH   1  18
ATOM     18  C   LIG    1        5.276  -1.285  -0.828  0.00  0.00    +0.270 C 
BRANCH  18  19
ATOM     19  O   LIG    1        5.448  -2.639  -1.322  0.00  0.00    -0.330 OA
BRANCH  19  20
ATOM     20  C   LIG    1        6.713  -3.089  -1.448  0.00  0.00    +0.550 C 
ATOM     21  O   LIG    1        7.647  -2.367  -1.154  0.00  0.00    -0.490 OA
BRANCH  20  26
ATOM     22  C   LIG    1        6.707  -8.148  -3.313  0.00  0.00    +0.200 C 
ATOM     23  C   LIG    1        6.960  -6.757  -2.792  0.00  0.00    +0.060 A 
ATOM     24  N   LIG    1        8.132  -6.255  -2.571  0.00  0.00    -0.480 NA
ATOM     25  C   LIG    1        8.187  -5.028  -2.117  0.00  0.00    +0.180 A 
ATOM     26  C   LIG    1        6.963  -4.446  -1.941  0.00  0.00    -0.310 A 
ATOM     27  C   LIG    1        9.484  -4.321  -1.818  0.00  0.00    +0.170 C 
ATOM     28  S   LIG    1        5.739  -5.625  -2.405  0.00  0.00    +0.220 S 
ENDBRANCH  20  26
ENDBRANCH  19  20
ENDBRANCH  18  19
ENDBRANCH   1  18
TORSDOF 6
