REMARK  Name = ZINCah0000002w76.0
REMARK                            x       y       z     vdW  Elec       q    Type
REMARK                         _______ _______ _______ _____ _____    ______ ____
ROOT
ATOM      1  C   LIG    1       -2.073   1.772   1.193  0.00  0.00    +0.340 A 
ATOM      2  C   LIG    1       -2.816   1.444   0.059  0.00  0.00    -0.010 A 
ATOM      3  C   LIG    1       -4.183   1.670   0.091  0.00  0.00    +0.100 A 
ATOM      4  C   LIG    1       -4.726   2.220   1.246  0.00  0.00    +0.060 A 
ATOM      5  N   LIG    1       -3.946   2.505   2.271  0.00  0.00    -0.190 NA
ATOM      6 CL   LIG    1       -6.431   2.531   1.339  0.00  0.00    -0.010 Cl
ATOM      7  N   LIG    1       -2.681   2.292   2.249  0.00  0.00    -0.290 NA
ENDROOT
BRANCH   1   9
ATOM      8  C   LIG    1       -0.013   1.086   0.008  0.00  0.00    +0.300 C 
ATOM      9  N   LIG    1       -0.698   1.558   1.213  0.00  0.00    -0.600 N 
ATOM     10  C   LIG    1        0.063   1.806   2.440  0.00  0.00    +0.300 C 
ENDBRANCH   1   9
TORSDOF 1
