REMARK  Name = ZINCpe00000gN2tD.0
REMARK                            x       y       z     vdW  Elec       q    Type
REMARK                         _______ _______ _______ _____ _____    ______ ____
ROOT
ATOM      1  C   LIG    1       -0.181   3.528  -0.567  0.00  0.00    +0.290 C 
ENDROOT
BRANCH   1   5
ATOM      2  C   LIG    1        1.461   2.254   2.311  0.00  0.00    +0.100 C 
ATOM      3  C   LIG    1        2.046   1.230   1.307  0.00  0.00    +0.020 C 
ATOM      4  C   LIG    1        1.286   1.562  -0.002  0.00  0.00    +0.170 C 
ATOM      5  C   LIG    1        1.171   3.100   0.007  0.00  0.00    +0.000 C 
ATOM      6  C   LIG    1        1.282   3.540   1.478  0.00  0.00    +0.060 C 
BRANCH   2  12
ATOM      7  C   LIG    1        0.875   1.971   5.372  0.00  0.00    +0.340 C 
ATOM      8  N   LIG    1        2.151   2.364   4.768  0.00  0.00    -0.480 N 
ATOM      9  C   LIG    1        3.299   2.671   5.418  0.00  0.00    +0.370 A 
ATOM     10  N   LIG    1        4.190   2.969   4.512  0.00  0.00    -0.300 NA
ATOM     11  N   LIG    1        3.669   2.862   3.341  0.00  0.00    -0.290 NA
ATOM     12  C   LIG    1        2.422   2.491   3.447  0.00  0.00    +0.180 A 
ENDBRANCH   2  12
BRANCH   4  13
ATOM     13  O   LIG    1       -0.011   0.963   0.007  0.00  0.00    -0.550 OA
ATOM     14  H   LIG    1        0.002  -0.004   0.002  0.00  0.00    +0.380 HD
ENDBRANCH   4  13
ENDBRANCH   1   5
BRANCH   1  15
ATOM     15  N   LIG    1       -0.240   3.180  -1.989  0.00  0.00    -0.720 N 
ATOM     16  H   LIG    1        0.516   2.745  -2.413  0.00  0.00    +0.400 HD
ATOM     17  C   LIG    1       -1.344   3.464  -2.707  0.00  0.00    +0.570 C 
ATOM     18  O   LIG    1       -2.292   4.009  -2.175  0.00  0.00    -0.530 OA
BRANCH  17  19
ATOM     19  C   LIG    1       -1.403   3.113  -4.140  0.00  0.00    -0.130 A 
ATOM     20  C   LIG    1       -0.315   2.487  -4.753  0.00  0.00    +0.070 A 
ATOM     21  C   LIG    1       -0.372   2.161  -6.090  0.00  0.00    +0.030 A 
ATOM     22  C   LIG    1       -1.508   2.452  -6.833  0.00  0.00    +0.060 A 
ATOM     23  O   LIG    1       -1.806   2.236  -8.146  0.00  0.00    -0.300 OA
ATOM     24  C   LIG    1       -3.237   2.360  -8.242  0.00  0.00    +0.440 C 
ATOM     25  O   LIG    1       -3.578   3.250  -7.162  0.00  0.00    -0.300 OA
ATOM     26  C   LIG    1       -2.599   3.077  -6.226  0.00  0.00    +0.020 A 
ATOM     27  C   LIG    1       -2.550   3.402  -4.885  0.00  0.00    +0.110 A 
ENDBRANCH  17  19
ENDBRANCH   1  15
TORSDOF 5
