REMARK  Name = ZINCrD0000075uGh.0
REMARK                            x       y       z     vdW  Elec       q    Type
REMARK                         _______ _______ _______ _____ _____    ______ ____
ROOT
ATOM      1  O   LIG    1        2.042  -0.081  -1.290  0.00  0.00    -0.510 OA
ATOM      2  C   LIG    1        2.318   0.933  -0.685  0.00  0.00    +0.520 C 
ATOM      3  N   LIG    1        1.362   1.593  -0.002  0.00  0.00    -0.730 N 
ATOM      4  H   LIG    1        1.583   2.404   0.482  0.00  0.00    +0.400 HD
ENDROOT
BRANCH   3   5
ATOM      5  C   LIG    1       -0.013   1.086   0.008  0.00  0.00    +0.290 C 
BRANCH   5   6
ATOM      6  C   LIG    1       -0.742   1.585  -1.213  0.00  0.00    -0.100 A 
ATOM      7  C   LIG    1       -0.551   2.883  -1.649  0.00  0.00    +0.020 A 
ATOM      8  C   LIG    1       -1.217   3.340  -2.771  0.00  0.00    +0.000 A 
ATOM      9  C   LIG    1       -2.079   2.501  -3.453  0.00  0.00    +0.010 A 
ATOM     10  C   LIG    1       -2.273   1.205  -3.014  0.00  0.00    +0.010 A 
ATOM     11  C   LIG    1       -1.605   0.747  -1.893  0.00  0.00    +0.020 A 
ENDBRANCH   5   6
BRANCH   5  12
ATOM     12  C   LIG    1       -0.729   1.579   1.267  0.00  0.00    +0.350 C 
BRANCH  12  13
ATOM     13  N   LIG    1       -0.092   0.997   2.451  0.00  0.00    -0.380 N 
ATOM     14  C   LIG    1        0.406   1.663   3.507  0.00  0.00    +0.470 A 
ATOM     15  N   LIG    1        0.886   0.785   4.350  0.00  0.00    -0.540 NA
ATOM     16  C   LIG    1        0.714  -0.445   3.869  0.00  0.00    +0.420 A 
ATOM     17  N   LIG    1        0.114  -0.368   2.711  0.00  0.00    -0.310 NA
ENDBRANCH  12  13
ENDBRANCH   5  12
ENDBRANCH   3   5
BRANCH   2  18
ATOM     18  C   LIG    1        3.732   1.454  -0.695  0.00  0.00    +0.110 C 
BRANCH  18  19
ATOM     19  C   LIG    1        4.598   0.541  -1.524  0.00  0.00    -0.040 A 
ATOM     20  C   LIG    1        5.247  -0.524  -0.927  0.00  0.00    +0.020 A 
ATOM     21  C   LIG    1        6.038  -1.366  -1.688  0.00  0.00    +0.070 A 
ATOM     22  C   LIG    1        6.188  -1.135  -3.043  0.00  0.00    -0.180 A 
ATOM     23  C   LIG    1        5.544  -0.067  -3.638  0.00  0.00    +0.070 A 
ATOM     24  C   LIG    1        4.749   0.771  -2.878  0.00  0.00    +0.020 A 
BRANCH  22  25
ATOM     25  C   LIG    1        7.055  -2.048  -3.871  0.00  0.00    +0.510 C 
ATOM     26  F   LIG    1        6.565  -2.095  -5.180  0.00  0.00    -0.180 F 
ATOM     27  F   LIG    1        7.037  -3.334  -3.320  0.00  0.00    -0.180 F 
ATOM     28  F   LIG    1        8.367  -1.564  -3.881  0.00  0.00    -0.180 F 
ENDBRANCH  22  25
ENDBRANCH  18  19
ENDBRANCH   2  18
TORSDOF 7
