REMARK  Name = ZINCfA000000b7tm.1
REMARK                            x       y       z     vdW  Elec       q    Type
REMARK                         _______ _______ _______ _____ _____    ______ ____
ROOT
ATOM      1  N   LIG    1        1.077   1.879   0.002  0.00  0.00    -0.390 N 
ATOM      2  C   LIG    1       -0.013   1.076   0.008  0.00  0.00    +0.540 C 
ATOM      3  N   LIG    1       -1.086   1.823   0.017  0.00  0.00    -0.470 N 
ATOM      4  C   LIG    1       -0.725   3.109   0.025  0.00  0.00    +0.030 C 
ATOM      5  C   LIG    1       -1.617   4.325   0.040  0.00  0.00    +0.140 C 
ATOM      6  C   LIG    1       -0.776   5.538   0.456  0.00  0.00    +0.050 C 
ATOM      7  C   LIG    1        0.498   5.592  -0.392  0.00  0.00    +0.050 C 
ATOM      8  C   LIG    1        1.427   4.438   0.008  0.00  0.00    +0.140 C 
ATOM      9  H   LIG    1       -1.999   1.495   0.018  0.00  0.00    +0.460 HD
ATOM     10  C   LIG    1        0.625   3.163   0.012  0.00  0.00    +0.050 C 
ENDROOT
BRANCH   1  13
ATOM     11  C   LIG    1        3.429  -0.454  -1.270  0.00  0.00    +0.050 C 
ATOM     12  C   LIG    1        2.735   0.636  -1.248  0.00  0.00    -0.100 C 
ATOM     13  C   LIG    1        2.477   1.448  -0.012  0.00  0.00    +0.290 C 
ATOM     14  C   LIG    1        2.762   0.609   1.235  0.00  0.00    +0.040 C 
ATOM     15  C   LIG    1        4.141  -0.044   1.076  0.00  0.00    +0.050 C 
ATOM     16  C   LIG    1        4.062  -1.070  -0.057  0.00  0.00    +0.070 C 
ENDBRANCH   1  13
TORSDOF 1
