REMARK  Name = ZINCvU0000000IF4.0
REMARK                            x       y       z     vdW  Elec       q    Type
REMARK                         _______ _______ _______ _____ _____    ______ ____
ROOT
ATOM      1  C   LIG    1        4.093   0.796  -3.253  0.00  0.00    -0.280 A 
ATOM      2  C   LIG    1        4.079   1.188  -1.931  0.00  0.00    +0.280 A 
ATOM      3  N   LIG    1        2.903   0.817  -1.403  0.00  0.00    -0.350 N 
ATOM      4  N   LIG    1        2.134   0.170  -2.374  0.00  0.00    -0.270 NA
ATOM      5  C   LIG    1        2.806   0.140  -3.503  0.00  0.00    +0.170 A 
ENDROOT
BRANCH   5   6
ATOM      6  C   LIG    1        2.351  -0.452  -4.785  0.00  0.00    -0.030 A 
ATOM      7  C   LIG    1        2.712   0.139  -5.995  0.00  0.00    +0.110 A 
ATOM      8  C   LIG    1        2.291  -0.418  -7.184  0.00  0.00    +0.020 A 
ATOM      9  C   LIG    1        1.502  -1.556  -7.178  0.00  0.00    -0.020 A 
ATOM     10  C   LIG    1        1.136  -2.143  -5.979  0.00  0.00    +0.020 A 
ATOM     11 CL   LIG    1        0.969  -2.248  -8.678  0.00  0.00    -0.070 Cl
ATOM     12  C   LIG    1        1.556  -1.597  -4.783  0.00  0.00    +0.060 A 
ENDBRANCH   5   6
BRANCH   1  14
ATOM     13  O   LIG    1        5.063   0.598  -5.365  0.00  0.00    -0.530 OA
ATOM     14  C   LIG    1        5.184   0.997  -4.222  0.00  0.00    +0.590 C 
ATOM     15  N   LIG    1        6.316   1.622  -3.842  0.00  0.00    -0.730 N 
ATOM     16  H   LIG    1        6.412   1.940  -2.931  0.00  0.00    +0.390 HD
BRANCH  15  17
ATOM     17  C   LIG    1        7.401   1.822  -4.806  0.00  0.00    +0.270 C 
BRANCH  17  18
ATOM     18  C   LIG    1        8.560   2.551  -4.124  0.00  0.00    -0.070 C 
ATOM     19  C   LIG    1        8.078   3.909  -3.611  0.00  0.00    +0.020 C 
ATOM     20  C   LIG    1        9.238   4.637  -2.929  0.00  0.00    +0.010 C 
ATOM     21  C   LIG    1       10.493   3.765  -2.988  0.00  0.00    -0.020 C 
ATOM     22  C   LIG    1       10.229   2.441  -2.268  0.00  0.00    +0.010 C 
ATOM     23  C   LIG    1       10.854   3.488  -4.449  0.00  0.00    +0.010 C 
ATOM     24  C   LIG    1        9.069   1.712  -2.950  0.00  0.00    +0.020 C 
ATOM     25  C   LIG    1        9.694   2.759  -5.131  0.00  0.00    +0.030 C 
ENDBRANCH  17  18
ENDBRANCH  15  17
ENDBRANCH   1  14
BRANCH   3  26
ATOM     26  C   LIG    1        2.490   1.048  -0.016  0.00  0.00    +0.380 C 
BRANCH  26  27
ATOM     27  C   LIG    1        1.175   1.783   0.000  0.00  0.00    -0.120 A 
ATOM     28  C   LIG    1       -0.013   1.076   0.008  0.00  0.00    +0.050 A 
ATOM     29  C   LIG    1       -1.219   1.751   0.017  0.00  0.00    +0.010 A 
ATOM     30  C   LIG    1       -1.238   3.133   0.030  0.00  0.00    +0.010 A 
ATOM     31  C   LIG    1       -0.050   3.840   0.022  0.00  0.00    +0.000 A 
ATOM     32  C   LIG    1        1.156   3.165   0.008  0.00  0.00    +0.020 A 
ENDBRANCH  26  27
ENDBRANCH   3  26
TORSDOF 6
