REMARK  Name = ZINCvU00000004uj.0
REMARK                            x       y       z     vdW  Elec       q    Type
REMARK                         _______ _______ _______ _____ _____    ______ ____
ROOT
ATOM      1  C   LIG    1        1.007   3.429  -3.763  0.00  0.00    -0.120 A 
ATOM      2  C   LIG    1        1.017   4.791  -4.066  0.00  0.00    +0.040 A 
ATOM      3  C   LIG    1        1.074   5.723  -3.050  0.00  0.00    +0.040 A 
ATOM      4  C   LIG    1        1.121   5.313  -1.731  0.00  0.00    +0.040 A 
ATOM      5  C   LIG    1        1.112   3.959  -1.418  0.00  0.00    +0.140 A 
ATOM      6  C   LIG    1        1.055   3.014  -2.432  0.00  0.00    +0.080 A 
ENDROOT
BRANCH   1   9
ATOM      7  N   LIG    1        0.899   2.831  -6.135  0.00  0.00    -0.630 N 
ATOM      8  H   LIG    1        0.906   3.777  -6.347  0.00  0.00    +0.420 HD
ATOM      9  C   LIG    1        0.945   2.428  -4.849  0.00  0.00    +0.560 C 
ATOM     10  O   LIG    1        0.936   1.242  -4.583  0.00  0.00    -0.460 OA
BRANCH   7  14
ATOM     11  C   LIG    1        0.732   0.541  -9.212  0.00  0.00    -0.230 A 
ATOM     12  C   LIG    1        0.767  -0.143  -8.067  0.00  0.00    +0.240 A 
ATOM     13  N   LIG    1        0.825   0.606  -6.981  0.00  0.00    -0.470 NA
ATOM     14  C   LIG    1        0.840   1.890  -7.155  0.00  0.00    +0.260 A 
ATOM     15  S   LIG    1        0.771   2.259  -8.823  0.00  0.00    +0.130 S 
BRANCH  11  17
ATOM     16  C   LIG    1       -0.799  -0.229 -11.005  0.00  0.00    +0.030 C 
ATOM     17  C   LIG    1        0.665  -0.052 -10.595  0.00  0.00    +0.130 C 
ENDBRANCH  11  17
ENDBRANCH   7  14
ENDBRANCH   1   9
BRANCH   5  18
ATOM     18  N   LIG    1        1.160   3.549  -0.084  0.00  0.00    -1.060 N 
ATOM     19  H   LIG    1        0.554   2.862   0.235  0.00  0.00    +0.430 HD
BRANCH  18  20
ATOM     20  S   LIG    1        2.251   4.237   0.955  0.00  0.00    +2.690 S 
ATOM     21  O   LIG    1        2.132   3.535   2.185  0.00  0.00    -0.940 OA
ATOM     22  O   LIG    1        2.081   5.643   0.843  0.00  0.00    -0.950 OA
BRANCH  20  23
ATOM     23  C   LIG    1        3.860   3.880   0.332  0.00  0.00    -0.680 A 
ATOM     24  C   LIG    1        4.689   4.909  -0.072  0.00  0.00    +0.130 A 
ATOM     25  C   LIG    1        5.952   4.629  -0.561  0.00  0.00    -0.090 A 
ATOM     26  C   LIG    1        6.385   3.319  -0.645  0.00  0.00    +0.080 A 
ATOM     27  C   LIG    1        5.556   2.289  -0.239  0.00  0.00    -0.010 A 
ATOM     28  C   LIG    1        4.296   2.570   0.253  0.00  0.00    +0.020 A 
ATOM     29  C   LIG    1        3.394   1.448   0.700  0.00  0.00    +0.110 C 
BRANCH  25  30
ATOM     30  C   LIG    1        6.855   5.751  -1.002  0.00  0.00    -0.030 C 
ATOM     31  C   LIG    1        6.184   6.530  -2.136  0.00  0.00    +0.040 C 
ATOM     32  C   LIG    1        8.182   5.173  -1.497  0.00  0.00    +0.030 C 
ATOM     33  C   LIG    1        7.115   6.690   0.177  0.00  0.00    +0.040 C 
ENDBRANCH  25  30
ENDBRANCH  20  23
ENDBRANCH  18  20
ENDBRANCH   5  18
TORSDOF 7
