REMARK  Name = ZINCqH0000036KII.0
REMARK                            x       y       z     vdW  Elec       q    Type
REMARK                         _______ _______ _______ _____ _____    ______ ____
ROOT
ATOM      1  C   LIG    1        0.002  -0.004   0.002  0.00  0.00    +0.200 A 
ATOM      2  N   LIG    1        1.259  -0.373  -0.012  0.00  0.00    -0.470 NA
ATOM      3  C   LIG    1        1.974   0.775  -0.013  0.00  0.00    +0.200 A 
ATOM      4  N   LIG    1        1.118   1.763   0.001  0.00  0.00    -0.360 NA
ATOM      5  O   LIG    1       -0.016   1.333   0.009  0.00  0.00    +0.110 OA
ENDROOT
BRANCH   3   6
ATOM      6  C   LIG    1        3.454   0.891  -0.026  0.00  0.00    -0.020 A 
ATOM      7  C   LIG    1        4.245  -0.255  -0.039  0.00  0.00    +0.130 A 
ATOM      8  C   LIG    1        5.620  -0.141  -0.051  0.00  0.00    +0.050 A 
ATOM      9  C   LIG    1        6.213   1.108  -0.050  0.00  0.00    +0.120 A 
ATOM     10  C   LIG    1        5.432   2.250  -0.037  0.00  0.00    -0.040 A 
ATOM     11  C   LIG    1        4.056   2.148  -0.030  0.00  0.00    +0.140 A 
BRANCH  10  12
ATOM     12  N   LIG    1        6.074   3.584  -0.036  0.00  0.00    +0.030 N 
ATOM     13  O   LIG    1        5.388   4.590  -0.024  0.00  0.00    -0.150 OA
ATOM     14  O   LIG    1        7.288   3.675  -0.046  0.00  0.00    -0.150 OA
ENDBRANCH  10  12
ENDBRANCH   3   6
BRANCH   1  15
ATOM     15  C   LIG    1       -1.198  -0.916   0.009  0.00  0.00    +0.360 C 
BRANCH  15  16
ATOM     16  N   LIG    1       -1.574  -1.219   1.397  0.00  0.00    -0.670 NA
ATOM     17  H   LIG    1       -0.797  -1.616   1.903  0.00  0.00    +0.350 HD
BRANCH  16  19
ATOM     18  C   LIG    1       -4.022  -1.273   1.348  0.00  0.00    +0.060 C 
ATOM     19  C   LIG    1       -2.743  -2.107   1.443  0.00  0.00    +0.200 C 
BRANCH  19  20
ATOM     20  C   LIG    1       -2.740  -2.875   2.740  0.00  0.00    -0.180 A 
ATOM     21  C   LIG    1       -2.470  -2.222   3.930  0.00  0.00    +0.150 A 
ATOM     22  C   LIG    1       -2.471  -2.928   5.122  0.00  0.00    -0.030 A 
ATOM     23  C   LIG    1       -2.733  -4.285   5.122  0.00  0.00    +0.090 A 
ATOM     24  C   LIG    1       -2.997  -4.939   3.933  0.00  0.00    -0.020 A 
ATOM     25  F   LIG    1       -2.209  -0.896   3.930  0.00  0.00    -0.110 F 
ATOM     26  C   LIG    1       -3.001  -4.234   2.741  0.00  0.00    +0.140 A 
ATOM     27  F   LIG    1       -3.259  -4.873   1.579  0.00  0.00    -0.130 F 
ENDBRANCH  19  20
ENDBRANCH  16  19
ENDBRANCH  15  16
ENDBRANCH   1  15
TORSDOF 6
