REMARK  Name = ZINCrD000000Ab5P.0
REMARK                            x       y       z     vdW  Elec       q    Type
REMARK                         _______ _______ _______ _____ _____    ______ ____
ROOT
ATOM      1  C   LIG    1        3.065   8.111   0.043  0.00  0.00    +0.110 C 
ENDROOT
BRANCH   1   3
ATOM      2  O   LIG    1        1.234   9.597   0.124  0.00  0.00    -0.520 OA
ATOM      3  C   LIG    1        1.595   8.440   0.089  0.00  0.00    +0.560 C 
ATOM      4  N   LIG    1        0.682   7.448   0.093  0.00  0.00    -0.470 N 
ATOM      5  C   LIG    1       -0.777   7.629   0.137  0.00  0.00    +0.260 C 
ATOM      6  C   LIG    1       -1.321   6.187   0.114  0.00  0.00    +0.090 C 
ATOM      7  C   LIG    1       -0.076   5.329   0.068  0.00  0.00    +0.140 C 
ATOM      8  N   LIG    1        0.967   6.085   0.056  0.00  0.00    -0.240 NA
BRANCH   7   9
ATOM      9  C   LIG    1       -0.059   3.855   0.035  0.00  0.00    -0.040 A 
ATOM     10  C   LIG    1        1.156   3.168  -0.012  0.00  0.00    +0.050 A 
ATOM     11  C   LIG    1        1.164   1.789  -0.042  0.00  0.00    +0.010 A 
ATOM     12  C   LIG    1       -0.028   1.086  -0.025  0.00  0.00    +0.030 A 
ATOM     13  C   LIG    1       -1.236   1.760   0.017  0.00  0.00    +0.010 A 
ATOM     14  C   LIG    1       -1.259   3.139   0.052  0.00  0.00    +0.040 A 
ENDBRANCH   7   9
ENDBRANCH   1   3
BRANCH   1  15
ATOM     15  C   LIG    1        3.879   9.406   0.048  0.00  0.00    +0.090 C 
BRANCH  15  16
ATOM     16  C   LIG    1        5.348   9.077   0.001  0.00  0.00    +0.520 C 
ATOM     17  N   LIG    1        6.258  10.066  -0.104  0.00  0.00    -0.550 N 
ATOM     18  C   LIG    1        5.835  11.474  -0.095  0.00  0.00    +0.280 C 
ATOM     19  C   LIG    1        6.596  12.199  -1.212  0.00  0.00    +0.020 C 
ATOM     20  C   LIG    1        8.092  12.157  -0.899  0.00  0.00    +0.080 C 
ATOM     21  C   LIG    1        8.530  10.746  -0.606  0.00  0.00    -0.120 A 
ATOM     22  C   LIG    1        9.872  10.424  -0.721  0.00  0.00    +0.020 A 
ATOM     23  C   LIG    1       10.307   9.140  -0.438  0.00  0.00    -0.020 A 
ATOM     24  C   LIG    1        9.402   8.168  -0.055  0.00  0.00    +0.020 A 
ATOM     25  C   LIG    1        8.061   8.480   0.055  0.00  0.00    +0.020 A 
ATOM     26  C   LIG    1        7.623   9.771  -0.219  0.00  0.00    +0.150 A 
ATOM     27  O   LIG    1        5.713   7.922   0.058  0.00  0.00    -0.510 OA
ENDBRANCH  15  16
ENDBRANCH   1  15
TORSDOF 4
