REMARK  Name = ZINCpk00000ebpJk.0
REMARK                            x       y       z     vdW  Elec       q    Type
REMARK                         _______ _______ _______ _____ _____    ______ ____
ROOT
ATOM      1  C   LIG    1        3.568   2.065  -0.021  0.00  0.00    +0.240 C 
ENDROOT
BRANCH   1   2
ATOM      2  O   LIG    1        3.600   2.801   1.204  0.00  0.00    -0.300 OA
BRANCH   2   6
ATOM      3  C   LIG    1        6.673   5.513   1.679  0.00  0.00    -0.720 A 
ATOM      4  C   LIG    1        5.734   5.350   2.682  0.00  0.00    +0.170 A 
ATOM      5  C   LIG    1        4.705   4.442   2.525  0.00  0.00    -0.030 A 
ATOM      6  C   LIG    1        4.612   3.694   1.360  0.00  0.00    +0.190 A 
ATOM      7  C   LIG    1        5.558   3.855   0.358  0.00  0.00    -0.090 A 
ATOM      8  C   LIG    1        6.583   4.768   0.517  0.00  0.00    +0.180 A 
BRANCH   3   9
ATOM      9  S   LIG    1        7.985   6.671   1.882  0.00  0.00    +2.710 S 
ATOM     10  O   LIG    1        7.533   7.627   2.832  0.00  0.00    -0.960 OA
ATOM     11  O   LIG    1        8.418   7.020   0.574  0.00  0.00    -0.960 OA
BRANCH   9  12
ATOM     12  N   LIG    1        9.245   5.865   2.592  0.00  0.00    -1.250 NA
ATOM     13  H   LIG    1        9.069   5.120   3.189  0.00  0.00    +0.420 HD
ATOM     14  H   LIG    1       10.158   6.137   2.412  0.00  0.00    +0.420 HD
ENDBRANCH   9  12
ENDBRANCH   3   9
ENDBRANCH   2   6
ENDBRANCH   1   2
BRANCH   1  15
ATOM     15  C   LIG    1        2.367   1.117  -0.015  0.00  0.00    +0.260 C 
BRANCH  15  16
ATOM     16  O   LIG    1        1.139   1.891   0.001  0.00  0.00    -0.350 OA
BRANCH  16  17
ATOM     17  C   LIG    1       -0.014   1.204   0.009  0.00  0.00    +0.470 C 
ATOM     18  O   LIG    1        0.002  -0.004   0.002  0.00  0.00    -0.480 OA
BRANCH  17  19
ATOM     19  C   LIG    1       -1.329   1.940   0.019  0.00  0.00    +0.290 C 
BRANCH  19  20
ATOM     20  O   LIG    1       -2.403   0.997   0.019  0.00  0.00    -0.290 OA
BRANCH  20  21
ATOM     21  C   LIG    1       -3.666   1.499   0.028  0.00  0.00    +0.160 A 
ATOM     22  C   LIG    1       -3.867   2.871   0.042  0.00  0.00    -0.080 A 
ATOM     23  C   LIG    1       -5.151   3.381   0.045  0.00  0.00    +0.090 A 
ATOM     24  C   LIG    1       -6.236   2.525   0.046  0.00  0.00    -0.050 A 
ATOM     25  C   LIG    1       -6.039   1.154   0.037  0.00  0.00    +0.140 A 
ATOM     26  F   LIG    1       -7.101   0.319   0.038  0.00  0.00    -0.130 F 
ATOM     27  C   LIG    1       -4.755   0.640   0.028  0.00  0.00    -0.030 A 
ENDBRANCH  20  21
ENDBRANCH  19  20
ENDBRANCH  17  19
ENDBRANCH  16  17
ENDBRANCH  15  16
ENDBRANCH   1  15
TORSDOF 10
