REMARK  Name = ZINCrH000004umuk.0
REMARK                            x       y       z     vdW  Elec       q    Type
REMARK                         _______ _______ _______ _____ _____    ______ ____
ROOT
ATOM      1  O   LIG    1        0.776   0.547   2.530  0.00  0.00    -0.510 OA
ATOM      2  C   LIG    1       -0.222   1.232   2.431  0.00  0.00    +0.600 C 
ATOM      3  N   LIG    1       -0.698   1.558   1.213  0.00  0.00    -0.720 N 
ATOM      4  H   LIG    1       -1.495   2.106   1.135  0.00  0.00    +0.410 HD
ENDROOT
BRANCH   2   5
ATOM      5  C   LIG    1       -0.916   1.711   3.652  0.00  0.00    -0.020 A 
ATOM      6  N   LIG    1       -1.997   2.453   3.701  0.00  0.00    -0.330 NA
ATOM      7  O   LIG    1       -2.332   2.684   4.840  0.00  0.00    +0.140 OA
ATOM      8  C   LIG    1       -1.498   2.114   5.729  0.00  0.00    +0.050 A 
ATOM      9  C   LIG    1       -0.547   1.452   4.995  0.00  0.00    +0.010 A 
BRANCH   8  10
ATOM     10  C   LIG    1       -1.593   2.180   7.195  0.00  0.00    -0.150 A 
ATOM     11  C   LIG    1       -2.554   2.847   7.893  0.00  0.00    +0.060 A 
ATOM     12  C   LIG    1       -2.431   2.756   9.261  0.00  0.00    +0.010 A 
ATOM     13  C   LIG    1       -1.387   2.041   9.693  0.00  0.00    -0.030 A 
ATOM     14  S   LIG    1       -0.479   1.417   8.322  0.00  0.00    +0.180 S 
ENDBRANCH   8  10
ENDBRANCH   2   5
BRANCH   3  15
ATOM     15  C   LIG    1       -0.013   1.086   0.008  0.00  0.00    +0.280 C 
BRANCH  15  16
ATOM     16  C   LIG    1       -0.753   1.593  -1.232  0.00  0.00    +0.140 C 
BRANCH  16  17
ATOM     17  C   LIG    1       -0.047   1.107  -2.471  0.00  0.00    +0.090 A 
ATOM     18  N   LIG    1        1.216   1.292  -2.757  0.00  0.00    -0.280 NA
ATOM     19  N   LIG    1        1.479   0.688  -3.994  0.00  0.00    -0.320 N 
ATOM     20  C   LIG    1        0.328   0.135  -4.439  0.00  0.00    +0.240 A 
ATOM     21  C   LIG    1       -0.629   0.375  -3.512  0.00  0.00    -0.090 A 
BRANCH  19  22
ATOM     22  C   LIG    1        2.716   0.662  -4.654  0.00  0.00    +0.150 A 
ATOM     23  C   LIG    1        2.837   0.019  -5.878  0.00  0.00    +0.030 A 
ATOM     24  C   LIG    1        4.055  -0.001  -6.529  0.00  0.00    +0.030 A 
ATOM     25  C   LIG    1        5.158   0.609  -5.956  0.00  0.00    +0.090 A 
ATOM     26  C   LIG    1        5.040   1.246  -4.732  0.00  0.00    +0.020 A 
ATOM     27  F   LIG    1        6.349   0.584  -6.591  0.00  0.00    -0.130 F 
ATOM     28  C   LIG    1        3.822   1.273  -4.080  0.00  0.00    +0.060 A 
ENDBRANCH  19  22
ENDBRANCH  16  17
ENDBRANCH  15  16
ENDBRANCH   3  15
TORSDOF 6
