REMARK  Name = ZINCkj00000y7Fip.0
REMARK                            x       y       z     vdW  Elec       q    Type
REMARK                         _______ _______ _______ _____ _____    ______ ____
ROOT
ATOM      1  N   LIG    1        2.438  -3.496   1.343  0.00  0.00    -0.520 N 
ATOM      2  H   LIG    1        1.627  -3.853   1.825  0.00  0.00    +0.420 HD
ATOM      3  H   LIG    1        2.778  -2.674   1.821  0.00  0.00    +0.430 HD
ENDROOT
BRANCH   1   4
ATOM      4  C   LIG    1        2.074  -3.146  -0.036  0.00  0.00    +0.370 C 
BRANCH   4   8
ATOM      5  C   LIG    1        0.002  -0.004   0.002  0.00  0.00    -0.160 A 
ATOM      6  C   LIG    1       -1.122  -0.769   0.008  0.00  0.00    +0.000 A 
ATOM      7  S   LIG    1       -0.727  -2.427  -0.005  0.00  0.00    +0.250 S 
ATOM      8  C   LIG    1        0.996  -2.093  -0.019  0.00  0.00    -0.320 A 
ATOM      9  C   LIG    1        1.218  -0.784  -0.019  0.00  0.00    +0.150 A 
BRANCH   5  13
ATOM     10  N   LIG    1       -1.194   2.126   0.019  0.00  0.00    -0.840 N 
ATOM     11  H   LIG    1       -1.207   3.095   0.025  0.00  0.00    +0.420 HD
ATOM     12  H   LIG    1       -2.027   1.629   0.021  0.00  0.00    +0.400 HD
ATOM     13  C   LIG    1       -0.018   1.468   0.010  0.00  0.00    +0.580 C 
ATOM     14  O   LIG    1        1.027   2.090   0.004  0.00  0.00    -0.530 OA
ENDBRANCH   5  13
ENDBRANCH   4   8
ENDBRANCH   1   4
BRANCH   1  15
ATOM     15  C   LIG    1        3.489  -4.522   1.327  0.00  0.00    +0.290 C 
BRANCH  15  16
ATOM     16  C   LIG    1        3.868  -4.887   2.764  0.00  0.00    -0.020 C 
ATOM     17  C   LIG    1        5.049  -5.863   2.748  0.00  0.00    +0.070 C 
ATOM     18  C   LIG    1        5.577  -6.041   4.177  0.00  0.00    +0.170 C 
ATOM     19  C   LIG    1        4.401  -6.321   5.083  0.00  0.00    +0.200 A 
ATOM     20  N   LIG    1        4.432  -6.807   6.290  0.00  0.00    -0.480 NA
ATOM     21  C   LIG    1        3.177  -6.909   6.757  0.00  0.00    +0.160 A 
ATOM     22  C   LIG    1        2.337  -6.466   5.800  0.00  0.00    +0.130 A 
ATOM     23  N   LIG    1        3.111  -6.094   4.741  0.00  0.00    -0.470 N 
ATOM     24  C   LIG    1        2.670  -5.545   3.457  0.00  0.00    +0.280 C 
ENDBRANCH  15  16
ENDBRANCH   1  15
TORSDOF 5
