REMARK  Name = ZINCpk00000y6yoC.0
REMARK                            x       y       z     vdW  Elec       q    Type
REMARK                         _______ _______ _______ _____ _____    ______ ____
ROOT
ATOM      1  O   LIG    1       -2.209  -2.921  -6.022  0.00  0.00    -0.530 OA
ATOM      2  C   LIG    1       -2.747  -2.020  -5.408  0.00  0.00    +0.570 C 
ATOM      3  N   LIG    1       -3.711  -1.285  -5.996  0.00  0.00    -0.610 N 
ATOM      4  C   LIG    1       -4.370  -0.109  -5.409  0.00  0.00    +0.250 C 
ATOM      5  C   LIG    1       -5.416   0.388  -6.429  0.00  0.00    +0.050 C 
ATOM      6  C   LIG    1       -5.688  -0.876  -7.287  0.00  0.00    +0.130 C 
ATOM      7  C   LIG    1       -4.284  -1.530  -7.332  0.00  0.00    +0.280 C 
ENDROOT
BRANCH   6   8
ATOM      8  N   LIG    1       -6.141  -0.509  -8.636  0.00  0.00    -0.530 NA
ATOM      9  C   LIG    1       -7.417   0.219  -8.582  0.00  0.00    +0.160 C 
ATOM     10  C   LIG    1       -7.821   0.633 -10.000  0.00  0.00    +0.220 C 
ATOM     11  O   LIG    1       -7.896  -0.530 -10.828  0.00  0.00    -0.380 OA
ATOM     12  C   LIG    1       -6.670  -1.263 -10.903  0.00  0.00    +0.220 C 
ATOM     13  C   LIG    1       -6.254  -1.696  -9.495  0.00  0.00    +0.150 C 
ENDBRANCH   6   8
BRANCH   2  14
ATOM     14  C   LIG    1       -2.343  -1.732  -4.015  0.00  0.00    -0.120 A 
ATOM     15  C   LIG    1       -1.468  -2.591  -3.347  0.00  0.00    +0.080 A 
ATOM     16  C   LIG    1       -1.096  -2.316  -2.047  0.00  0.00    +0.020 A 
ATOM     17  C   LIG    1       -1.588  -1.194  -1.406  0.00  0.00    -0.090 A 
ATOM     18  C   LIG    1       -2.460  -0.341  -2.061  0.00  0.00    +0.020 A 
ATOM     19  C   LIG    1       -2.836  -0.601  -3.362  0.00  0.00    +0.040 A 
BRANCH  17  20
ATOM     20  C   LIG    1       -1.177  -0.900   0.014  0.00  0.00    +0.350 C 
BRANCH  20  21
ATOM     21  N   LIG    1        0.030  -0.071   0.012  0.00  0.00    -0.460 N 
ATOM     22  C   LIG    1        0.076   1.297   0.004  0.00  0.00    +0.110 A 
ATOM     23  C   LIG    1        1.377   1.644   0.005  0.00  0.00    +0.140 A 
ATOM     24  N   LIG    1        2.106   0.518   0.014  0.00  0.00    -0.490 NA
ATOM     25  C   LIG    1        1.306  -0.513   0.018  0.00  0.00    +0.380 A 
ENDBRANCH  20  21
ENDBRANCH  17  20
ENDBRANCH   2  14
TORSDOF 4
