REMARK  Name = ZINCkj000005jtei.1
REMARK                            x       y       z     vdW  Elec       q    Type
REMARK                         _______ _______ _______ _____ _____    ______ ____
ROOT
ATOM      1  C   LIG    1        0.034   1.495   1.356  0.00  0.00    +0.390 C 
ENDROOT
BRANCH   1   2
ATOM      2  N   LIG    1        0.991   1.023   2.360  0.00  0.00    -0.450 N 
ATOM      3  N   LIG    1        0.942  -0.202   3.039  0.00  0.00    -0.300 NA
ATOM      4  C   LIG    1        1.972  -0.255   3.851  0.00  0.00    +0.320 A 
ATOM      5  C   LIG    1        2.411  -1.247   4.764  0.00  0.00    +0.020 A 
ATOM      6  C   LIG    1        3.535  -1.031   5.489  0.00  0.00    +0.140 A 
ATOM      7  C   LIG    1        4.253   0.172   5.329  0.00  0.00    +0.000 A 
ATOM      8  C   LIG    1        3.833   1.110   4.462  0.00  0.00    +0.300 A 
ATOM      9  N   LIG    1        2.696   0.915   3.714  0.00  0.00    -0.480 N 
ATOM     10  C   LIG    1        2.084   1.685   2.792  0.00  0.00    +0.650 A 
ATOM     11  O   LIG    1        2.451   2.785   2.418  0.00  0.00    -0.530 OA
ENDBRANCH   1   2
BRANCH   1  12
ATOM     12  C   LIG    1        0.490   1.050  -0.034  0.00  0.00    +0.250 C 
BRANCH  12  18
ATOM     13  C   LIG    1       -0.671   3.515  -3.115  0.00  0.00    +0.070 C 
ATOM     14  C   LIG    1       -0.738   2.019  -3.428  0.00  0.00    +0.070 C 
ATOM     15  S   LIG    1       -2.469   1.462  -3.383  0.00  0.00    -0.170 S 
ATOM     16  C   LIG    1       -2.856   1.589  -1.610  0.00  0.00    +0.140 C 
ATOM     17  C   LIG    1       -1.759   0.864  -0.822  0.00  0.00    +0.270 C 
ATOM     18  N   LIG    1       -0.470   1.524  -1.040  0.00  0.00    -0.380 N 
ATOM     19  H   LIG    1       -0.587   2.521  -0.941  0.00  0.00    +0.420 HD
ATOM     20  C   LIG    1        0.052   1.232  -2.377  0.00  0.00    +0.180 C 
ATOM     21  C   LIG    1       -0.080  -0.266  -2.659  0.00  0.00    +0.100 C 
ENDBRANCH  12  18
ENDBRANCH   1  12
TORSDOF 3
