REMARK  Name = ZINCkj000005jtei.0
REMARK                            x       y       z     vdW  Elec       q    Type
REMARK                         _______ _______ _______ _____ _____    ______ ____
ROOT
ATOM      1  C   LIG    1        4.514   0.115  -1.205  0.00  0.00    +0.390 C 
ENDROOT
BRANCH   1   2
ATOM      2  N   LIG    1        5.552  -0.377  -2.115  0.00  0.00    -0.450 N 
ATOM      3  N   LIG    1        6.268  -1.575  -1.985  0.00  0.00    -0.300 NA
ATOM      4  C   LIG    1        7.102  -1.658  -2.995  0.00  0.00    +0.320 A 
ATOM      5  C   LIG    1        8.053  -2.644  -3.361  0.00  0.00    +0.020 A 
ATOM      6  C   LIG    1        8.799  -2.463  -4.478  0.00  0.00    +0.140 A 
ATOM      7  C   LIG    1        8.623  -1.303  -5.260  0.00  0.00    +0.000 A 
ATOM      8  C   LIG    1        7.719  -0.372  -4.909  0.00  0.00    +0.300 A 
ATOM      9  N   LIG    1        6.950  -0.531  -3.781  0.00  0.00    -0.480 N 
ATOM     10  C   LIG    1        5.996   0.244  -3.227  0.00  0.00    +0.650 A 
ATOM     11  O   LIG    1        5.604   1.316  -3.655  0.00  0.00    -0.530 OA
ENDBRANCH   1   2
BRANCH   1  12
ATOM     12  C   LIG    1        3.147  -0.393  -1.669  0.00  0.00    +0.250 C 
BRANCH  12  18
ATOM     13  C   LIG    1       -1.455  -1.213  -0.274  0.00  0.00    +0.120 C 
ATOM     14  C   LIG    1       -0.141  -0.527   0.103  0.00  0.00    +0.030 C 
ATOM     15  S   LIG    1       -0.450   1.228   0.470  0.00  0.00    -0.190 S 
ATOM     16  C   LIG    1        1.242   1.885   0.599  0.00  0.00    +0.140 C 
ATOM     17  C   LIG    1        2.026   1.452  -0.644  0.00  0.00    +0.280 C 
ATOM     18  N   LIG    1        2.123  -0.008  -0.689  0.00  0.00    -0.380 N 
ATOM     19  H   LIG    1        2.393  -0.350   0.222  0.00  0.00    +0.420 HD
ATOM     20  C   LIG    1        0.844  -0.611  -1.069  0.00  0.00    +0.170 C 
ATOM     21  C   LIG    1        1.065  -2.078  -1.443  0.00  0.00    +0.100 C 
ENDBRANCH  12  18
ENDBRANCH   1  12
TORSDOF 3
