REMARK  Name = ZINCrg00000ybzXy.0
REMARK                            x       y       z     vdW  Elec       q    Type
REMARK                         _______ _______ _______ _____ _____    ______ ____
ROOT
ATOM      1  C   LIG    1       -3.118  -0.484   1.863  0.00  0.00    +0.180 C 
ENDROOT
BRANCH   1   2
ATOM      2  O   LIG    1       -2.052  -1.319   2.322  0.00  0.00    -0.550 OA
ATOM      3  H   LIG    1       -1.929  -2.122   1.798  0.00  0.00    +0.380 HD
ENDBRANCH   1   2
BRANCH   1   4
ATOM      4  C   LIG    1       -4.434  -1.263   1.914  0.00  0.00    +0.260 C 
BRANCH   4   6
ATOM      5  C   LIG    1       -5.502  -0.722   4.036  0.00  0.00    +0.490 C 
ATOM      6  N   LIG    1       -4.761  -1.579   3.307  0.00  0.00    -0.610 N 
ATOM      7  C   LIG    1       -4.282  -2.828   3.906  0.00  0.00    +0.290 C 
ATOM      8  O   LIG    1       -5.897   0.311   3.540  0.00  0.00    -0.520 OA
BRANCH   5   9
ATOM      9  C   LIG    1       -5.838  -1.047   5.469  0.00  0.00    +0.170 C 
BRANCH   9  10
ATOM     10  C   LIG    1       -4.554  -1.075   6.301  0.00  0.00    +0.050 C 
ATOM     11  C   LIG    1       -4.878  -1.530   7.724  0.00  0.00    +0.020 C 
ENDBRANCH   9  10
BRANCH   9  12
ATOM     12  O   LIG    1       -6.721  -0.051   5.989  0.00  0.00    -0.350 OA
BRANCH  12  14
ATOM     13  C   LIG    1       -8.955   0.804   6.335  0.00  0.00    +0.050 C 
ATOM     14  C   LIG    1       -8.106  -0.376   5.856  0.00  0.00    +0.160 C 
ENDBRANCH  12  14
ENDBRANCH   9  12
ENDBRANCH   5   9
ENDBRANCH   4   6
ENDBRANCH   1   4
BRANCH   1  15
ATOM     15  C   LIG    1       -2.840  -0.046   0.424  0.00  0.00    +0.260 C 
BRANCH  15  16
ATOM     16  N   LIG    1       -1.580   0.700   0.376  0.00  0.00    -0.600 N 
ATOM     17  C   LIG    1       -0.419   0.049   0.163  0.00  0.00    +0.590 C 
ATOM     18  O   LIG    1       -0.425  -1.143  -0.079  0.00  0.00    -0.520 OA
ATOM     19  C   LIG    1       -1.582   2.153   0.558  0.00  0.00    +0.290 C 
BRANCH  17  20
ATOM     20  C   LIG    1        0.858   0.780   0.224  0.00  0.00    -0.120 A 
ATOM     21  C   LIG    1        1.280   1.567  -0.840  0.00  0.00    +0.110 A 
ATOM     22  C   LIG    1        2.498   2.247  -0.744  0.00  0.00    -0.010 A 
ATOM     23  C   LIG    1        3.268   2.152   0.362  0.00  0.00    +0.300 A 
ATOM     24  N   LIG    1        2.898   1.394   1.431  0.00  0.00    -0.280 N 
ATOM     25  N   LIG    1        3.507   1.139   2.667  0.00  0.00    -0.310 NA
ATOM     26  C   LIG    1        2.738   0.331   3.361  0.00  0.00    +0.280 A 
ATOM     27  C   LIG    1        1.605   0.034   2.615  0.00  0.00    -0.110 A 
ATOM     28  C   LIG    1        1.715   0.699   1.408  0.00  0.00    +0.120 A 
ENDBRANCH  17  20
ENDBRANCH  15  16
ENDBRANCH   1  15
TORSDOF 10
