REMARK  Name = ZINCqH0000006ZxW.0
REMARK                            x       y       z     vdW  Elec       q    Type
REMARK                         _______ _______ _______ _____ _____    ______ ____
ROOT
ATOM      1  C   LIG    1       -3.433   1.861   0.032  0.00  0.00    +0.120 A 
ATOM      2  C   LIG    1       -3.190   3.183   0.000  0.00  0.00    -0.250 A 
ATOM      3  S   LIG    1       -1.444   3.423   0.000  0.00  0.00    +0.200 S 
ATOM      4  C   LIG    1       -1.204   1.679   0.044  0.00  0.00    +0.270 A 
ATOM      5  C   LIG    1       -4.231   4.272  -0.031  0.00  0.00    +0.160 C 
ATOM      6  N   LIG    1       -2.358   1.086   0.050  0.00  0.00    -0.490 NA
ENDROOT
BRANCH   1  10
ATOM      7  C   LIG    1       -7.380   0.275   0.058  0.00  0.00    +0.130 A 
ATOM      8  C   LIG    1       -6.414  -0.258   0.901  0.00  0.00    -0.020 A 
ATOM      9  C   LIG    1       -5.133   0.254   0.895  0.00  0.00    +0.080 A 
ATOM     10  C   LIG    1       -4.809   1.307   0.041  0.00  0.00    -0.050 A 
ATOM     11  C   LIG    1       -5.783   1.843  -0.800  0.00  0.00    +0.070 A 
ATOM     12  C   LIG    1       -7.060   1.323  -0.793  0.00  0.00    -0.080 A 
BRANCH   7  14
ATOM     13  C   LIG    1       -9.585   0.363  -0.826  0.00  0.00    +0.250 C 
ATOM     14  O   LIG    1       -8.641  -0.232   0.066  0.00  0.00    -0.320 OA
ENDBRANCH   7  14
ENDBRANCH   1  10
BRANCH   4  15
ATOM     15  N   LIG    1        0.028   1.038   0.064  0.00  0.00    -0.620 N 
ATOM     16  H   LIG    1        0.071   0.069   0.088  0.00  0.00    +0.430 HD
ATOM     17  C   LIG    1        1.165   1.762   0.044  0.00  0.00    +0.510 C 
ATOM     18  O   LIG    1        1.111   2.973   0.014  0.00  0.00    -0.500 OA
BRANCH  17  19
ATOM     19  C   LIG    1        2.502   1.067   0.059  0.00  0.00    +0.090 C 
BRANCH  19  20
ATOM     20  C   LIG    1        3.620   2.111   0.031  0.00  0.00    +0.030 C 
BRANCH  20  21
ATOM     21  C   LIG    1        4.977   1.405   0.046  0.00  0.00    +0.020 C 
BRANCH  21  22
ATOM     22  C   LIG    1        6.095   2.449   0.019  0.00  0.00    +0.010 C 
BRANCH  22  23
ATOM     23  C   LIG    1        7.453   1.743   0.034  0.00  0.00    +0.260 C 
BRANCH  23  24
ATOM     24  N   LIG    1        8.523   2.743   0.007  0.00  0.00    -0.730 N 
ATOM     25  H   LIG    1        8.304   3.687  -0.016  0.00  0.00    +0.400 HD
ATOM     26  C   LIG    1        9.812   2.350   0.015  0.00  0.00    +0.510 C 
ATOM     27  O   LIG    1       10.086   1.168   0.044  0.00  0.00    -0.550 OA
ATOM     28  C   LIG    1       10.914   3.378  -0.013  0.00  0.00    +0.090 C 
ENDBRANCH  23  24
ENDBRANCH  22  23
ENDBRANCH  21  22
ENDBRANCH  20  21
ENDBRANCH  19  20
ENDBRANCH  17  19
ENDBRANCH   4  15
TORSDOF 9
