REMARK  Name = ZINCtV000002AT3Q.0
REMARK                            x       y       z     vdW  Elec       q    Type
REMARK                         _______ _______ _______ _____ _____    ______ ____
ROOT
ATOM      1  C   LIG    1       -4.619   0.743   0.166  0.00  0.00    +0.160 A 
ATOM      2  N   LIG    1       -3.889  -0.337   0.007  0.00  0.00    -0.290 NA
ATOM      3  N   LIG    1       -2.652  -0.017  -0.133  0.00  0.00    -0.250 NA
ATOM      4  C   LIG    1       -2.516   1.287  -0.063  0.00  0.00    +0.220 A 
ATOM      5  N   LIG    1       -3.772   1.814   0.126  0.00  0.00    -0.450 N 
ENDROOT
BRANCH   4   6
ATOM      6  C   LIG    1       -1.252   2.045  -0.174  0.00  0.00    -0.060 A 
ATOM      7  C   LIG    1       -0.950   3.043   0.754  0.00  0.00    +0.060 A 
ATOM      8  C   LIG    1        0.229   3.751   0.642  0.00  0.00    +0.010 A 
ATOM      9  C   LIG    1        1.115   3.471  -0.384  0.00  0.00    +0.070 A 
ATOM     10  C   LIG    1        0.826   2.480  -1.304  0.00  0.00    +0.000 A 
ATOM     11  C   LIG    1       -0.351   1.763  -1.205  0.00  0.00    +0.140 A 
ATOM     12  F   LIG    1       -0.633   0.795  -2.104  0.00  0.00    -0.120 F 
ENDBRANCH   4   6
BRANCH   5  13
ATOM     13  C   LIG    1       -4.127   3.229   0.259  0.00  0.00    +0.240 C 
ATOM     14  C   LIG    1       -4.778   3.466   1.623  0.00  0.00    +0.010 C 
ATOM     15  C   LIG    1       -5.149   4.944   1.762  0.00  0.00    +0.040 C 
ATOM     16  C   LIG    1       -6.132   5.329   0.654  0.00  0.00    +0.010 C 
ATOM     17  C   LIG    1       -5.481   5.092  -0.710  0.00  0.00    +0.030 C 
ATOM     18  C   LIG    1       -5.110   3.614  -0.849  0.00  0.00    +0.020 C 
ENDBRANCH   5  13
BRANCH   1  19
ATOM     19  S   LIG    1       -6.367   0.800   0.386  0.00  0.00    +0.020 S 
BRANCH  19  20
ATOM     20  C   LIG    1       -6.749  -0.968   0.325  0.00  0.00    +0.150 C 
BRANCH  20  24
ATOM     21  C   LIG    1      -10.958  -1.534   0.810  0.00  0.00    +0.110 A 
ATOM     22  C   LIG    1      -10.421  -1.368  -0.457  0.00  0.00    -0.040 A 
ATOM     23  C   LIG    1       -9.059  -1.185  -0.611  0.00  0.00    +0.070 A 
ATOM     24  C   LIG    1       -8.233  -1.167   0.497  0.00  0.00    -0.090 A 
ATOM     25  C   LIG    1       -8.764  -1.337   1.762  0.00  0.00    +0.060 A 
ATOM     26  C   LIG    1      -10.126  -1.515   1.923  0.00  0.00    +0.070 A 
ATOM     27  F   LIG    1      -10.646  -1.676   3.159  0.00  0.00    -0.130 F 
BRANCH  21  29
ATOM     28  C   LIG    1      -13.091  -1.722  -0.224  0.00  0.00    +0.250 C 
ATOM     29  O   LIG    1      -12.297  -1.714   0.964  0.00  0.00    -0.310 OA
ENDBRANCH  21  29
ENDBRANCH  20  24
ENDBRANCH  19  20
ENDBRANCH   1  19
TORSDOF 6
