REMARK  Name = ZINCpe000000ZuOt.0
REMARK                            x       y       z     vdW  Elec       q    Type
REMARK                         _______ _______ _______ _____ _____    ______ ____
ROOT
ATOM      1  O   LIG    1       -2.117   6.859  -0.181  0.00  0.00    -0.530 OA
ATOM      2  C   LIG    1       -0.902   6.869  -0.119  0.00  0.00    +0.590 C 
ATOM      3  N   LIG    1       -0.240   8.041  -0.051  0.00  0.00    -0.600 N 
ATOM      4  C   LIG    1        1.223   8.197   0.035  0.00  0.00    +0.280 C 
ATOM      5  C   LIG    1        1.502   9.616  -0.528  0.00  0.00    +0.050 C 
ATOM      6  C   LIG    1        0.285  10.409   0.018  0.00  0.00    +0.160 C 
ATOM      7  C   LIG    1       -0.858   9.374  -0.044  0.00  0.00    +0.240 C 
ENDROOT
BRANCH   2   8
ATOM      8  C   LIG    1       -0.154   5.599  -0.117  0.00  0.00    +0.000 A 
ATOM      9  C   LIG    1       -0.834   4.395  -0.187  0.00  0.00    +0.130 A 
ATOM     10  C   LIG    1       -0.083   3.206  -0.182  0.00  0.00    +0.020 A 
ATOM     11  C   LIG    1       -0.424   1.867  -0.244  0.00  0.00    -0.010 A 
ATOM     12  C   LIG    1        0.768   1.140  -0.199  0.00  0.00    +0.010 A 
ATOM     13  C   LIG    1        1.796   2.021  -0.120  0.00  0.00    +0.160 A 
ATOM     14  N   LIG    1        1.297   3.285  -0.109  0.00  0.00    -0.390 N 
ATOM     15  C   LIG    1        1.897   4.514  -0.043  0.00  0.00    +0.520 A 
ATOM     16  N   LIG    1        1.200   5.610  -0.047  0.00  0.00    -0.470 NA
ENDBRANCH   2   8
BRANCH   6  17
ATOM     17  O   LIG    1       -0.003  11.532  -0.818  0.00  0.00    -0.350 OA
BRANCH  17  18
ATOM     18  C   LIG    1       -0.682  12.596  -0.148  0.00  0.00    +0.180 C 
BRANCH  18  19
ATOM     19  C   LIG    1       -0.937  13.738  -1.134  0.00  0.00    +0.200 C 
BRANCH  19  20
ATOM     20  N   LIG    1       -1.864  13.284  -2.180  0.00  0.00    -0.530 NA
ATOM     21  C   LIG    1       -1.783  14.149  -3.366  0.00  0.00    +0.150 C 
ATOM     22  C   LIG    1       -2.718  13.607  -4.451  0.00  0.00    +0.220 C 
ATOM     23  O   LIG    1       -4.048  13.525  -3.929  0.00  0.00    -0.390 OA
ATOM     24  C   LIG    1       -4.163  12.690  -2.774  0.00  0.00    +0.220 C 
ATOM     25  C   LIG    1       -3.242  13.223  -1.673  0.00  0.00    +0.150 C 
ENDBRANCH  19  20
ENDBRANCH  18  19
ENDBRANCH  17  18
ENDBRANCH   6  17
TORSDOF 5
