REMARK  Name = ZINCkj000005i8HA.0
REMARK                            x       y       z     vdW  Elec       q    Type
REMARK                         _______ _______ _______ _____ _____    ______ ____
ROOT
ATOM      1  N   LIG    1       -0.215   2.294   3.571  0.00  0.00    -0.630 N 
ATOM      2  H   LIG    1       -1.107   2.675   3.559  0.00  0.00    +0.420 HD
ATOM      3  C   LIG    1        0.180   1.471   2.580  0.00  0.00    +0.510 C 
ATOM      4  O   LIG    1        1.320   1.059   2.552  0.00  0.00    -0.500 OA
ENDROOT
BRANCH   3   5
ATOM      5  C   LIG    1       -0.795   1.063   1.505  0.00  0.00    +0.090 C 
ATOM      6  C   LIG    1       -1.010   2.217   0.487  0.00  0.00    +0.110 C 
ATOM      7  C   LIG    1       -1.419   1.439  -0.789  0.00  0.00    +0.280 C 
ATOM      8  N   LIG    1       -0.594   0.212  -0.764  0.00  0.00    -0.510 N 
ATOM      9  H   LIG    1       -1.130  -0.562  -1.126  0.00  0.00    +0.440 HD
ATOM     10  H   LIG    1        0.232   0.347  -1.327  0.00  0.00    +0.440 HD
ATOM     11  F   LIG    1       -2.013   0.666   2.066  0.00  0.00    -0.160 F 
ATOM     12  C   LIG    1       -0.204  -0.063   0.631  0.00  0.00    +0.310 C 
ENDBRANCH   3   5
BRANCH   1  18
ATOM     13  C   LIG    1        0.169   2.792   5.909  0.00  0.00    +0.120 A 
ATOM     14  C   LIG    1        1.042   3.089   6.944  0.00  0.00    -0.050 A 
ATOM     15  C   LIG    1        2.397   3.202   6.694  0.00  0.00    +0.050 A 
ATOM     16  C   LIG    1        2.886   3.015   5.415  0.00  0.00    -0.010 A 
ATOM     17  C   LIG    1        2.023   2.714   4.378  0.00  0.00    +0.060 A 
ATOM     18  C   LIG    1        0.662   2.599   4.621  0.00  0.00    +0.090 A 
BRANCH  13  19
ATOM     19  O   LIG    1       -1.164   2.686   6.152  0.00  0.00    -0.310 OA
BRANCH  19  20
ATOM     20  C   LIG    1       -1.598   2.898   7.497  0.00  0.00    +0.220 C 
BRANCH  20  21
ATOM     21  C   LIG    1       -3.118   2.739   7.575  0.00  0.00    +0.200 C 
BRANCH  21  23
ATOM     22  C   LIG    1       -4.875   1.130   7.317  0.00  0.00    +0.210 C 
ATOM     23  O   LIG    1       -3.470   1.387   7.272  0.00  0.00    -0.390 OA
ENDBRANCH  21  23
ENDBRANCH  20  21
ENDBRANCH  19  20
ENDBRANCH  13  19
ENDBRANCH   1  18
TORSDOF 6
