REMARK  Name = ZINCvU00000003WE.0
REMARK                            x       y       z     vdW  Elec       q    Type
REMARK                         _______ _______ _______ _____ _____    ______ ____
ROOT
ATOM      1  C   LIG    1        3.621   3.193   0.074  0.00  0.00    +0.240 C 
ENDROOT
BRANCH   1   3
ATOM      2  N   LIG    1        5.844   3.559   1.095  0.00  0.00    -0.610 N 
ATOM      3  C   LIG    1        4.591   4.010   0.887  0.00  0.00    +0.510 C 
ATOM      4  O   LIG    1        4.245   5.074   1.355  0.00  0.00    -0.520 OA
ATOM      5  C   LIG    1        6.298   2.329   0.439  0.00  0.00    +0.280 C 
BRANCH   2   6
ATOM      6  C   LIG    1        6.753   4.297   1.975  0.00  0.00    +0.350 C 
BRANCH   6  10
ATOM      7  C   LIG    1        6.335   2.863   5.982  0.00  0.00    +0.110 A 
ATOM      8  C   LIG    1        5.546   3.909   5.532  0.00  0.00    -0.030 A 
ATOM      9  C   LIG    1        5.687   4.374   4.237  0.00  0.00    +0.040 A 
ATOM     10  C   LIG    1        6.607   3.790   3.387  0.00  0.00    -0.110 A 
ATOM     11  C   LIG    1        7.397   2.745   3.830  0.00  0.00    -0.030 A 
ATOM     12  C   LIG    1        7.264   2.279   5.127  0.00  0.00    +0.100 A 
BRANCH   7  14
ATOM     13  C   LIG    1        5.226   3.055   8.078  0.00  0.00    +0.250 C 
ATOM     14  O   LIG    1        6.201   2.408   7.257  0.00  0.00    -0.310 OA
ENDBRANCH   7  14
BRANCH  12  15
ATOM     15  O   LIG    1        8.041   1.251   5.564  0.00  0.00    -0.310 OA
ATOM     16  C   LIG    1        8.973   0.700   4.632  0.00  0.00    +0.230 C 
ENDBRANCH  12  15
ENDBRANCH   6  10
ENDBRANCH   2   6
ENDBRANCH   1   3
BRANCH   1  17
ATOM     17  C   LIG    1        3.954   3.336  -1.412  0.00  0.00    -0.020 C 
ATOM     18  C   LIG    1        3.730   4.785  -1.848  0.00  0.00    +0.030 C 
ATOM     19  C   LIG    1        3.048   2.412  -2.229  0.00  0.00    +0.030 C 
ENDBRANCH   1  17
BRANCH   1  20
ATOM     20  N   LIG    1        2.257   3.670   0.317  0.00  0.00    -0.710 N 
ATOM     21  H   LIG    1        2.086   4.620   0.412  0.00  0.00    +0.420 HD
BRANCH  20  22
ATOM     22  C   LIG    1        1.204   2.756   0.412  0.00  0.00    +0.270 A 
ATOM     23  C   LIG    1        1.450   1.395   0.292  0.00  0.00    -0.060 A 
ATOM     24  C   LIG    1        0.407   0.495   0.386  0.00  0.00    +0.130 A 
ATOM     25  C   LIG    1       -0.883   0.947   0.594  0.00  0.00    -0.240 A 
ATOM     26  C   LIG    1       -1.132   2.302   0.719  0.00  0.00    +0.140 A 
ATOM     27  C   LIG    1       -0.093   3.208   0.626  0.00  0.00    -0.120 A 
ATOM     28 CL   LIG    1       -0.407   4.909   0.776  0.00  0.00    -0.050 Cl
BRANCH  25  29
ATOM     29  C   LIG    1       -2.019  -0.038   0.690  0.00  0.00    +0.520 C 
ATOM     30  F   LIG    1       -1.727  -1.163  -0.089  0.00  0.00    -0.180 F 
ATOM     31  F   LIG    1       -3.195   0.559   0.223  0.00  0.00    -0.180 F 
ATOM     32  F   LIG    1       -2.189  -0.425   2.023  0.00  0.00    -0.180 F 
ENDBRANCH  25  29
ENDBRANCH  20  22
ENDBRANCH   1  20
TORSDOF 9
