REMARK  Name = ZINCkj000005hlAz.0
REMARK                            x       y       z     vdW  Elec       q    Type
REMARK                         _______ _______ _______ _____ _____    ______ ____
ROOT
ATOM      1  C   LIG    1       -3.873   7.275  -2.754  0.00  0.00    +0.320 C 
ATOM      2  N   LIG    1       -4.883   6.618  -1.915  0.00  0.00    -0.390 N 
ATOM      3  C   LIG    1       -5.411   7.583  -0.926  0.00  0.00    +0.250 C 
ATOM      4  C   LIG    1       -5.649   6.746   0.356  0.00  0.00    +0.080 C 
ATOM      5  C   LIG    1       -4.448   5.764   0.318  0.00  0.00    +0.070 C 
ATOM      6  C   LIG    1       -4.270   5.495  -1.188  0.00  0.00    +0.050 C 
ATOM      7  C   LIG    1       -4.967   4.186  -1.560  0.00  0.00    +0.060 C 
ATOM      8  C   LIG    1       -4.289   3.026  -0.826  0.00  0.00    +0.190 C 
ATOM      9  N   LIG    1       -2.868   2.979  -1.192  0.00  0.00    -0.510 NA
ATOM     10  C   LIG    1       -2.171   4.207  -0.787  0.00  0.00    +0.200 C 
ATOM     11  C   LIG    1       -2.781   5.405  -1.520  0.00  0.00    +0.070 C 
ATOM     12  H   LIG    1       -5.637   6.278  -2.493  0.00  0.00    +0.430 HD
ENDROOT
BRANCH   9  13
ATOM     13  C   LIG    1       -2.216   1.792  -0.622  0.00  0.00    +0.190 C 
ATOM     14  C   LIG    1       -2.363   1.782   0.918  0.00  0.00    +0.010 C 
ATOM     15  C   LIG    1       -2.541   0.275   1.207  0.00  0.00    +0.270 C 
ATOM     16  N   LIG    1       -3.096  -0.299  -0.024  0.00  0.00    -0.590 N 
ATOM     17  C   LIG    1       -2.922   0.531  -1.069  0.00  0.00    +0.520 C 
ATOM     18  O   LIG    1       -3.279   0.301  -2.205  0.00  0.00    -0.500 OA
BRANCH  16  19
ATOM     19  C   LIG    1       -3.755  -1.605  -0.103  0.00  0.00    +0.210 C 
ATOM     20  C   LIG    1       -4.093  -2.143  -1.496  0.00  0.00    +0.040 C 
ATOM     21  C   LIG    1       -5.209  -1.636  -0.579  0.00  0.00    +0.000 C 
ENDBRANCH  16  19
ENDBRANCH   9  13
TORSDOF 2
