REMARK  Name = ZINCkj000005hlAz.1
REMARK                            x       y       z     vdW  Elec       q    Type
REMARK                         _______ _______ _______ _____ _____    ______ ____
ROOT
ATOM      1  C   LIG    1        3.891   3.506  -5.306  0.00  0.00    +0.320 C 
ATOM      2  N   LIG    1        4.274   2.196  -4.763  0.00  0.00    -0.390 N 
ATOM      3  C   LIG    1        5.744   2.040  -4.827  0.00  0.00    +0.260 C 
ATOM      4  C   LIG    1        6.115   1.255  -3.544  0.00  0.00    +0.080 C 
ATOM      5  C   LIG    1        5.122   1.853  -2.511  0.00  0.00    +0.070 C 
ATOM      6  C   LIG    1        3.857   2.103  -3.354  0.00  0.00    +0.050 C 
ATOM      7  C   LIG    1        2.881   0.940  -3.172  0.00  0.00    +0.070 C 
ATOM      8  C   LIG    1        2.428   0.886  -1.710  0.00  0.00    +0.210 C 
ATOM      9  N   LIG    1        1.792   2.158  -1.347  0.00  0.00    -0.520 NA
ATOM     10  C   LIG    1        2.735   3.278  -1.461  0.00  0.00    +0.210 C 
ATOM     11  C   LIG    1        3.198   3.410  -2.914  0.00  0.00    +0.060 C 
ATOM     12  H   LIG    1        3.831   1.464  -5.298  0.00  0.00    +0.430 HD
ENDROOT
BRANCH   9  13
ATOM     13  C   LIG    1        1.214   2.092   0.002  0.00  0.00    +0.190 C 
ATOM     14  C   LIG    1        2.331   2.111   1.071  0.00  0.00    +0.020 C 
ATOM     15  C   LIG    1        2.419   3.617   1.407  0.00  0.00    +0.260 C 
ATOM     16  N   LIG    1        1.099   4.170   1.080  0.00  0.00    -0.590 N 
ATOM     17  C   LIG    1        0.401   3.335   0.292  0.00  0.00    +0.530 C 
ATOM     18  O   LIG    1       -0.716   3.548  -0.130  0.00  0.00    -0.500 OA
BRANCH  16  19
ATOM     19  C   LIG    1        0.606   5.465   1.554  0.00  0.00    +0.200 C 
ATOM     20  C   LIG    1       -0.865   5.798   1.295  0.00  0.00    +0.040 C 
ATOM     21  C   LIG    1        0.233   6.509   0.499  0.00  0.00    +0.000 C 
ENDBRANCH  16  19
ENDBRANCH   9  13
TORSDOF 2
