REMARK  Name = ZINCvU0000000DPt.0
REMARK                            x       y       z     vdW  Elec       q    Type
REMARK                         _______ _______ _______ _____ _____    ______ ____
ROOT
ATOM      1  C   LIG    1        5.425  -1.709  -0.028  0.00  0.00    +0.070 C 
ATOM      2  C   LIG    1        6.137  -1.051   1.155  0.00  0.00    +0.080 C 
ENDROOT
BRANCH   1   3
ATOM      3  C   LIG    1        3.966  -1.332  -0.009  0.00  0.00    +0.460 A 
ATOM      4  N   LIG    1        3.073  -2.283  -0.013  0.00  0.00    -0.550 NA
ATOM      5  C   LIG    1        1.759  -2.008   0.003  0.00  0.00    +0.540 A 
ATOM      6  C   LIG    1        1.327  -0.598   0.026  0.00  0.00    -0.210 A 
ATOM      7  C   LIG    1        2.317   0.369   0.029  0.00  0.00    +0.060 A 
ATOM      8  S   LIG    1        1.596   1.970   0.057  0.00  0.00    +0.210 S 
ATOM      9  C   LIG    1       -0.031   1.316   0.065  0.00  0.00    -0.010 A 
ATOM     10  C   LIG    1       -0.010  -0.019   0.047  0.00  0.00    +0.040 A 
ATOM     11  O   LIG    1        0.935  -2.909  -0.001  0.00  0.00    -0.460 OA
ATOM     12  N   LIG    1        3.636  -0.032   0.011  0.00  0.00    -0.580 N 
ATOM     13  H   LIG    1        4.338   0.638   0.014  0.00  0.00    +0.420 HD
BRANCH  10  14
ATOM     14  C   LIG    1       -1.238  -0.840   0.048  0.00  0.00    +0.040 A 
ATOM     15  C   LIG    1       -2.284  -0.710   0.906  0.00  0.00    -0.030 A 
ATOM     16  C   LIG    1       -3.232  -1.690   0.543  0.00  0.00    -0.070 A 
ATOM     17  C   LIG    1       -2.719  -2.367  -0.501  0.00  0.00    +0.180 A 
ATOM     18  O   LIG    1       -1.513  -1.851  -0.799  0.00  0.00    -0.150 OA
ENDBRANCH  10  14
ENDBRANCH   1   3
BRANCH   1  19
ATOM     19  S   LIG    1        5.585  -3.512   0.096  0.00  0.00    -0.050 S 
BRANCH  19  20
ATOM     20  C   LIG    1        7.370  -3.776  -0.096  0.00  0.00    -0.020 C 
ATOM     21  C   LIG    1        7.800  -3.352  -1.502  0.00  0.00    +0.080 C 
BRANCH  20  24
ATOM     22  N   LIG    1        8.916  -5.609   0.511  0.00  0.00    -0.660 N 
ATOM     23  H   LIG    1        9.621  -4.948   0.594  0.00  0.00    +0.410 HD
ATOM     24  C   LIG    1        7.686  -5.236   0.107  0.00  0.00    +0.540 C 
ATOM     25  O   LIG    1        6.833  -6.074  -0.093  0.00  0.00    -0.490 OA
BRANCH  22  31
ATOM     26  C   LIG    1        7.278 -10.031   1.902  0.00  0.00    +0.090 C 
ATOM     27  C   LIG    1        8.402  -9.117   1.488  0.00  0.00    -0.070 A 
ATOM     28  C   LIG    1        9.693  -9.604   1.404  0.00  0.00    -0.010 A 
ATOM     29  C   LIG    1       10.727  -8.767   1.025  0.00  0.00    +0.030 A 
ATOM     30  C   LIG    1       10.473  -7.443   0.728  0.00  0.00    -0.120 A 
ATOM     31  C   LIG    1        9.177  -6.951   0.811  0.00  0.00    +0.150 A 
ATOM     32  C   LIG    1       11.601  -6.532   0.315  0.00  0.00    +0.090 C 
ATOM     33  C   LIG    1        8.142  -7.791   1.198  0.00  0.00    +0.020 A 
ENDBRANCH  22  31
ENDBRANCH  20  24
ENDBRANCH  19  20
ENDBRANCH   1  19
TORSDOF 6
