REMARK  Name = ZINCkj000005jlxu.0
REMARK                            x       y       z     vdW  Elec       q    Type
REMARK                         _______ _______ _______ _____ _____    ______ ____
ROOT
ATOM      1  C   LIG    1        4.670   5.670  -0.013  0.00  0.00    +0.040 C 
ENDROOT
BRANCH   1   2
ATOM      2  C   LIG    1        5.998   6.429  -0.022  0.00  0.00    +0.270 C 
BRANCH   2   6
ATOM      3  C   LIG    1        8.057  10.870   0.166  0.00  0.00    +0.110 C 
ATOM      4  C   LIG    1        6.731  10.108   0.111  0.00  0.00    +0.160 C 
ATOM      5  C   LIG    1        7.007   8.603   0.100  0.00  0.00    +0.240 C 
ATOM      6  N   LIG    1        5.736   7.875  -0.011  0.00  0.00    -0.390 N 
ATOM      7  C   LIG    1        5.060   8.259  -1.258  0.00  0.00    +0.240 C 
ATOM      8  C   LIG    1        4.788   9.765  -1.245  0.00  0.00    +0.220 C 
ATOM      9  C   LIG    1        3.849  10.105  -0.086  0.00  0.00    +0.040 C 
ATOM     10  H   LIG    1        5.146   8.104   0.775  0.00  0.00    +0.420 HD
ATOM     11  O   LIG    1        6.024  10.467  -1.079  0.00  0.00    -0.350 OA
ENDBRANCH   2   6
ENDBRANCH   1   2
BRANCH   1  12
ATOM     12  C   LIG    1        4.943   4.165  -0.024  0.00  0.00    +0.280 C 
BRANCH  12  13
ATOM     13  N   LIG    1        3.671   3.438  -0.015  0.00  0.00    -0.730 N 
ATOM     14  H   LIG    1        2.833   3.926  -0.004  0.00  0.00    +0.400 HD
ATOM     15  C   LIG    1        3.665   2.090  -0.022  0.00  0.00    +0.570 C 
ATOM     16  O   LIG    1        4.715   1.478  -0.036  0.00  0.00    -0.520 OA
BRANCH  15  17
ATOM     17  C   LIG    1        2.379   1.355  -0.013  0.00  0.00    -0.100 A 
ATOM     18  C   LIG    1        1.160   2.039   0.002  0.00  0.00    -0.010 A 
ATOM     19  C   LIG    1       -0.016   1.314   0.009  0.00  0.00    +0.270 A 
ATOM     20  N   LIG    1        0.002  -0.004   0.002  0.00  0.00    -0.460 NA
ATOM     21  C   LIG    1        1.129  -0.688  -0.012  0.00  0.00    +0.280 A 
ATOM     22  C   LIG    1        2.350  -0.043  -0.021  0.00  0.00    +0.040 A 
ENDBRANCH  15  17
ENDBRANCH  12  13
ENDBRANCH   1  12
TORSDOF 5
