REMARK  Name = ZINCpe000000TIth.0
REMARK                            x       y       z     vdW  Elec       q    Type
REMARK                         _______ _______ _______ _____ _____    ______ ____
ROOT
ATOM      1  N   LIG    1       -0.016   1.344   0.009  0.00  0.00    -0.710 N 
ATOM      2  H   LIG    1        0.817   1.840   0.004  0.00  0.00    +0.420 HD
ATOM      3  C   LIG    1        0.002  -0.004   0.002  0.00  0.00    +0.610 C 
ATOM      4  O   LIG    1       -1.043  -0.626   0.009  0.00  0.00    -0.530 OA
ENDROOT
BRANCH   3   5
ATOM      5  C   LIG    1        1.289  -0.724  -0.014  0.00  0.00    -0.100 A 
ATOM      6  C   LIG    1        1.445  -2.081  -0.017  0.00  0.00    +0.310 A 
ATOM      7  N   LIG    1        2.774  -2.322  -0.036  0.00  0.00    -0.300 N 
ATOM      8  N   LIG    1        3.411  -1.073  -0.035  0.00  0.00    -0.050 NA
ATOM      9  N   LIG    1        2.507  -0.156  -0.022  0.00  0.00    -0.200 NA
BRANCH   7  10
ATOM     10  C   LIG    1        3.397  -3.578  -0.050  0.00  0.00    +0.120 A 
ATOM     11  C   LIG    1        2.629  -4.735  -0.043  0.00  0.00    +0.020 A 
ATOM     12  C   LIG    1        3.245  -5.971  -0.062  0.00  0.00    +0.040 A 
ATOM     13  C   LIG    1        4.625  -6.057  -0.076  0.00  0.00    +0.030 A 
ATOM     14  C   LIG    1        5.393  -4.906  -0.076  0.00  0.00    +0.040 A 
ATOM     15  C   LIG    1        4.782  -3.668  -0.063  0.00  0.00    -0.060 A 
BRANCH  15  16
ATOM     16  C   LIG    1        5.619  -2.414  -0.064  0.00  0.00    +0.070 C 
ATOM     17  C   LIG    1        5.811  -1.929   1.374  0.00  0.00    +0.020 C 
ENDBRANCH  15  16
ENDBRANCH   7  10
ENDBRANCH   3   5
BRANCH   1  18
ATOM     18  C   LIG    1       -1.295   2.059   0.019  0.00  0.00    +0.240 C 
ATOM     19  C   LIG    1       -1.794   2.190   1.460  0.00  0.00    +0.040 C 
BRANCH  18  20
ATOM     20  C   LIG    1       -1.105   3.452  -0.584  0.00  0.00    +0.260 C 
BRANCH  20  21
ATOM     21  C   LIG    1       -2.441   4.141  -0.686  0.00  0.00    +0.440 C 
ATOM     22  O   LIG    1       -2.660   5.133  -0.033  0.00  0.00    -0.490 OA
BRANCH  21  23
ATOM     23  O   LIG    1       -3.386   3.654  -1.504  0.00  0.00    -0.350 OA
BRANCH  23  25
ATOM     24  C   LIG    1       -5.594   3.670  -2.532  0.00  0.00    +0.070 C 
ATOM     25  C   LIG    1       -4.649   4.369  -1.553  0.00  0.00    +0.200 C 
ENDBRANCH  23  25
ENDBRANCH  21  23
ENDBRANCH  20  21
BRANCH  20  26
ATOM     26  O   LIG    1       -0.236   4.219   0.253  0.00  0.00    -0.520 OA
ATOM     27  H   LIG    1       -0.565   4.340   1.154  0.00  0.00    +0.390 HD
ENDBRANCH  20  26
ENDBRANCH  18  20
ENDBRANCH   1  18
TORSDOF 9
