REMARK  Name = ZINCpe000000Xryp.0
REMARK                            x       y       z     vdW  Elec       q    Type
REMARK                         _______ _______ _______ _____ _____    ______ ____
ROOT
ATOM      1  N   LIG    1       -0.358   2.430  -1.363  0.00  0.00    -1.010 NA
ATOM      2  C   LIG    1       -1.585   3.002  -0.792  0.00  0.00    +0.290 C 
ATOM      3  C   LIG    1       -1.298   3.417   0.661  0.00  0.00    +0.280 C 
ATOM      4  N   LIG    1       -0.066   4.217   0.684  0.00  0.00    -0.610 N 
ATOM      5  C   LIG    1        1.160   3.647   0.109  0.00  0.00    +0.270 C 
ATOM      6  C   LIG    1       -0.061   5.452   1.225  0.00  0.00    +0.520 C 
ATOM      7  O   LIG    1       -1.095   5.943   1.626  0.00  0.00    -0.530 OA
ATOM      8  C   LIG    1        0.874   3.231  -1.339  0.00  0.00    +0.280 C 
ENDROOT
BRANCH   6   9
ATOM      9  C   LIG    1        1.230   6.223   1.331  0.00  0.00    -0.010 C 
ATOM     10  C   LIG    1        1.988   5.786   2.587  0.00  0.00    +0.080 C 
ATOM     11  C   LIG    1        3.133   6.719   2.849  0.00  0.00    -0.050 C 
ATOM     12  C   LIG    1        3.245   7.897   2.324  0.00  0.00    -0.040 C 
ATOM     13  C   LIG    1        2.249   8.489   1.370  0.00  0.00    +0.070 C 
ATOM     14  C   LIG    1        0.927   7.722   1.443  0.00  0.00    +0.050 C 
ENDBRANCH   6   9
BRANCH   1  15
ATOM     15  S   LIG    1       -0.364   0.913  -2.027  0.00  0.00    +2.780 S 
ATOM     16  O   LIG    1        0.719   0.872  -2.945  0.00  0.00    -0.970 OA
ATOM     17  O   LIG    1       -1.709   0.644  -2.400  0.00  0.00    -0.970 OA
BRANCH  15  21
ATOM     18  C   LIG    1       -1.799  -2.910   1.042  0.00  0.00    +0.070 C 
ATOM     19  C   LIG    1       -0.837  -2.275   0.035  0.00  0.00    +0.140 C 
ATOM     20  C   LIG    1       -1.048  -0.757   0.013  0.00  0.00    +0.270 C 
ATOM     21  N   LIG    1        0.008  -0.153  -0.816  0.00  0.00    -1.010 NA
ATOM     22  C   LIG    1        1.403  -0.531  -0.542  0.00  0.00    +0.270 C 
ATOM     23  C   LIG    1        1.495  -2.056  -0.489  0.00  0.00    +0.140 C 
ATOM     24  C   LIG    1        2.888  -2.470  -0.012  0.00  0.00    +0.070 C 
ATOM     25  O   LIG    1        0.511  -2.558   0.418  0.00  0.00    -0.370 OA
ENDBRANCH  15  21
ENDBRANCH   1  15
TORSDOF 3
