REMARK  Name = ZINCvU0000000Is7.0
REMARK                            x       y       z     vdW  Elec       q    Type
REMARK                         _______ _______ _______ _____ _____    ______ ____
ROOT
ATOM      1  N   LIG    1       -7.529   0.102   2.790  0.00  0.00    -0.720 N 
ATOM      2  H   LIG    1       -7.216   0.991   3.020  0.00  0.00    +0.400 HD
ATOM      3  C   LIG    1       -8.798  -0.079   2.374  0.00  0.00    +0.560 C 
ATOM      4  O   LIG    1       -9.190  -1.193   2.085  0.00  0.00    -0.510 OA
ENDROOT
BRANCH   3   5
ATOM      5  C   LIG    1       -9.712   1.075   2.270  0.00  0.00    -0.130 A 
ATOM      6  C   LIG    1       -9.311   2.332   2.723  0.00  0.00    +0.050 A 
ATOM      7  C   LIG    1      -10.168   3.408   2.619  0.00  0.00    +0.010 A 
ATOM      8  C   LIG    1      -11.431   3.248   2.076  0.00  0.00    +0.040 A 
ATOM      9  C   LIG    1      -11.848   2.010   1.627  0.00  0.00    +0.030 A 
ATOM     10  C   LIG    1      -10.996   0.914   1.718  0.00  0.00    +0.000 A 
BRANCH  10  11
ATOM     11  C   LIG    1      -11.439  -0.417   1.238  0.00  0.00    -0.010 A 
ATOM     12  C   LIG    1      -10.744  -1.058   0.214  0.00  0.00    +0.060 A 
ATOM     13  C   LIG    1      -11.159  -2.299  -0.226  0.00  0.00    +0.060 A 
ATOM     14  C   LIG    1      -12.268  -2.901   0.341  0.00  0.00    -0.180 A 
ATOM     15  C   LIG    1      -12.964  -2.267   1.354  0.00  0.00    +0.070 A 
ATOM     16  C   LIG    1      -12.556  -1.029   1.806  0.00  0.00    +0.020 A 
BRANCH  14  17
ATOM     17  C   LIG    1      -12.719  -4.253  -0.148  0.00  0.00    +0.510 C 
ATOM     18  F   LIG    1      -13.331  -4.948   0.901  0.00  0.00    -0.180 F 
ATOM     19  F   LIG    1      -11.612  -4.978  -0.604  0.00  0.00    -0.180 F 
ATOM     20  F   LIG    1      -13.632  -4.090  -1.195  0.00  0.00    -0.180 F 
ENDBRANCH  14  17
ENDBRANCH  10  11
ENDBRANCH   3   5
BRANCH   1  22
ATOM     21  C   LIG    1       -5.981  -1.312   1.530  0.00  0.00    +0.040 C 
ATOM     22  C   LIG    1       -6.621  -1.043   2.893  0.00  0.00    +0.290 C 
BRANCH  22  23
ATOM     23  C   LIG    1       -5.544  -0.741   3.903  0.00  0.00    -0.040 A 
ATOM     24  C   LIG    1       -5.118  -1.726   4.775  0.00  0.00    +0.010 A 
ATOM     25  C   LIG    1       -4.130  -1.449   5.701  0.00  0.00    +0.130 A 
ATOM     26  C   LIG    1       -3.567  -0.187   5.755  0.00  0.00    -0.660 A 
ATOM     27  C   LIG    1       -3.997   0.799   4.886  0.00  0.00    +0.130 A 
ATOM     28  C   LIG    1       -4.982   0.520   3.957  0.00  0.00    -0.010 A 
BRANCH  26  29
ATOM     29  S   LIG    1       -2.308   0.166   6.935  0.00  0.00    +2.500 S 
ATOM     30  O   LIG    1       -2.408   1.568   7.146  0.00  0.00    -0.940 OA
ATOM     31  O   LIG    1       -2.550  -0.753   7.991  0.00  0.00    -0.930 OA
ATOM     32  C   LIG    1       -0.760  -0.239   6.080  0.00  0.00    -0.260 C 
ENDBRANCH  26  29
ENDBRANCH  22  23
ENDBRANCH   1  22
TORSDOF 6
