REMARK  Name = ZINCvU0000000FhE.0
REMARK                            x       y       z     vdW  Elec       q    Type
REMARK                         _______ _______ _______ _____ _____    ______ ____
ROOT
ATOM      1  N   LIG    1       -1.183   1.885   0.018  0.00  0.00    -0.520 N 
ATOM      2  C   LIG    1       -1.194   3.243   0.030  0.00  0.00    +0.600 A 
ATOM      3  N   LIG    1       -0.096   3.938   0.023  0.00  0.00    -0.500 NA
ATOM      4  C   LIG    1        1.119   3.346   0.009  0.00  0.00    +0.070 A 
ATOM      5  C   LIG    1        1.204   1.959   0.001  0.00  0.00    -0.210 A 
ATOM      6  C   LIG    1        2.584   1.493  -0.014  0.00  0.00    -0.010 A 
ATOM      7  C   LIG    1        3.494   2.466  -0.018  0.00  0.00    -0.190 A 
ATOM      8  C   LIG    1        4.984   2.240  -0.033  0.00  0.00    +0.150 C 
ATOM      9  S   LIG    1        2.732   4.045  -0.003  0.00  0.00    +0.210 S 
ATOM     10  C   LIG    1       -0.015   1.215   0.009  0.00  0.00    +0.560 A 
ATOM     11  O   LIG    1        0.002  -0.004   0.002  0.00  0.00    -0.510 OA
ENDROOT
BRANCH   6  12
ATOM     12  C   LIG    1        2.946   0.055  -0.024  0.00  0.00    -0.020 A 
ATOM     13  C   LIG    1        2.638  -0.751   1.071  0.00  0.00    +0.040 A 
ATOM     14  C   LIG    1        2.972  -2.090   1.054  0.00  0.00    +0.000 A 
ATOM     15  C   LIG    1        3.622  -2.630  -0.042  0.00  0.00    +0.000 A 
ATOM     16  C   LIG    1        3.934  -1.833  -1.129  0.00  0.00    +0.000 A 
ATOM     17  C   LIG    1        3.600  -0.494  -1.125  0.00  0.00    +0.020 A 
ENDBRANCH   6  12
BRANCH   1  18
ATOM     18  C   LIG    1       -2.448   1.146   0.020  0.00  0.00    +0.330 C 
BRANCH  18  21
ATOM     19  N   LIG    1       -4.017   0.215   1.690  0.00  0.00    -0.720 N 
ATOM     20  H   LIG    1       -4.565  -0.099   0.954  0.00  0.00    +0.400 HD
ATOM     21  C   LIG    1       -2.874   0.885   1.442  0.00  0.00    +0.500 C 
ATOM     22  O   LIG    1       -2.190   1.278   2.362  0.00  0.00    -0.510 OA
BRANCH  19  23
ATOM     23  C   LIG    1       -4.432  -0.038   3.072  0.00  0.00    +0.290 C 
BRANCH  23  24
ATOM     24  C   LIG    1       -5.321  -1.254   3.115  0.00  0.00    -0.100 A 
ATOM     25  C   LIG    1       -6.266  -1.454   2.126  0.00  0.00    +0.010 A 
ATOM     26  C   LIG    1       -7.079  -2.572   2.162  0.00  0.00    +0.000 A 
ATOM     27  C   LIG    1       -6.953  -3.485   3.193  0.00  0.00    +0.000 A 
ATOM     28  C   LIG    1       -6.012  -3.282   4.185  0.00  0.00    +0.020 A 
ATOM     29  C   LIG    1       -5.196  -2.167   4.146  0.00  0.00    +0.010 A 
ENDBRANCH  23  24
BRANCH  23  30
ATOM     30  C   LIG    1       -5.199   1.173   3.605  0.00  0.00    +0.020 C 
BRANCH  30  32
ATOM     31  C   LIG    1       -5.027   3.591   4.212  0.00  0.00    +0.000 C 
ATOM     32  C   LIG    1       -4.260   2.379   3.679  0.00  0.00    +0.010 C 
ENDBRANCH  30  32
ENDBRANCH  23  30
ENDBRANCH  19  23
ENDBRANCH  18  21
ENDBRANCH   1  18
TORSDOF 7
