REMARK  Name = ZINCqH0000006lMI.0
REMARK                            x       y       z     vdW  Elec       q    Type
REMARK                         _______ _______ _______ _____ _____    ______ ____
ROOT
ATOM      1  N   LIG    1        6.311   3.730  -2.489  0.00  0.00    -0.530 N 
ATOM      2  C   LIG    1        7.348   4.546  -2.190  0.00  0.00    +0.550 A 
ATOM      3  C   LIG    1        7.740   4.658  -0.779  0.00  0.00    -0.200 A 
ATOM      4  C   LIG    1        8.798   5.468  -0.372  0.00  0.00    +0.100 A 
ATOM      5  C   LIG    1        9.126   5.539   0.964  0.00  0.00    -0.010 A 
ATOM      6  C   LIG    1        8.411   4.810   1.907  0.00  0.00    +0.060 A 
ATOM      7  C   LIG    1        7.363   4.003   1.527  0.00  0.00    +0.030 A 
ATOM      8  C   LIG    1        7.011   3.914   0.177  0.00  0.00    +0.160 A 
ATOM      9  N   LIG    1        5.986   3.133  -0.237  0.00  0.00    -0.530 NA
ATOM     10  O   LIG    1        7.938   5.161  -3.060  0.00  0.00    -0.460 OA
ATOM     11  C   LIG    1        5.656   3.050  -1.502  0.00  0.00    +0.370 A 
ENDROOT
BRANCH   1  12
ATOM     12  C   LIG    1        5.883   3.579  -3.882  0.00  0.00    +0.240 C 
ATOM     13  C   LIG    1        5.631   4.959  -4.491  0.00  0.00    +0.070 C 
BRANCH  12  14
ATOM     14  C   LIG    1        6.978   2.864  -4.677  0.00  0.00    +0.170 C 
BRANCH  14  16
ATOM     15  C   LIG    1        9.222   3.122  -5.478  0.00  0.00    +0.200 C 
ATOM     16  O   LIG    1        8.135   3.699  -4.753  0.00  0.00    -0.350 OA
ENDBRANCH  14  16
ENDBRANCH  12  14
ENDBRANCH   1  12
BRANCH  11  17
ATOM     17  S   LIG    1        4.309   2.007  -1.952  0.00  0.00    -0.000 S 
BRANCH  17  18
ATOM     18  C   LIG    1        3.841   1.378  -0.321  0.00  0.00    +0.160 C 
BRANCH  18  19
ATOM     19  C   LIG    1        2.672   0.436  -0.463  0.00  0.00    -0.040 A 
ATOM     20  C   LIG    1        1.382   0.919  -0.390  0.00  0.00    +0.040 A 
ATOM     21  C   LIG    1        0.308   0.056  -0.519  0.00  0.00    +0.050 A 
ATOM     22  C   LIG    1        0.520  -1.296  -0.722  0.00  0.00    +0.030 A 
ATOM     23  C   LIG    1        1.805  -1.793  -0.796  0.00  0.00    +0.070 A 
ATOM     24  C   LIG    1        2.893  -0.927  -0.667  0.00  0.00    -0.010 A 
BRANCH  24  25
ATOM     25  C   LIG    1        4.229  -1.436  -0.744  0.00  0.00    +0.240 C 
ATOM     26  N   LIG    1        5.290  -1.840  -0.805  0.00  0.00    -0.400 NA
ENDBRANCH  24  25
ENDBRANCH  18  19
ENDBRANCH  17  18
ENDBRANCH  11  17
TORSDOF 7
