REMARK  Name = ZINCqH0000007yhB.0
REMARK                            x       y       z     vdW  Elec       q    Type
REMARK                         _______ _______ _______ _____ _____    ______ ____
ROOT
ATOM      1  C   LIG    1       -5.769   2.948   1.656  0.00  0.00    +0.150 A 
ATOM      2  C   LIG    1       -5.772   2.163   0.512  0.00  0.00    -0.080 A 
ATOM      3  C   LIG    1       -4.655   1.418   0.183  0.00  0.00    +0.100 A 
ATOM      4  C   LIG    1       -3.535   1.451   0.998  0.00  0.00    +0.040 A 
ATOM      5  C   LIG    1       -3.525   2.245   2.143  0.00  0.00    +0.140 A 
ATOM      6  O   LIG    1       -2.428   2.295   2.944  0.00  0.00    -0.310 OA
ATOM      7  C   LIG    1       -1.485   1.225   2.850  0.00  0.00    +0.250 C 
ATOM      8  C   LIG    1       -1.142   0.994   1.372  0.00  0.00    +0.260 C 
ATOM      9  N   LIG    1       -2.399   0.692   0.665  0.00  0.00    -0.550 N 
ATOM     10  C   LIG    1       -2.460  -0.282  -0.264  0.00  0.00    +0.560 C 
ATOM     11  O   LIG    1       -3.530  -0.593  -0.749  0.00  0.00    -0.510 OA
ATOM     12  C   LIG    1       -4.647   2.990   2.470  0.00  0.00    -0.020 A 
ENDROOT
BRANCH  10  13
ATOM     13  C   LIG    1       -1.226  -0.972  -0.692  0.00  0.00    -0.130 A 
ATOM     14  C   LIG    1       -0.009  -0.285  -0.706  0.00  0.00    +0.050 A 
ATOM     15  C   LIG    1        1.141  -0.931  -1.101  0.00  0.00    +0.030 A 
ATOM     16  C   LIG    1        1.090  -2.267  -1.498  0.00  0.00    -0.020 A 
ATOM     17  C   LIG    1       -0.125  -2.953  -1.490  0.00  0.00    +0.030 A 
ATOM     18  C   LIG    1       -1.275  -2.311  -1.090  0.00  0.00    +0.080 A 
BRANCH  16  19
ATOM     19  C   LIG    1        2.329  -2.960  -1.929  0.00  0.00    -0.010 A 
ATOM     20  C   LIG    1        2.301  -4.300  -2.325  0.00  0.00    -0.020 A 
ATOM     21  C   LIG    1        3.476  -4.905  -2.724  0.00  0.00    +0.260 A 
ATOM     22  N   LIG    1        4.614  -4.238  -2.724  0.00  0.00    -0.480 NA
ATOM     23  C   LIG    1        4.684  -2.974  -2.353  0.00  0.00    +0.260 A 
ATOM     24  C   LIG    1        3.557  -2.292  -1.945  0.00  0.00    -0.020 A 
ENDBRANCH  16  19
ENDBRANCH  10  13
BRANCH   1  26
ATOM     25  C   LIG    1       -7.989   3.591   1.096  0.00  0.00    +0.250 C 
ATOM     26  O   LIG    1       -6.868   3.679   1.979  0.00  0.00    -0.310 OA
ENDBRANCH   1  26
TORSDOF 3
