REMARK  Name = ZINCpe00000MJM6k.0
REMARK                            x       y       z     vdW  Elec       q    Type
REMARK                         _______ _______ _______ _____ _____    ______ ____
ROOT
ATOM      1  C   LIG    1       -0.014   1.209   0.009  0.00  0.00    +0.520 C 
ATOM      2  N   LIG    1        1.143   1.898   0.001  0.00  0.00    -0.610 N 
ATOM      3  C   LIG    1        1.108   3.353   0.009  0.00  0.00    +0.280 C 
ATOM      4  C   LIG    1        2.029   3.931  -1.040  0.00  0.00    +0.020 C 
ATOM      5  C   LIG    1        3.406   3.308  -1.091  0.00  0.00    +0.240 C 
ATOM      6  C   LIG    1        3.473   1.823  -0.817  0.00  0.00    +0.200 C 
ATOM      7  N   LIG    1        3.708   1.194  -2.115  0.00  0.00    -0.730 N 
ATOM      8  H   LIG    1        3.672   0.243  -2.304  0.00  0.00    +0.430 HD
ATOM      9  C   LIG    1        3.983   2.168  -3.002  0.00  0.00    +0.700 C 
ATOM     10  O   LIG    1        4.286   1.947  -4.158  0.00  0.00    -0.570 OA
ATOM     11  N   LIG    1        3.896   3.416  -2.488  0.00  0.00    -0.630 N 
ATOM     12  C   LIG    1        2.403   1.176  -0.009  0.00  0.00    +0.290 C 
ATOM     13  O   LIG    1        0.002  -0.004   0.002  0.00  0.00    -0.510 OA
ENDROOT
BRANCH  11  14
ATOM     14  C   LIG    1        4.224   4.663  -3.184  0.00  0.00    +0.270 C 
ATOM     15  C   LIG    1        3.338   4.805  -4.423  0.00  0.00    +0.020 C 
ATOM     16  C   LIG    1        5.694   4.640  -3.608  0.00  0.00    +0.030 C 
ENDBRANCH  11  14
BRANCH   1  17
ATOM     17  C   LIG    1       -1.330   1.944   0.019  0.00  0.00    +0.200 C 
BRANCH  17  18
ATOM     18  O   LIG    1       -2.403   1.001   0.019  0.00  0.00    -0.270 OA
BRANCH  18  26
ATOM     19  C   LIG    1       -3.992   1.609   2.595  0.00  0.00    +0.160 C 
ATOM     20  C   LIG    1       -4.432   1.798   1.166  0.00  0.00    +0.070 A 
ATOM     21  N   LIG    1       -5.590   2.266   0.776  0.00  0.00    -0.280 NA
ATOM     22  N   LIG    1       -5.611   2.280  -0.625  0.00  0.00    -0.370 N 
ATOM     23  C   LIG    1       -4.415   1.805  -1.063  0.00  0.00    +0.080 A 
ATOM     24  C   LIG    1       -3.996   1.643  -2.502  0.00  0.00    +0.150 C 
ATOM     25  C   LIG    1       -6.723   2.726  -1.467  0.00  0.00    +0.360 C 
ATOM     26  C   LIG    1       -3.669   1.505   0.028  0.00  0.00    -0.060 A 
ENDBRANCH  18  26
ENDBRANCH  17  18
ENDBRANCH   1  17
TORSDOF 4
