REMARK  Name = ZINCvU0000000C0n.0
REMARK                            x       y       z     vdW  Elec       q    Type
REMARK                         _______ _______ _______ _____ _____    ______ ____
ROOT
ATOM      1  C   LIG    1        2.548   5.197   0.147  0.00  0.00    -0.200 A 
ATOM      2  C   LIG    1        2.682   3.830  -0.018  0.00  0.00    +0.320 A 
ATOM      3  N   LIG    1        3.995   3.545  -0.046  0.00  0.00    -0.350 N 
ATOM      4  N   LIG    1        4.736   4.719   0.110  0.00  0.00    -0.250 NA
ATOM      5  C   LIG    1        3.912   5.738   0.229  0.00  0.00    +0.160 A 
ENDROOT
BRANCH   5   6
ATOM      6  C   LIG    1        4.286   7.154   0.412  0.00  0.00    +0.110 A 
ATOM      7  C   LIG    1        5.353   7.593   1.124  0.00  0.00    +0.000 A 
ATOM      8  C   LIG    1        5.332   9.054   1.028  0.00  0.00    -0.130 A 
ATOM      9  C   LIG    1        6.142  10.074   1.528  0.00  0.00    +0.060 A 
ATOM     10  C   LIG    1        5.837  11.379   1.252  0.00  0.00    -0.010 A 
ATOM     11  C   LIG    1        4.729  11.693   0.480  0.00  0.00    +0.050 A 
ATOM     12  C   LIG    1        3.915  10.699  -0.023  0.00  0.00    +0.020 A 
ATOM     13  C   LIG    1        4.206   9.367   0.244  0.00  0.00    +0.060 A 
ATOM     14  O   LIG    1        3.614   8.205  -0.100  0.00  0.00    -0.180 OA
ENDBRANCH   5   6
BRANCH   1  16
ATOM     15  C   LIG    1        0.282   5.509   1.026  0.00  0.00    -0.060 C 
ATOM     16  C   LIG    1        1.297   5.953   0.230  0.00  0.00    +0.230 C 
BRANCH  15  17
ATOM     17  C   LIG    1        0.519   4.397   1.974  0.00  0.00    +0.180 A 
ATOM     18  C   LIG    1       -0.556   3.832   2.660  0.00  0.00    -0.030 A 
ATOM     19  C   LIG    1       -0.319   2.791   3.540  0.00  0.00    +0.070 A 
ATOM     20  C   LIG    1        0.987   2.354   3.714  0.00  0.00    -0.030 A 
ATOM     21  C   LIG    1        2.006   2.959   3.001  0.00  0.00    +0.250 A 
ATOM     22  N   LIG    1        1.754   3.946   2.165  0.00  0.00    -0.460 NA
ENDBRANCH  15  17
BRANCH  15  24
ATOM     23  N   LIG    1       -2.038   6.600   0.880  0.00  0.00    -0.410 NA
ATOM     24  C   LIG    1       -1.011   6.117   0.944  0.00  0.00    +0.260 C 
ENDBRANCH  15  24
ENDBRANCH   1  16
BRANCH   3  25
ATOM     25  C   LIG    1        4.563   2.205  -0.209  0.00  0.00    +0.380 C 
BRANCH  25  26
ATOM     26  C   LIG    1        5.509   2.199  -1.382  0.00  0.00    -0.120 A 
ATOM     27  C   LIG    1        5.040   1.896  -2.646  0.00  0.00    +0.020 A 
ATOM     28  C   LIG    1        5.908   1.896  -3.723  0.00  0.00    +0.000 A 
ATOM     29  C   LIG    1        7.245   2.188  -3.533  0.00  0.00    +0.010 A 
ATOM     30  C   LIG    1        7.715   2.486  -2.267  0.00  0.00    +0.000 A 
ATOM     31  C   LIG    1        6.847   2.491  -1.192  0.00  0.00    +0.050 A 
ENDBRANCH  25  26
ENDBRANCH   3  25
TORSDOF 6
