REMARK  Name = ZINCrg00000B4DhQ.0
REMARK                            x       y       z     vdW  Elec       q    Type
REMARK                         _______ _______ _______ _____ _____    ______ ____
ROOT
ATOM      1  C   LIG    1        0.401   1.044   0.791  0.00  0.00    +0.360 C 
ATOM      2  N   LIG    1       -0.519   1.409   1.871  0.00  0.00    -0.360 N 
ATOM      3  N   LIG    1       -0.207   1.460   3.239  0.00  0.00    -0.290 NA
ATOM      4  C   LIG    1       -1.284   1.824   3.892  0.00  0.00    +0.250 A 
ATOM      5  C   LIG    1       -2.306   2.015   2.966  0.00  0.00    -0.260 A 
ATOM      6  C   LIG    1       -3.734   2.430   3.229  0.00  0.00    +0.330 C 
ATOM      7  N   LIG    1       -4.337   2.768   1.925  0.00  0.00    -0.990 NA
ATOM      8  C   LIG    1       -4.095   1.862   0.792  0.00  0.00    +0.330 C 
ATOM      9  C   LIG    1       -2.600   1.871   0.450  0.00  0.00    +0.110 C 
ATOM     10  C   LIG    1       -1.808   1.761   1.729  0.00  0.00    +0.110 A 
ENDROOT
BRANCH   6  11
ATOM     11  C   LIG    1       -3.759   3.643   4.123  0.00  0.00    +0.540 C 
ATOM     12  N   LIG    1       -4.130   3.521   5.413  0.00  0.00    -0.590 N 
ATOM     13  C   LIG    1       -4.274   4.700   6.283  0.00  0.00    +0.300 C 
ATOM     14  C   LIG    1       -5.744   4.808   6.688  0.00  0.00    +0.090 C 
ATOM     15  C   LIG    1       -6.270   3.475   7.155  0.00  0.00    -0.030 A 
ATOM     16  C   LIG    1       -7.414   3.475   7.941  0.00  0.00    -0.020 A 
ATOM     17  C   LIG    1       -7.955   2.287   8.395  0.00  0.00    +0.100 A 
ATOM     18  C   LIG    1       -7.352   1.086   8.061  0.00  0.00    -0.020 A 
ATOM     19  C   LIG    1       -6.213   1.086   7.283  0.00  0.00    +0.060 A 
ATOM     20  F   LIG    1       -9.068   2.297   9.160  0.00  0.00    -0.140 F 
ATOM     21  C   LIG    1       -5.667   2.280   6.832  0.00  0.00    -0.110 A 
ATOM     22  C   LIG    1       -4.412   2.209   6.006  0.00  0.00    +0.330 C 
ATOM     23  O   LIG    1       -3.445   4.728   3.682  0.00  0.00    -0.540 OA
ENDBRANCH   6  11
BRANCH   7  24
ATOM     24  S   LIG    1       -5.266   4.126   1.742  0.00  0.00    +2.610 S 
ATOM     25  O   LIG    1       -5.687   4.443   3.061  0.00  0.00    -0.940 OA
ATOM     26  O   LIG    1       -6.207   3.774   0.737  0.00  0.00    -0.960 OA
ATOM     27  C   LIG    1       -4.114   5.382   1.122  0.00  0.00    -0.270 C 
ENDBRANCH   7  24
TORSDOF 2
