REMARK  Name = ZINCpe000000TMWX.0
REMARK                            x       y       z     vdW  Elec       q    Type
REMARK                         _______ _______ _______ _____ _____    ______ ____
ROOT
ATOM      1  S   LIG    1       -3.845   2.720   3.393  0.00  0.00    +2.710 S 
ATOM      2  O   LIG    1       -3.722   2.549   4.799  0.00  0.00    -0.930 OA
ATOM      3  O   LIG    1       -4.840   2.069   2.615  0.00  0.00    -0.920 OA
ENDROOT
BRANCH   1  10
ATOM      4  C   LIG    1       -2.069   1.831   1.372  0.00  0.00    -0.200 A 
ATOM      5  C   LIG    1       -0.718   1.572   1.248  0.00  0.00    +0.140 A 
ATOM      6  N   LIG    1       -0.148   1.838   2.433  0.00  0.00    -0.440 N 
ATOM      7  H   LIG    1        0.795   1.750   2.641  0.00  0.00    +0.450 HD
ATOM      8  N   LIG    1       -1.144   2.265   3.319  0.00  0.00    -0.170 NA
ATOM      9  C   LIG    1       -0.013   1.086   0.008  0.00  0.00    +0.190 C 
ATOM     10  C   LIG    1       -2.291   2.261   2.699  0.00  0.00    -0.440 A 
BRANCH   4  11
ATOM     11  C   LIG    1       -3.088   1.683   0.318  0.00  0.00    +0.540 C 
ATOM     12  O   LIG    1       -3.672   0.627   0.181  0.00  0.00    -0.470 OA
BRANCH  11  13
ATOM     13  O   LIG    1       -3.372   2.720  -0.494  0.00  0.00    -0.350 OA
BRANCH  13  15
ATOM     14  C   LIG    1       -4.571   3.783  -2.328  0.00  0.00    +0.060 C 
ATOM     15  C   LIG    1       -4.387   2.503  -1.510  0.00  0.00    +0.210 C 
ENDBRANCH  13  15
ENDBRANCH  11  13
ENDBRANCH   4  11
ENDBRANCH   1  10
BRANCH   1  16
ATOM     16  N   LIG    1       -4.037   4.344   3.135  0.00  0.00    -0.990 NA
ATOM     17  C   LIG    1       -3.564   5.321   4.125  0.00  0.00    +0.290 C 
ATOM     18  C   LIG    1       -4.716   6.254   4.493  0.00  0.00    +0.040 C 
ATOM     19  C   LIG    1       -5.291   6.878   3.219  0.00  0.00    +0.040 C 
ATOM     20  C   LIG    1       -5.833   5.774   2.308  0.00  0.00    +0.030 C 
ATOM     21  C   LIG    1       -4.689   4.836   1.913  0.00  0.00    +0.320 C 
BRANCH  20  22
ATOM     22  C   LIG    1       -6.429   6.391   1.069  0.00  0.00    +0.470 C 
ATOM     23  O   LIG    1       -5.984   6.110  -0.019  0.00  0.00    -0.500 OA
BRANCH  22  24
ATOM     24  O   LIG    1       -7.453   7.252   1.174  0.00  0.00    -0.350 OA
BRANCH  24  25
ATOM     25  C   LIG    1       -7.976   7.807  -0.062  0.00  0.00    +0.200 C 
ATOM     26  C   LIG    1       -9.130   8.760   0.256  0.00  0.00    +0.070 C 
ENDBRANCH  24  25
ENDBRANCH  22  24
ENDBRANCH  20  22
ENDBRANCH   1  16
TORSDOF 8
