REMARK  Name = ZINCrD00000l1YBD.0
REMARK                            x       y       z     vdW  Elec       q    Type
REMARK                         _______ _______ _______ _____ _____    ______ ____
ROOT
ATOM      1  C   LIG    1        4.167   1.077   0.359  0.00  0.00    +0.550 C 
ATOM      2  N   LIG    1        3.611   1.291  -0.850  0.00  0.00    -0.600 N 
ATOM      3  O   LIG    1        3.471   0.738   1.298  0.00  0.00    -0.530 OA
ENDROOT
BRANCH   2   4
ATOM      4  C   LIG    1        2.157   1.219  -1.010  0.00  0.00    +0.280 C 
ATOM      5  C   LIG    1        1.485   2.238  -0.073  0.00  0.00    +0.070 C 
ATOM      6  C   LIG    1       -0.024   1.885  -0.043  0.00  0.00    -0.300 C 
ATOM      7  S   LIG    1       -0.004   0.056   0.071  0.00  0.00    +2.390 S 
ATOM      8  O   LIG    1       -0.980  -0.482  -0.811  0.00  0.00    -0.940 OA
ATOM      9  O   LIG    1        0.005  -0.331   1.438  0.00  0.00    -0.920 OA
ATOM     10  C   LIG    1        1.663  -0.194  -0.640  0.00  0.00    -0.320 C 
ENDBRANCH   2   4
BRANCH   1  12
ATOM     11  C   LIG    1        6.180   0.949   1.726  0.00  0.00    +0.140 C 
ATOM     12  C   LIG    1        5.609   1.253   0.543  0.00  0.00    -0.100 C 
BRANCH  11  17
ATOM     13  C   LIG    1       11.893   1.209   2.314  0.00  0.00    +0.090 C 
ATOM     14  C   LIG    1       10.395   1.140   2.160  0.00  0.00    -0.070 A 
ATOM     15  C   LIG    1        9.617   0.661   3.200  0.00  0.00    +0.010 A 
ATOM     16  C   LIG    1        8.246   0.596   3.067  0.00  0.00    +0.040 A 
ATOM     17  C   LIG    1        7.643   1.015   1.877  0.00  0.00    -0.090 A 
ATOM     18  C   LIG    1        8.436   1.492   0.829  0.00  0.00    +0.020 A 
ATOM     19  C   LIG    1        9.805   1.557   0.980  0.00  0.00    +0.010 A 
ENDBRANCH  11  17
ENDBRANCH   1  12
BRANCH   2  20
ATOM     20  C   LIG    1        4.462   1.594  -2.004  0.00  0.00    +0.350 C 
BRANCH  20  21
ATOM     21  C   LIG    1        4.653   3.085  -2.108  0.00  0.00    -0.150 A 
ATOM     22  C   LIG    1        5.855   3.656  -1.735  0.00  0.00    +0.050 A 
ATOM     23  C   LIG    1        6.031   5.024  -1.831  0.00  0.00    +0.000 A 
ATOM     24  C   LIG    1        5.004   5.823  -2.299  0.00  0.00    +0.060 A 
ATOM     25  C   LIG    1        3.801   5.254  -2.673  0.00  0.00    -0.010 A 
ATOM     26  C   LIG    1        3.626   3.884  -2.583  0.00  0.00    +0.110 A 
ATOM     27  F   LIG    1        2.452   3.327  -2.953  0.00  0.00    -0.140 F 
ENDBRANCH  20  21
ENDBRANCH   2  20
TORSDOF 5
