REMARK  Name = ZINCrH000004tLsX.0
REMARK                            x       y       z     vdW  Elec       q    Type
REMARK                         _______ _______ _______ _____ _____    ______ ____
ROOT
ATOM      1  O   LIG    1       -1.186  10.157   0.069  0.00  0.00    -0.440 OA
ATOM      2  C   LIG    1       -0.128   9.565   0.055  0.00  0.00    +0.390 C 
ENDROOT
BRANCH   2   3
ATOM      3  C   LIG    1       -0.108   8.095   0.046  0.00  0.00    -0.170 A 
ATOM      4  C   LIG    1       -1.310   7.377   0.053  0.00  0.00    +0.090 A 
ATOM      5  C   LIG    1       -1.289   6.007   0.045  0.00  0.00    +0.010 A 
ATOM      6  C   LIG    1       -0.070   5.327   0.030  0.00  0.00    -0.000 A 
ATOM      7  C   LIG    1        1.129   6.040   0.029  0.00  0.00    +0.020 A 
ATOM      8  C   LIG    1        1.113   7.410   0.031  0.00  0.00    +0.070 A 
BRANCH   6   9
ATOM      9  C   LIG    1       -0.050   3.844   0.023  0.00  0.00    -0.060 A 
ATOM     10  C   LIG    1        1.165   3.161   0.008  0.00  0.00    +0.030 A 
ATOM     11  C   LIG    1        1.178   1.781   0.000  0.00  0.00    +0.010 A 
ATOM     12  C   LIG    1       -0.013   1.076   0.008  0.00  0.00    +0.020 A 
ATOM     13  C   LIG    1       -1.221   1.748   0.017  0.00  0.00    +0.010 A 
ATOM     14  C   LIG    1       -1.246   3.128   0.030  0.00  0.00    +0.030 A 
ENDBRANCH   6   9
ENDBRANCH   2   3
BRANCH   2  15
ATOM     15  C   LIG    1        1.167  10.336   0.047  0.00  0.00    +0.330 C 
BRANCH  15  16
ATOM     16  N   LIG    1        0.880  11.773   0.059  0.00  0.00    -0.570 N 
ATOM     17  C   LIG    1        0.727  12.518  -1.042  0.00  0.00    +0.710 C 
ATOM     18  N   LIG    1        0.467  13.808  -0.757  0.00  0.00    -0.710 N 
ATOM     19  H   LIG    1        0.319  14.525  -1.394  0.00  0.00    +0.440 HD
ATOM     20  C   LIG    1        0.457  13.916   0.707  0.00  0.00    +0.130 C 
ATOM     21  C   LIG    1        1.551  14.867   1.180  0.00  0.00    +0.060 C 
ATOM     22  C   LIG    1        1.259  16.280   0.667  0.00  0.00    +0.020 C 
ATOM     23  C   LIG    1       -0.103  16.741   1.191  0.00  0.00    +0.010 C 
ATOM     24  C   LIG    1       -1.192  15.791   0.688  0.00  0.00    +0.020 C 
ATOM     25  C   LIG    1       -0.910  14.376   1.200  0.00  0.00    +0.050 C 
ATOM     26  O   LIG    1        0.812  12.079  -2.173  0.00  0.00    -0.540 OA
ATOM     27  C   LIG    1        0.742  12.509   1.181  0.00  0.00    +0.540 C 
ATOM     28  O   LIG    1        0.828  12.124   2.327  0.00  0.00    -0.460 OA
ENDBRANCH  15  16
ENDBRANCH   2  15
TORSDOF 4
