REMARK  Name = ZINCtV00001bB3Mi.0
REMARK                            x       y       z     vdW  Elec       q    Type
REMARK                         _______ _______ _______ _____ _____    ______ ____
ROOT
ATOM      1  N   LIG    1       -0.089   5.843  -1.348  0.00  0.00    -0.470 N 
ATOM      2  C   LIG    1        1.015   6.215  -2.064  0.00  0.00    +0.250 A 
ATOM      3  C   LIG    1        0.650   6.620  -3.291  0.00  0.00    -0.180 A 
ATOM      4  C   LIG    1       -0.807   6.496  -3.367  0.00  0.00    -0.090 A 
ATOM      5  C   LIG    1       -1.753   6.756  -4.360  0.00  0.00    +0.050 A 
ATOM      6  C   LIG    1       -3.078   6.529  -4.112  0.00  0.00    -0.020 A 
ATOM      7  C   LIG    1       -3.491   6.042  -2.879  0.00  0.00    +0.020 A 
ATOM      8  C   LIG    1       -2.574   5.779  -1.885  0.00  0.00    -0.010 A 
ATOM      9  C   LIG    1       -1.220   5.998  -2.117  0.00  0.00    +0.100 A 
ENDROOT
BRANCH   1  10
ATOM     10  C   LIG    1       -0.070   5.347   0.031  0.00  0.00    +0.350 C 
BRANCH  10  14
ATOM     11  C   LIG    1       -0.013   1.076   0.008  0.00  0.00    +0.010 A 
ATOM     12  C   LIG    1       -1.219   1.751   0.017  0.00  0.00    +0.010 A 
ATOM     13  C   LIG    1       -1.238   3.133   0.029  0.00  0.00    +0.020 A 
ATOM     14  C   LIG    1       -0.050   3.840   0.022  0.00  0.00    -0.120 A 
ATOM     15  C   LIG    1        1.156   3.165   0.008  0.00  0.00    +0.020 A 
ATOM     16  C   LIG    1        1.175   1.783   0.000  0.00  0.00    +0.010 A 
ENDBRANCH  10  14
ENDBRANCH   1  10
BRANCH   3  17
ATOM     17  C   LIG    1        1.566   7.108  -4.384  0.00  0.00    +0.310 C 
BRANCH  17  18
ATOM     18  N   LIG    1        1.542   8.572  -4.423  0.00  0.00    -0.190 NA
ATOM     19  N   LIG    1        2.588   9.215  -4.243  0.00  0.00    -0.140 NA
BRANCH  19  20
ATOM     20  C   LIG    1        2.565  10.576  -4.280  0.00  0.00    +0.180 A 
ATOM     21  N   LIG    1        3.599  11.351  -4.105  0.00  0.00    -0.400 NA
ATOM     22  C   LIG    1        3.367  12.646  -4.180  0.00  0.00    +0.140 A 
ATOM     23  C   LIG    1        2.071  12.987  -4.431  0.00  0.00    -0.080 A 
ATOM     24  S   LIG    1        1.138  11.562  -4.578  0.00  0.00    +0.190 S 
BRANCH  22  25
ATOM     25  C   LIG    1        4.434  13.655  -4.005  0.00  0.00    -0.130 A 
ATOM     26  C   LIG    1        5.729  13.383  -3.750  0.00  0.00    +0.050 A 
ATOM     27  C   LIG    1        6.540  14.494  -3.632  0.00  0.00    +0.010 A 
ATOM     28  C   LIG    1        5.918  15.666  -3.776  0.00  0.00    -0.040 A 
ATOM     29  S   LIG    1        4.208  15.398  -4.089  0.00  0.00    +0.130 S 
ENDBRANCH  22  25
ENDBRANCH  19  20
ENDBRANCH  17  18
ENDBRANCH   3  17
TORSDOF 6
