REMARK  Name = ZINCrH00000No4El.1
REMARK                            x       y       z     vdW  Elec       q    Type
REMARK                         _______ _______ _______ _____ _____    ______ ____
ROOT
ATOM      1  N   LIG    1       -3.141   1.444  -2.925  0.00  0.00    -0.470 N 
ATOM      2  C   LIG    1       -3.946   2.433  -3.408  0.00  0.00    +0.020 A 
ATOM      3  C   LIG    1       -3.714   2.558  -4.731  0.00  0.00    -0.030 A 
ATOM      4  C   LIG    1       -2.736   1.605  -5.079  0.00  0.00    -0.120 A 
ATOM      5  C   LIG    1       -4.924   3.248  -2.603  0.00  0.00    +0.130 C 
ATOM      6  C   LIG    1       -2.404   0.938  -3.955  0.00  0.00    +0.000 A 
ATOM      7  C   LIG    1       -1.392  -0.174  -3.854  0.00  0.00    +0.130 C 
ENDROOT
BRANCH   1   8
ATOM      8  C   LIG    1       -3.082   0.996  -1.532  0.00  0.00    +0.330 C 
BRANCH   8  13
ATOM      9  N   LIG    1       -0.770   1.788  -1.253  0.00  0.00    -0.390 N 
ATOM     10  C   LIG    1        0.094   1.285  -0.164  0.00  0.00    +0.250 C 
ATOM     11  C   LIG    1       -0.634   1.692   1.142  0.00  0.00    +0.080 C 
ATOM     12  C   LIG    1       -2.123   1.488   0.743  0.00  0.00    +0.090 C 
ATOM     13  C   LIG    1       -2.147   1.912  -0.741  0.00  0.00    +0.150 C 
ATOM     14  H   LIG    1       -0.753   1.140  -2.026  0.00  0.00    +0.420 HD
BRANCH   9  16
ATOM     15  C   LIG    1        1.084   2.949  -2.354  0.00  0.00    +0.080 C 
ATOM     16  C   LIG    1       -0.290   3.103  -1.698  0.00  0.00    +0.250 C 
ENDBRANCH   9  16
ENDBRANCH   8  13
ENDBRANCH   1   8
BRANCH   4  17
ATOM     17  C   LIG    1       -2.166   1.373  -6.455  0.00  0.00    +0.260 C 
BRANCH  17  18
ATOM     18  N   LIG    1       -2.819   0.213  -7.065  0.00  0.00    -0.260 NA
ATOM     19  N   LIG    1       -3.446   0.342  -8.127  0.00  0.00    -0.170 NA
BRANCH  19  20
ATOM     20  C   LIG    1       -4.057  -0.745  -8.699  0.00  0.00    +0.010 A 
ATOM     21  C   LIG    1       -3.969  -1.998  -8.087  0.00  0.00    +0.030 A 
ATOM     22  C   LIG    1       -4.588  -3.087  -8.657  0.00  0.00    +0.030 A 
ATOM     23  C   LIG    1       -5.294  -2.943  -9.854  0.00  0.00    -0.090 A 
ATOM     24  C   LIG    1       -5.377  -1.690 -10.469  0.00  0.00    +0.040 A 
ATOM     25  C   LIG    1       -4.763  -0.600  -9.895  0.00  0.00    +0.070 A 
BRANCH  23  26
ATOM     26  C   LIG    1       -5.953  -4.112 -10.469  0.00  0.00    +0.510 C 
ATOM     27  O   LIG    1       -5.880  -5.207  -9.931  0.00  0.00    -0.680 OA
ATOM     28  O   LIG    1       -6.571  -3.985 -11.517  0.00  0.00    -0.680 OA
ENDBRANCH  23  26
ENDBRANCH  19  20
ENDBRANCH  17  18
ENDBRANCH   4  17
TORSDOF 7
