REMARK  Name = ZINCrH00000No4El.2
REMARK                            x       y       z     vdW  Elec       q    Type
REMARK                         _______ _______ _______ _____ _____    ______ ____
ROOT
ATOM      1  N   LIG    1       -4.758   2.500  -0.409  0.00  0.00    -0.450 N 
ATOM      2  C   LIG    1       -5.767   1.989  -1.170  0.00  0.00    +0.010 A 
ATOM      3  C   LIG    1       -6.878   1.922  -0.408  0.00  0.00    -0.020 A 
ATOM      4  C   LIG    1       -6.545   2.418   0.867  0.00  0.00    -0.130 A 
ATOM      5  C   LIG    1       -5.659   1.568  -2.613  0.00  0.00    +0.130 C 
ATOM      6  C   LIG    1       -5.242   2.765   0.838  0.00  0.00    +0.030 A 
ATOM      7  C   LIG    1       -4.456   3.345   1.986  0.00  0.00    +0.140 C 
ENDROOT
BRANCH   1   8
ATOM      8  C   LIG    1       -3.383   2.733  -0.858  0.00  0.00    +0.310 C 
BRANCH   8  13
ATOM      9  N   LIG    1       -1.119   1.768  -0.897  0.00  0.00    -0.390 N 
ATOM     10  C   LIG    1       -0.746   0.709  -1.860  0.00  0.00    +0.260 C 
ATOM     11  C   LIG    1       -1.691  -0.474  -1.530  0.00  0.00    +0.080 C 
ATOM     12  C   LIG    1       -3.008   0.266  -1.175  0.00  0.00    +0.080 C 
ATOM     13  C   LIG    1       -2.509   1.541  -0.463  0.00  0.00    +0.140 C 
ATOM     14  H   LIG    1       -0.503   1.733  -0.099  0.00  0.00    +0.430 HD
BRANCH   9  16
ATOM     15  C   LIG    1        0.450   3.359  -1.901  0.00  0.00    +0.090 C 
ATOM     16  C   LIG    1       -1.013   3.082  -1.547  0.00  0.00    +0.240 C 
ENDBRANCH   9  16
ENDBRANCH   8  13
ENDBRANCH   1   8
BRANCH   4  17
ATOM     17  C   LIG    1       -7.474   2.540   2.048  0.00  0.00    +0.260 C 
BRANCH  17  18
ATOM     18  N   LIG    1       -7.939   3.925   2.163  0.00  0.00    -0.250 NA
ATOM     19  N   LIG    1       -9.150   4.180   2.093  0.00  0.00    -0.180 NA
BRANCH  19  20
ATOM     20  C   LIG    1       -9.585   5.476   2.200  0.00  0.00    +0.010 A 
ATOM     21  C   LIG    1       -8.664   6.508   2.394  0.00  0.00    +0.020 A 
ATOM     22  C   LIG    1       -9.100   7.810   2.497  0.00  0.00    +0.030 A 
ATOM     23  C   LIG    1      -10.465   8.098   2.418  0.00  0.00    -0.090 A 
ATOM     24  C   LIG    1      -11.387   7.064   2.230  0.00  0.00    +0.040 A 
ATOM     25  C   LIG    1      -10.950   5.763   2.122  0.00  0.00    +0.060 A 
BRANCH  23  26
ATOM     26  C   LIG    1      -10.933   9.493   2.534  0.00  0.00    +0.520 C 
ATOM     27  O   LIG    1      -10.126  10.397   2.698  0.00  0.00    -0.680 OA
ATOM     28  O   LIG    1      -12.128   9.745   2.464  0.00  0.00    -0.680 OA
ENDBRANCH  23  26
ENDBRANCH  19  20
ENDBRANCH  17  18
ENDBRANCH   4  17
TORSDOF 7
