REMARK  Name = ZINCrH00000No4El.0
REMARK                            x       y       z     vdW  Elec       q    Type
REMARK                         _______ _______ _______ _____ _____    ______ ____
ROOT
ATOM      1  N   LIG    1        1.969   1.161  -0.869  0.00  0.00    -0.450 N 
ATOM      2  C   LIG    1        1.720   1.226   0.470  0.00  0.00    +0.010 A 
ATOM      3  C   LIG    1        2.626   2.040   1.043  0.00  0.00    +0.000 A 
ATOM      4  C   LIG    1        3.502   2.513  -0.033  0.00  0.00    -0.110 A 
ATOM      5  C   LIG    1        0.611   0.504   1.191  0.00  0.00    +0.140 C 
ATOM      6  C   LIG    1        3.046   1.930  -1.180  0.00  0.00    +0.070 A 
ATOM      7  C   LIG    1        3.634   2.112  -2.556  0.00  0.00    +0.140 C 
ENDROOT
BRANCH   4   8
ATOM      8  C   LIG    1        4.649   3.430   0.099  0.00  0.00    +0.200 C 
ATOM      9  N   LIG    1        5.338   3.763  -0.949  0.00  0.00    -0.230 NA
BRANCH   9  10
ATOM     10  N   LIG    1        6.427   4.635  -0.824  0.00  0.00    -0.580 N 
ATOM     11  H   LIG    1        6.667   4.989   0.046  0.00  0.00    +0.390 HD
BRANCH  10  12
ATOM     12  C   LIG    1        7.163   4.990  -1.945  0.00  0.00    +0.190 A 
ATOM     13  C   LIG    1        6.821   4.475  -3.194  0.00  0.00    -0.050 A 
ATOM     14  C   LIG    1        7.539   4.828  -4.300  0.00  0.00    +0.080 A 
ATOM     15  C   LIG    1        8.629   5.699  -4.177  0.00  0.00    -0.170 A 
ATOM     16  C   LIG    1        8.973   6.210  -2.920  0.00  0.00    +0.080 A 
ATOM     17  C   LIG    1        8.247   5.858  -1.818  0.00  0.00    -0.080 A 
BRANCH  15  18
ATOM     18  C   LIG    1        9.408   6.077  -5.365  0.00  0.00    +0.520 C 
ATOM     19  O   LIG    1        9.106   5.630  -6.463  0.00  0.00    -0.690 OA
ATOM     20  O   LIG    1       10.360   6.839  -5.256  0.00  0.00    -0.690 OA
ENDBRANCH  15  18
ENDBRANCH  10  12
ENDBRANCH   9  10
ENDBRANCH   4   8
BRANCH   1  21
ATOM     21  C   LIG    1        1.194   0.373  -1.830  0.00  0.00    +0.310 C 
BRANCH  21  26
ATOM     22  N   LIG    1       -0.863   0.356  -3.178  0.00  0.00    -0.380 N 
ATOM     23  C   LIG    1       -0.930   1.034  -4.490  0.00  0.00    +0.260 C 
ATOM     24  C   LIG    1       -0.660   2.526  -4.182  0.00  0.00    +0.080 C 
ATOM     25  C   LIG    1        0.408   2.423  -3.062  0.00  0.00    +0.090 C 
ATOM     26  C   LIG    1       -0.033   1.172  -2.274  0.00  0.00    +0.140 C 
ATOM     27  H   LIG    1       -1.792   0.263  -2.796  0.00  0.00    +0.430 HD
BRANCH  22  29
ATOM     28  C   LIG    1       -1.169  -1.846  -4.205  0.00  0.00    +0.090 C 
ATOM     29  C   LIG    1       -0.259  -0.973  -3.339  0.00  0.00    +0.240 C 
ENDBRANCH  22  29
ENDBRANCH  21  26
ENDBRANCH   1  21
TORSDOF 7
