REMARK  Name = ZINCb80000003VXh.1
REMARK                            x       y       z     vdW  Elec       q    Type
REMARK                         _______ _______ _______ _____ _____    ______ ____
ROOT
ATOM      1  C   LIG    1        1.179   2.159   0.002  0.00  0.00    +0.270 A 
ATOM      2  C   LIG    1       -0.015   1.430   0.101  0.00  0.00    -0.190 A 
ATOM      3  C   LIG    1       -1.243   2.135   0.107  0.00  0.00    +0.550 A 
ATOM      4  N   LIG    1       -1.246   3.479   0.029  0.00  0.00    -0.610 N 
ATOM      5  H   LIG    1       -2.091   3.954   0.037  0.00  0.00    +0.430 HD
ATOM      6  C   LIG    1       -0.088   4.181  -0.066  0.00  0.00    +0.370 A 
ATOM      7  O   LIG    1       -2.296   1.525   0.186  0.00  0.00    -0.520 OA
ATOM      8  C   LIG    1        1.112   3.559  -0.081  0.00  0.00    -0.110 A 
ENDROOT
BRANCH   1  10
ATOM      9  C   LIG    1        3.140   1.610  -1.215  0.00  0.00    +0.270 C 
ATOM     10  O   LIG    1        2.373   1.524  -0.011  0.00  0.00    -0.330 OA
ENDBRANCH   1  10
BRANCH   2  11
ATOM     11  C   LIG    1        0.007   0.001   0.188  0.00  0.00    +0.280 C 
ATOM     12  N   LIG    1        0.024  -1.133   0.256  0.00  0.00    -0.410 NA
ENDBRANCH   2  11
TORSDOF 2
