REMARK  Name = ZINCqH0000000nIy.0
REMARK                            x       y       z     vdW  Elec       q    Type
REMARK                         _______ _______ _______ _____ _____    ______ ____
ROOT
ATOM      1  N   LIG    1        1.290  -2.090  -0.415  0.00  0.00    -0.670 N 
ATOM      2  H   LIG    1        2.155  -2.528  -0.416  0.00  0.00    +0.400 HD
ATOM      3  C   LIG    1        0.162  -2.825  -0.452  0.00  0.00    +0.560 C 
ATOM      4  O   LIG    1       -0.919  -2.276  -0.555  0.00  0.00    -0.510 OA
ENDROOT
BRANCH   1  10
ATOM      5  C   LIG    1        2.273   0.074  -0.846  0.00  0.00    -0.140 A 
ATOM      6  C   LIG    1        2.195   1.452  -0.807  0.00  0.00    +0.050 A 
ATOM      7  C   LIG    1        1.064   2.068  -0.302  0.00  0.00    -0.020 A 
ATOM      8  C   LIG    1        0.009   1.307   0.166  0.00  0.00    +0.040 A 
ATOM      9  C   LIG    1        0.081  -0.072   0.130  0.00  0.00    +0.020 A 
ATOM     10  C   LIG    1        1.214  -0.694  -0.377  0.00  0.00    +0.160 A 
BRANCH   5  11
ATOM     11  C   LIG    1        3.505  -0.596  -1.397  0.00  0.00    +0.340 C 
BRANCH  11  14
ATOM     12  C   LIG    1        3.151  -0.582  -5.207  0.00  0.00    +0.100 C 
ATOM     13  C   LIG    1        3.522  -0.191  -3.800  0.00  0.00    +0.520 C 
ATOM     14  N   LIG    1        3.253  -1.024  -2.776  0.00  0.00    -0.610 N 
ATOM     15  C   LIG    1        2.707  -2.358  -3.040  0.00  0.00    +0.280 C 
ATOM     16  O   LIG    1        4.064   0.874  -3.589  0.00  0.00    -0.540 OA
ENDBRANCH  11  14
ENDBRANCH   5  11
ENDBRANCH   1  10
BRANCH   3  17
ATOM     17  C   LIG    1        0.236  -4.296  -0.367  0.00  0.00    -0.180 A 
ATOM     18  C   LIG    1        1.477  -4.929  -0.255  0.00  0.00    +0.090 A 
ATOM     19  C   LIG    1        1.543  -6.302  -0.170  0.00  0.00    -0.080 A 
ATOM     20  C   LIG    1        0.377  -7.059  -0.208  0.00  0.00    +0.170 A 
ATOM     21  C   LIG    1       -0.858  -6.434  -0.326  0.00  0.00    -0.020 A 
ATOM     22  C   LIG    1       -0.933  -5.061  -0.405  0.00  0.00    +0.140 A 
BRANCH  20  23
ATOM     23  O   LIG    1        0.446  -8.412  -0.131  0.00  0.00    -0.300 OA
BRANCH  23  24
ATOM     24  C   LIG    1        1.748  -8.989  -0.011  0.00  0.00    +0.230 C 
BRANCH  24  25
ATOM     25  C   LIG    1        1.625 -10.513   0.062  0.00  0.00    -0.040 C 
ATOM     26  C   LIG    1        2.083 -11.197   1.352  0.00  0.00    +0.030 C 
ATOM     27  C   LIG    1        2.921 -11.326   0.078  0.00  0.00    +0.030 C 
ENDBRANCH  24  25
ENDBRANCH  23  24
ENDBRANCH  20  23
ENDBRANCH   3  17
TORSDOF 7
