REMARK  Name = ZINCpk00000y6yTR.0
REMARK                            x       y       z     vdW  Elec       q    Type
REMARK                         _______ _______ _______ _____ _____    ______ ____
ROOT
ATOM      1  N   LIG    1       -5.282  -2.557   0.584  0.00  0.00    -0.740 N 
ATOM      2  H   LIG    1       -5.934  -1.888   0.322  0.00  0.00    +0.390 HD
ATOM      3  C   LIG    1       -5.286  -3.769  -0.006  0.00  0.00    +0.710 C 
ATOM      4  N   LIG    1       -6.255  -4.087  -0.887  0.00  0.00    -0.630 N 
ATOM      5  C   LIG    1       -6.339  -5.441  -1.451  0.00  0.00    +0.290 C 
ATOM      6  C   LIG    1       -6.364  -5.337  -2.979  0.00  0.00    +0.030 C 
ATOM      7  C   LIG    1       -7.502  -4.407  -3.405  0.00  0.00    +0.020 C 
ATOM      8  C   LIG    1       -7.263  -3.009  -2.830  0.00  0.00    +0.150 C 
ATOM      9  C   LIG    1       -7.252  -3.087  -1.296  0.00  0.00    +0.250 C 
ATOM     10  O   LIG    1       -4.415  -4.576   0.257  0.00  0.00    -0.580 OA
ENDROOT
BRANCH   1  15
ATOM     11  C   LIG    1       -4.061  -0.731   1.694  0.00  0.00    -0.010 C 
ATOM     12  C   LIG    1       -4.461  -0.291   3.117  0.00  0.00    +0.030 C 
ATOM     13  C   LIG    1       -5.447  -1.387   3.591  0.00  0.00    +0.010 C 
ATOM     14  C   LIG    1       -4.829  -2.680   3.003  0.00  0.00    +0.020 C 
ATOM     15  C   LIG    1       -4.295  -2.250   1.622  0.00  0.00    +0.260 C 
BRANCH  11  16
ATOM     16  C   LIG    1       -2.585  -0.416   1.443  0.00  0.00    +0.280 C 
BRANCH  16  17
ATOM     17  N   LIG    1       -2.397   1.036   1.396  0.00  0.00    -1.120 NA
ATOM     18  H   LIG    1       -3.164   1.622   1.298  0.00  0.00    +0.420 HD
BRANCH  17  20
ATOM     19  C   LIG    1       -0.025   1.100   0.016  0.00  0.00    -0.280 C 
ATOM     20  S   LIG    1       -0.874   1.678   1.511  0.00  0.00    +2.620 S 
ATOM     21  O   LIG    1       -1.081   3.083   1.454  0.00  0.00    -0.960 OA
ATOM     22  O   LIG    1       -0.322   1.065   2.667  0.00  0.00    -0.950 OA
ENDBRANCH  17  20
ENDBRANCH  16  17
ENDBRANCH  11  16
ENDBRANCH   1  15
BRANCH   8  23
ATOM     23  O   LIG    1       -8.309  -2.133  -3.254  0.00  0.00    -0.360 OA
BRANCH  23  24
ATOM     24  C   LIG    1       -7.907  -0.768  -3.387  0.00  0.00    +0.150 C 
ATOM     25  C   LIG    1       -8.557   0.168  -2.354  0.00  0.00    +0.000 C 
ATOM     26  C   LIG    1       -8.698   1.195  -3.490  0.00  0.00    +0.020 C 
ATOM     27  C   LIG    1       -8.691   0.003  -4.462  0.00  0.00    +0.020 C 
ENDBRANCH  23  24
ENDBRANCH   8  23
TORSDOF 6
