REMARK  Name = ZINCrH000004j4ob.0
REMARK                            x       y       z     vdW  Elec       q    Type
REMARK                         _______ _______ _______ _____ _____    ______ ____
ROOT
ATOM      1  C   LIG    1        1.160   3.166   0.008  0.00  0.00    -0.110 A 
ATOM      2  C   LIG    1        1.175   1.784   0.000  0.00  0.00    +0.040 A 
ATOM      3  C   LIG    1       -0.013   1.076   0.008  0.00  0.00    -0.040 A 
ATOM      4  C   LIG    1       -1.222   1.752   0.017  0.00  0.00    +0.110 A 
ATOM      5  C   LIG    1       -1.237   3.144   0.030  0.00  0.00    +0.100 A 
ATOM      6  C   LIG    1       -0.043   3.847   0.023  0.00  0.00    -0.010 A 
ENDROOT
BRANCH   5   7
ATOM      7  O   LIG    1       -2.421   3.812   0.045  0.00  0.00    -0.300 OA
ATOM      8  C   LIG    1       -2.360   5.240   0.052  0.00  0.00    +0.240 C 
ENDBRANCH   5   7
BRANCH   1   9
ATOM      9  C   LIG    1        2.458   3.932  -0.000  0.00  0.00    +0.330 C 
BRANCH   9  11
ATOM     10  C   LIG    1        4.004   4.862  -1.638  0.00  0.00    +0.560 C 
ATOM     11  N   LIG    1        2.865   4.187  -1.384  0.00  0.00    -0.720 N 
ATOM     12  H   LIG    1        2.315   3.871  -2.118  0.00  0.00    +0.400 HD
ATOM     13  O   LIG    1        4.693   5.259  -0.718  0.00  0.00    -0.540 OA
BRANCH  10  17
ATOM     14  C   LIG    1        5.185   5.604  -5.650  0.00  0.00    -0.050 A 
ATOM     15  C   LIG    1        5.971   6.056  -4.606  0.00  0.00    +0.000 A 
ATOM     16  C   LIG    1        5.593   5.819  -3.300  0.00  0.00    +0.090 A 
ATOM     17  C   LIG    1        4.415   5.121  -3.034  0.00  0.00    -0.140 A 
ATOM     18  C   LIG    1        3.629   4.662  -4.092  0.00  0.00    +0.040 A 
ATOM     19  C   LIG    1        4.016   4.910  -5.393  0.00  0.00    +0.000 A 
BRANCH  14  21
ATOM     20  C   LIG    1        6.479   4.713  -7.568  0.00  0.00    +0.030 C 
ATOM     21  C   LIG    1        5.604   5.866  -7.073  0.00  0.00    +0.070 C 
ENDBRANCH  14  21
ENDBRANCH  10  17
ENDBRANCH   9  11
ENDBRANCH   1   9
BRANCH   4  22
ATOM     22  O   LIG    1       -2.391   1.058   0.019  0.00  0.00    -0.290 OA
BRANCH  22  23
ATOM     23  C   LIG    1       -2.299  -0.368   0.011  0.00  0.00    +0.210 C 
BRANCH  23  24
ATOM     24  C   LIG    1       -3.705  -0.971   0.014  0.00  0.00    +0.160 C 
ATOM     25  C   LIG    1       -3.619  -2.503  -0.121  0.00  0.00    +0.010 C 
ATOM     26  C   LIG    1       -4.329  -3.036   1.147  0.00  0.00    +0.000 C 
ATOM     27  C   LIG    1       -5.195  -1.822   1.569  0.00  0.00    +0.200 C 
ATOM     28  O   LIG    1       -4.355  -0.688   1.265  0.00  0.00    -0.360 OA
ENDBRANCH  23  24
ENDBRANCH  22  23
ENDBRANCH   4  22
TORSDOF 8
