REMARK  Name = ZINCpk000000n8GO.0
REMARK                            x       y       z     vdW  Elec       q    Type
REMARK                         _______ _______ _______ _____ _____    ______ ____
ROOT
ATOM      1  C   LIG    1       -0.074   1.062  -2.502  0.00  0.00    +0.310 C 
ENDROOT
BRANCH   1   8
ATOM      2  C   LIG    1       -2.484   0.316  -1.567  0.00  0.00    +0.640 C 
ATOM      3  N   LIG    1       -1.872   1.278  -0.847  0.00  0.00    -0.600 N 
ATOM      4  C   LIG    1       -2.474   1.782   0.394  0.00  0.00    +0.270 C 
ATOM      5  C   LIG    1       -1.445   1.671   1.523  0.00  0.00    +0.010 C 
ATOM      6  C   LIG    1       -0.160   2.393   1.109  0.00  0.00    +0.020 C 
ATOM      7  C   LIG    1        0.420   1.729  -0.141  0.00  0.00    +0.020 C 
ATOM      8  C   LIG    1       -0.588   1.840  -1.289  0.00  0.00    +0.230 C 
ATOM      9  O   LIG    1       -1.925  -0.170  -2.530  0.00  0.00    -0.540 OA
BRANCH   2  10
ATOM     10  O   LIG    1       -3.715  -0.104  -1.219  0.00  0.00    -0.370 OA
BRANCH  10  12
ATOM     11  C   LIG    1       -3.428  -2.390  -2.009  0.00  0.00    +0.040 C 
ATOM     12  C   LIG    1       -4.313  -1.142  -2.039  0.00  0.00    +0.140 C 
ATOM     13  C   LIG    1       -4.442  -0.643  -3.479  0.00  0.00    +0.040 C 
ATOM     14  C   LIG    1       -5.700  -1.487  -1.493  0.00  0.00    +0.080 C 
ENDBRANCH  10  12
ENDBRANCH   2  10
ENDBRANCH   1   8
BRANCH   1  15
ATOM     15  N   LIG    1       -0.926   1.343  -3.660  0.00  0.00    -0.710 N 
ATOM     16  H   LIG    1       -1.725   1.883  -3.554  0.00  0.00    +0.390 HD
ATOM     17  C   LIG    1       -0.601   0.850  -4.871  0.00  0.00    +0.710 C 
ATOM     18  N   LIG    1       -1.386   1.108  -5.936  0.00  0.00    -0.740 N 
ATOM     19  H   LIG    1       -2.184   1.649  -5.831  0.00  0.00    +0.390 HD
ATOM     20  O   LIG    1        0.400   0.172  -5.003  0.00  0.00    -0.600 OA
BRANCH  18  21
ATOM     21  C   LIG    1       -1.032   0.572  -7.253  0.00  0.00    +0.300 C 
BRANCH  21  22
ATOM     22  C   LIG    1       -2.079   1.009  -8.279  0.00  0.00    +0.120 C 
ATOM     23  C   LIG    1       -1.779   0.351  -9.629  0.00  0.00    +0.210 C 
ATOM     24  O   LIG    1       -2.693   0.852 -10.609  0.00  0.00    -0.380 OA
ATOM     25  C   LIG    1       -2.651   2.274 -10.759  0.00  0.00    +0.190 C 
ATOM     26  C   LIG    1       -2.953   2.931  -9.409  0.00  0.00    +0.190 C 
ATOM     27  O   LIG    1       -2.037   2.431  -8.429  0.00  0.00    -0.370 OA
ENDBRANCH  21  22
ENDBRANCH  18  21
ENDBRANCH   1  15
TORSDOF 6
