REMARK  Name = ZINCrD000000CbDk.0
REMARK                            x       y       z     vdW  Elec       q    Type
REMARK                         _______ _______ _______ _____ _____    ______ ____
ROOT
ATOM      1  O   LIG    1       -3.405   3.032   0.051  0.00  0.00    -0.490 OA
ATOM      2  C   LIG    1       -2.923   4.145   0.052  0.00  0.00    +0.530 C 
ATOM      3  N   LIG    1       -1.584   4.299   0.040  0.00  0.00    -0.650 N 
ATOM      4  H   LIG    1       -1.198   5.189   0.040  0.00  0.00    +0.410 HD
ENDROOT
BRANCH   2   5
ATOM      5  C   LIG    1       -3.820   5.356   0.066  0.00  0.00    +0.010 C 
ATOM      6  C   LIG    1       -3.663   6.177  -1.235  0.00  0.00    +0.070 C 
ATOM      7  C   LIG    1       -4.751   5.644  -2.142  0.00  0.00    +0.520 C 
ATOM      8  N   LIG    1       -5.654   4.954  -1.425  0.00  0.00    -0.610 N 
ATOM      9  O   LIG    1       -4.801   5.817  -3.342  0.00  0.00    -0.510 OA
ATOM     10  C   LIG    1       -5.307   4.942   0.001  0.00  0.00    +0.310 C 
BRANCH   8  11
ATOM     11  C   LIG    1       -6.833   4.296  -1.994  0.00  0.00    +0.250 C 
ATOM     12  C   LIG    1       -6.404   3.290  -3.082  0.00  0.00    +0.020 C 
ATOM     13  C   LIG    1       -7.506   3.406  -4.164  0.00  0.00    +0.020 C 
ATOM     14  C   LIG    1       -7.819   4.923  -4.172  0.00  0.00    +0.010 C 
ATOM     15  C   LIG    1       -7.733   5.335  -2.688  0.00  0.00    +0.010 C 
ENDBRANCH   8  11
ENDBRANCH   2   5
BRANCH   3  16
ATOM     16  C   LIG    1       -0.753   3.179   0.026  0.00  0.00    +0.310 A 
ATOM     17  C   LIG    1       -1.157   1.879   0.017  0.00  0.00    -0.100 A 
ATOM     18  C   LIG    1       -0.013   1.076   0.008  0.00  0.00    +0.250 A 
ATOM     19  N   LIG    1        1.038   1.856   0.002  0.00  0.00    -0.280 NA
ATOM     20  N   LIG    1        0.599   3.187   0.013  0.00  0.00    -0.380 N 
BRANCH  20  21
ATOM     21  C   LIG    1        1.454   4.376   0.011  0.00  0.00    +0.380 C 
BRANCH  21  22
ATOM     22  C   LIG    1        1.734   4.791  -1.411  0.00  0.00    -0.110 A 
ATOM     23  C   LIG    1        2.837   4.287  -2.074  0.00  0.00    +0.050 A 
ATOM     24  C   LIG    1        3.091   4.663  -3.379  0.00  0.00    +0.040 A 
ATOM     25  C   LIG    1        2.248   5.552  -4.019  0.00  0.00    +0.040 A 
ATOM     26  C   LIG    1        1.146   6.061  -3.354  0.00  0.00    -0.040 A 
ATOM     27 CL   LIG    1        0.087   7.178  -4.157  0.00  0.00    -0.060 Cl
ATOM     28  C   LIG    1        0.890   5.680  -2.050  0.00  0.00    +0.020 A 
ENDBRANCH  21  22
ENDBRANCH  20  21
ENDBRANCH   3  16
TORSDOF 5
