REMARK  Name = ZINCpe00000gMPS1.0
REMARK                            x       y       z     vdW  Elec       q    Type
REMARK                         _______ _______ _______ _____ _____    ______ ____
ROOT
ATOM      1  N   LIG    1       -1.260   2.431   6.138  0.00  0.00    -0.530 NA
ATOM      2  C   LIG    1        0.153   2.107   5.898  0.00  0.00    +0.190 C 
ATOM      3  C   LIG    1        0.623   2.804   4.618  0.00  0.00    +0.300 C 
ATOM      4  N   LIG    1       -0.292   2.442   3.525  0.00  0.00    -0.610 N 
ATOM      5  C   LIG    1       -1.736   2.616   3.740  0.00  0.00    +0.280 C 
ATOM      6  C   LIG    1        0.181   1.968   2.355  0.00  0.00    +0.530 C 
ATOM      7  O   LIG    1        1.376   1.836   2.193  0.00  0.00    -0.530 OA
ATOM      8  C   LIG    1       -2.115   1.920   5.057  0.00  0.00    +0.160 C 
ENDROOT
BRANCH   6   9
ATOM      9  C   LIG    1       -0.775   1.603   1.248  0.00  0.00    +0.000 C 
ATOM     10  C   LIG    1       -1.477   2.861   0.683  0.00  0.00    +0.070 C 
ATOM     11  C   LIG    1       -1.585   2.591  -0.802  0.00  0.00    +0.520 C 
ATOM     12  N   LIG    1       -0.759   1.590  -1.151  0.00  0.00    -0.620 N 
ATOM     13  O   LIG    1       -2.311   3.192  -1.566  0.00  0.00    -0.520 OA
ATOM     14  C   LIG    1       -0.013   1.086   0.008  0.00  0.00    +0.300 C 
BRANCH  12  15
ATOM     15  C   LIG    1       -0.621   1.069  -2.513  0.00  0.00    +0.330 C 
BRANCH  15  16
ATOM     16  C   LIG    1       -1.622  -0.068  -2.728  0.00  0.00    -0.060 C 
ATOM     17  C   LIG    1       -1.057  -1.464  -3.002  0.00  0.00    +0.010 C 
ATOM     18  C   LIG    1       -1.716  -0.670  -4.132  0.00  0.00    +0.030 C 
ENDBRANCH  15  16
ENDBRANCH  12  15
ENDBRANCH   6   9
BRANCH   1  19
ATOM     19  C   LIG    1       -1.703   1.923   7.443  0.00  0.00    +0.310 C 
BRANCH  19  24
ATOM     20  C   LIG    1       -6.732   1.159   7.287  0.00  0.00    +0.160 C 
ATOM     21  C   LIG    1       -5.359   1.744   7.493  0.00  0.00    +0.020 A 
ATOM     22  N   LIG    1       -5.076   2.914   7.989  0.00  0.00    -0.360 NA
ATOM     23  O   LIG    1       -3.882   3.101   8.035  0.00  0.00    +0.110 OA
ATOM     24  C   LIG    1       -3.200   2.053   7.551  0.00  0.00    -0.030 A 
ATOM     25  C   LIG    1       -4.123   1.131   7.185  0.00  0.00    -0.060 A 
ENDBRANCH  19  24
ENDBRANCH   1  19
TORSDOF 5
