REMARK  Name = ZINCvU0000000CvM.0
REMARK                            x       y       z     vdW  Elec       q    Type
REMARK                         _______ _______ _______ _____ _____    ______ ____
ROOT
ATOM      1  C   LIG    1       -2.711  -2.673  -0.063  0.00  0.00    +0.090 C 
ENDROOT
BRANCH   1   5
ATOM      2  C   LIG    1       -1.832  -6.750   0.871  0.00  0.00    +0.180 A 
ATOM      3  C   LIG    1       -0.836  -5.920   0.375  0.00  0.00    +0.020 A 
ATOM      4  C   LIG    1       -1.123  -4.603   0.074  0.00  0.00    +0.080 A 
ATOM      5  C   LIG    1       -2.401  -4.111   0.266  0.00  0.00    -0.150 A 
ATOM      6  C   LIG    1       -3.394  -4.934   0.764  0.00  0.00    +0.070 A 
ATOM      7  C   LIG    1       -3.115  -6.253   1.062  0.00  0.00    +0.000 A 
BRANCH   2   9
ATOM      8  C   LIG    1       -0.320  -8.424   1.627  0.00  0.00    +0.520 C 
ATOM      9  N   LIG    1       -1.544  -8.085   1.177  0.00  0.00    -0.670 N 
ATOM     10  H   LIG    1       -2.226  -8.766   1.067  0.00  0.00    +0.410 HD
ATOM     11  O   LIG    1        0.502  -7.562   1.856  0.00  0.00    -0.510 OA
BRANCH   8  13
ATOM     12  C   LIG    1        1.467  -9.983   2.353  0.00  0.00    +0.060 C 
ATOM     13  C   LIG    1        0.028  -9.874   1.845  0.00  0.00    -0.080 C 
ATOM     14  C   LIG    1       -0.105 -10.634   0.524  0.00  0.00    +0.050 C 
ATOM     15  C   LIG    1       -0.925 -10.477   2.878  0.00  0.00    +0.050 C 
ENDBRANCH   8  13
ENDBRANCH   2   9
ENDBRANCH   1   5
BRANCH   1  16
ATOM     16  C   LIG    1       -4.127  -2.574  -0.634  0.00  0.00    +0.440 C 
ATOM     17  F   LIG    1       -4.364  -1.266  -1.069  0.00  0.00    -0.160 F 
ATOM     18  F   LIG    1       -5.054  -2.911   0.358  0.00  0.00    -0.160 F 
ATOM     19  F   LIG    1       -4.257  -3.456  -1.713  0.00  0.00    -0.140 F 
ENDBRANCH   1  16
BRANCH   1  20
ATOM     20  C   LIG    1       -2.613  -1.827   1.207  0.00  0.00    +0.480 C 
ATOM     21  F   LIG    1       -1.338  -1.969   1.765  0.00  0.00    -0.150 F 
ATOM     22  F   LIG    1       -3.575  -2.255   2.128  0.00  0.00    -0.150 F 
ATOM     23  F   LIG    1       -2.836  -0.482   0.890  0.00  0.00    -0.160 F 
ENDBRANCH   1  20
BRANCH   1  24
ATOM     24  O   LIG    1       -1.758  -2.185  -1.045  0.00  0.00    -0.310 OA
BRANCH  24  25
ATOM     25  C   LIG    1       -1.632  -2.897  -2.181  0.00  0.00    +0.500 C 
ATOM     26  O   LIG    1       -2.241  -3.940  -2.315  0.00  0.00    -0.450 OA
BRANCH  25  27
ATOM     27  C   LIG    1       -0.754  -2.409  -3.265  0.00  0.00    -0.130 A 
ATOM     28  C   LIG    1       -0.622  -3.145  -4.444  0.00  0.00    +0.090 A 
ATOM     29  C   LIG    1        0.199  -2.683  -5.452  0.00  0.00    +0.010 A 
ATOM     30  C   LIG    1        0.890  -1.495  -5.296  0.00  0.00    +0.050 A 
ATOM     31  C   LIG    1        0.763  -0.761  -4.130  0.00  0.00    +0.010 A 
ATOM     32  C   LIG    1       -0.054  -1.211  -3.114  0.00  0.00    +0.080 A 
ENDBRANCH  25  27
ENDBRANCH  24  25
ENDBRANCH   1  24
TORSDOF 8
