REMARK  Name = ZINCrg00001JduYG.0
REMARK                            x       y       z     vdW  Elec       q    Type
REMARK                         _______ _______ _______ _____ _____    ______ ____
ROOT
ATOM      1  C   LIG    1        2.516  -0.367   2.794  0.00  0.00    +0.250 C 
ENDROOT
BRANCH   1   2
ATOM      2  C   LIG    1        1.597   0.179   1.731  0.00  0.00    +0.530 C 
ATOM      3  N   LIG    1        0.429  -0.439   1.468  0.00  0.00    -0.610 N 
ATOM      4  C   LIG    1       -0.026  -1.591   2.265  0.00  0.00    +0.280 C 
ATOM      5  C   LIG    1       -1.346  -1.214   2.939  0.00  0.00    +0.260 C 
ATOM      6  N   LIG    1       -2.252  -0.588   1.986  0.00  0.00    -0.720 N 
ATOM      7  H   LIG    1       -3.201  -0.601   2.190  0.00  0.00    +0.400 HD
ATOM      8  C   LIG    1       -1.870   0.003   0.853  0.00  0.00    +0.510 C 
ATOM      9  O   LIG    1       -2.710   0.559   0.178  0.00  0.00    -0.540 OA
ATOM     10  C   LIG    1       -0.444   0.010   0.373  0.00  0.00    +0.250 C 
ATOM     11  C   LIG    1       -0.052   1.429  -0.046  0.00  0.00    +0.100 C 
ATOM     12  O   LIG    1        1.910   1.174   1.113  0.00  0.00    -0.510 OA
ENDBRANCH   1   2
BRANCH   1  14
ATOM     13  C   LIG    1        3.788   0.616   4.625  0.00  0.00    +0.530 C 
ATOM     14  N   LIG    1        3.296   0.728   3.375  0.00  0.00    -0.710 N 
ATOM     15  H   LIG    1        3.459   1.534   2.861  0.00  0.00    +0.410 HD
ATOM     16  O   LIG    1        3.585  -0.392   5.268  0.00  0.00    -0.520 OA
BRANCH  13  17
ATOM     17  C   LIG    1        4.591   1.742   5.222  0.00  0.00    +0.170 C 
BRANCH  17  21
ATOM     18  N   LIG    1        6.153   0.590   8.331  0.00  0.00    -0.360 N 
ATOM     19  C   LIG    1        5.022   1.133   8.831  0.00  0.00    +0.280 A 
ATOM     20  C   LIG    1        4.307   1.626   7.793  0.00  0.00    -0.230 A 
ATOM     21  C   LIG    1        5.021   1.368   6.617  0.00  0.00    +0.120 A 
ATOM     22 BR   LIG    1        2.637   2.504   7.910  0.00  0.00    -0.020 Br
ATOM     23  N   LIG    1        6.129   0.750   6.939  0.00  0.00    -0.270 NA
BRANCH  18  25
ATOM     24  C   LIG    1        7.459  -1.464   8.568  0.00  0.00    +0.040 C 
ATOM     25  C   LIG    1        7.217  -0.052   9.106  0.00  0.00    +0.320 C 
ENDBRANCH  18  25
ENDBRANCH  17  21
ENDBRANCH  13  17
ENDBRANCH   1  14
BRANCH   1  26
ATOM     26  C   LIG    1        3.463  -1.395   2.171  0.00  0.00    -0.070 C 
ATOM     27  C   LIG    1        2.648  -2.545   1.576  0.00  0.00    +0.040 C 
ATOM     28  C   LIG    1        4.404  -1.940   3.248  0.00  0.00    +0.040 C 
ATOM     29  C   LIG    1        4.285  -0.726   1.067  0.00  0.00    +0.040 C 
ENDBRANCH   1  26
TORSDOF 6
