REMARK  Name = ZINCpe000000Yavx.0
REMARK                            x       y       z     vdW  Elec       q    Type
REMARK                         _______ _______ _______ _____ _____    ______ ____
ROOT
ATOM      1  C   LIG    1        1.050   7.484   3.125  0.00  0.00    +0.510 C 
ATOM      2  N   LIG    1        1.075   6.162   2.866  0.00  0.00    -0.700 N 
ATOM      3  H   LIG    1        1.097   5.525   3.597  0.00  0.00    +0.410 HD
ATOM      4  O   LIG    1        1.022   8.282   2.211  0.00  0.00    -0.520 OA
ENDROOT
BRANCH   1   7
ATOM      5  N   LIG    1        1.031   9.291   4.798  0.00  0.00    -0.700 N 
ATOM      6  H   LIG    1        1.009   9.928   4.067  0.00  0.00    +0.420 HD
ATOM      7  C   LIG    1        1.056   7.969   4.539  0.00  0.00    +0.510 C 
ATOM      8  O   LIG    1        1.084   7.172   5.453  0.00  0.00    -0.520 OA
BRANCH   5   9
ATOM      9  C   LIG    1        1.038   9.766   6.184  0.00  0.00    +0.380 C 
BRANCH   9  16
ATOM     10  C   LIG    1       -1.571  11.694   6.233  0.00  0.00    +0.160 C 
ATOM     11  C   LIG    1       -0.126  12.119   6.221  0.00  0.00    +0.040 A 
ATOM     12  N   LIG    1        0.328  13.339   6.228  0.00  0.00    -0.360 NA
ATOM     13  O   LIG    1        1.537  13.365   6.214  0.00  0.00    +0.100 OA
ATOM     14  C   LIG    1        2.055  12.129   6.200  0.00  0.00    +0.000 A 
ATOM     15  C   LIG    1        3.518  11.764   6.187  0.00  0.00    +0.190 C 
ATOM     16  C   LIG    1        1.006  11.273   6.199  0.00  0.00    -0.240 A 
ENDBRANCH   9  16
ENDBRANCH   5   9
ENDBRANCH   1   7
BRANCH   2  17
ATOM     17  C   LIG    1        1.068   5.687   1.480  0.00  0.00    +0.280 C 
BRANCH  17  18
ATOM     18  C   LIG    1        1.101   4.157   1.465  0.00  0.00    +0.000 C 
BRANCH  18  19
ATOM     19  C   LIG    1        1.094   3.662   0.018  0.00  0.00    +0.290 C 
BRANCH  19  20
ATOM     20  N   LIG    1        1.125   2.197   0.003  0.00  0.00    -0.610 N 
ATOM     21  C   LIG    1        2.417   1.493  -0.019  0.00  0.00    +0.280 C 
ATOM     22  C   LIG    1        2.649   0.851   1.350  0.00  0.00    +0.010 C 
ATOM     23  C   LIG    1        2.006  -0.521   1.420  0.00  0.00    +0.020 C 
ATOM     24  C   LIG    1        0.489  -0.491   1.369  0.00  0.00    +0.040 C 
ATOM     25  C   LIG    1        0.002  -0.004   0.002  0.00  0.00    +0.050 C 
ATOM     26  C   LIG    1       -0.018   1.510   0.010  0.00  0.00    +0.520 C 
ATOM     27  O   LIG    1       -1.078   2.100   0.019  0.00  0.00    -0.540 OA
ENDBRANCH  19  20
ENDBRANCH  18  19
ENDBRANCH  17  18
ENDBRANCH   2  17
TORSDOF 7
