REMARK  Name = ZINCpe00000gLRc9.0
REMARK                            x       y       z     vdW  Elec       q    Type
REMARK                         _______ _______ _______ _____ _____    ______ ____
ROOT
ATOM      1  C   LIG    1       -0.679   9.276   1.117  0.00  0.00    +0.220 C 
ENDROOT
BRANCH   1   2
ATOM      2  N   LIG    1       -0.659   7.807   1.109  0.00  0.00    -0.520 NA
ATOM      3  C   LIG    1       -1.427   7.276  -0.026  0.00  0.00    +0.200 C 
ATOM      4  C   LIG    1       -1.448   5.747   0.046  0.00  0.00    +0.200 C 
ATOM      5  N   LIG    1       -0.069   5.239   0.030  0.00  0.00    -0.490 N 
ATOM      6  C   LIG    1        0.698   5.770   1.166  0.00  0.00    +0.210 C 
ATOM      7  C   LIG    1        0.719   7.299   1.093  0.00  0.00    +0.190 C 
BRANCH   5   8
ATOM      8  C   LIG    1       -0.050   3.842   0.023  0.00  0.00    +0.110 A 
ATOM      9  C   LIG    1        1.161   3.163   0.008  0.00  0.00    -0.020 A 
ATOM     10  C   LIG    1        1.176   1.782   0.000  0.00  0.00    +0.030 A 
ATOM     11  C   LIG    1       -0.013   1.076   0.008  0.00  0.00    -0.030 A 
ATOM     12  C   LIG    1       -1.220   1.749   0.017  0.00  0.00    +0.030 A 
ATOM     13  C   LIG    1       -1.243   3.130   0.031  0.00  0.00    -0.040 A 
ENDBRANCH   5   8
ENDBRANCH   1   2
BRANCH   1  15
ATOM     14  N   LIG    1       -0.017  11.104   2.645  0.00  0.00    -0.610 N 
ATOM     15  C   LIG    1       -0.100   9.779   2.413  0.00  0.00    +0.520 C 
ATOM     16  O   LIG    1        0.290   8.992   3.249  0.00  0.00    -0.510 OA
BRANCH  14  17
ATOM     17  C   LIG    1        0.546  11.594   3.905  0.00  0.00    +0.270 C 
ATOM     18  C   LIG    1       -0.279  11.051   5.086  0.00  0.00    +0.070 C 
ATOM     19  C   LIG    1        0.550  11.323   6.368  0.00  0.00    -0.310 C 
ATOM     20  S   LIG    1        2.249  10.874   5.848  0.00  0.00    +2.400 S 
ATOM     21  O   LIG    1        3.162  11.853   6.324  0.00  0.00    -0.940 OA
ATOM     22  O   LIG    1        2.477   9.498   6.121  0.00  0.00    -0.920 OA
ATOM     23  C   LIG    1        2.000  11.101   4.050  0.00  0.00    -0.320 C 
ENDBRANCH  14  17
BRANCH  14  25
ATOM     24  C   LIG    1       -1.967  12.366   1.879  0.00  0.00    +0.010 C 
ATOM     25  C   LIG    1       -0.489  12.055   1.635  0.00  0.00    +0.270 C 
ENDBRANCH  14  25
ENDBRANCH   1  15
TORSDOF 5
