REMARK  Name = ZINCnE000004wSml.1
REMARK                            x       y       z     vdW  Elec       q    Type
REMARK                         _______ _______ _______ _____ _____    ______ ____
ROOT
ATOM      1  O   LIG    1        0.899   1.966   0.153  0.00  0.00    -0.530 OA
ATOM      2  C   LIG    1       -0.114   1.292   0.128  0.00  0.00    +0.600 C 
ATOM      3  N   LIG    1       -0.028  -0.050   0.040  0.00  0.00    -0.620 N 
ATOM      4  C   LIG    1       -1.163  -0.989   0.106  0.00  0.00    +0.270 C 
ATOM      5  C   LIG    1       -0.669  -2.257  -0.640  0.00  0.00    +0.010 C 
ATOM      6  C   LIG    1        0.820  -2.311  -0.205  0.00  0.00    +0.030 C 
ATOM      7  C   LIG    1        1.212  -0.820  -0.131  0.00  0.00    +0.220 C 
ENDROOT
BRANCH   2   8
ATOM      8  C   LIG    1       -1.435   1.945   0.187  0.00  0.00    -0.170 A 
ATOM      9  C   LIG    1       -1.508   3.332   0.283  0.00  0.00    +0.310 A 
ATOM     10  C   LIG    1       -2.784   3.934   0.333  0.00  0.00    -0.140 A 
ATOM     11  C   LIG    1       -2.948   5.322   0.425  0.00  0.00    +0.070 A 
ATOM     12  C   LIG    1       -4.205   5.848   0.475  0.00  0.00    -0.060 A 
ATOM     13  C   LIG    1       -5.327   5.025   0.436  0.00  0.00    +0.010 A 
ATOM     14  C   LIG    1       -5.203   3.670   0.347  0.00  0.00    -0.020 A 
ATOM     15  C   LIG    1       -3.926   3.094   0.293  0.00  0.00    -0.030 A 
ATOM     16  C   LIG    1       -3.743   1.700   0.201  0.00  0.00    +0.100 A 
ATOM     17  O   LIG    1       -0.382   4.085   0.322  0.00  0.00    -0.620 OA
ATOM     18  N   LIG    1       -2.539   1.192   0.153  0.00  0.00    -0.390 NA
ENDBRANCH   2   8
BRANCH   7  19
ATOM     19  C   LIG    1        2.141  -0.582   1.062  0.00  0.00    +0.060 C 
BRANCH  19  20
ATOM     20  C   LIG    1        3.486  -1.265   0.805  0.00  0.00    +0.460 C 
ATOM     21  F   LIG    1        3.278  -2.624   0.549  0.00  0.00    -0.190 F 
ATOM     22  F   LIG    1        4.304  -1.123   1.931  0.00  0.00    -0.190 F 
ATOM     23  F   LIG    1        4.106  -0.672  -0.300  0.00  0.00    -0.180 F 
ENDBRANCH  19  20
ENDBRANCH   7  19
TORSDOF 3
