REMARK  Name = ZINCzw0000000bAv.1
REMARK                            x       y       z     vdW  Elec       q    Type
REMARK                         _______ _______ _______ _____ _____    ______ ____
ROOT
ATOM      1  N   LIG    1        2.174   1.022  -2.209  0.00  0.00    -0.370 N 
ATOM      2  C   LIG    1        2.635  -0.250  -2.079  0.00  0.00    +0.430 A 
ATOM      3  N   LIG    1        3.874  -0.314  -2.524  0.00  0.00    -0.510 NA
ATOM      4  C   LIG    1        4.269   0.889  -2.944  0.00  0.00    +0.340 A 
ATOM      5  N   LIG    1        5.449   1.372  -3.486  0.00  0.00    -0.510 N 
ATOM      6  C   LIG    1        6.584   0.468  -3.693  0.00  0.00    +0.360 C 
ATOM      7  C   LIG    1        5.555   2.671  -3.823  0.00  0.00    +0.710 A 
ATOM      8  O   LIG    1        6.598   3.078  -4.298  0.00  0.00    -0.520 OA
ATOM      9  N   LIG    1        4.535   3.530  -3.648  0.00  0.00    -0.650 N 
ATOM     10  H   LIG    1        4.645   4.459  -3.901  0.00  0.00    +0.440 HD
ATOM     11  C   LIG    1        3.362   3.117  -3.124  0.00  0.00    +0.600 A 
ATOM     12  O   LIG    1        2.446   3.906  -2.970  0.00  0.00    -0.500 OA
ATOM     13  C   LIG    1        3.208   1.769  -2.758  0.00  0.00    -0.130 A 
ENDROOT
BRANCH   2  14
ATOM     14  N   LIG    1        1.918  -1.307  -1.567  0.00  0.00    -0.460 N 
ATOM     15  C   LIG    1        2.464  -1.734  -0.271  0.00  0.00    +0.240 C 
ATOM     16  C   LIG    1        1.605  -2.869   0.291  0.00  0.00    +0.280 C 
ATOM     17  N   LIG    1        1.601  -3.994  -0.653  0.00  0.00    -0.390 N 
ATOM     18  C   LIG    1        1.031  -3.558  -1.934  0.00  0.00    +0.290 C 
ATOM     19  H   LIG    1        2.547  -4.315  -0.797  0.00  0.00    +0.420 HD
ATOM     20  C   LIG    1        1.885  -2.429  -2.515  0.00  0.00    +0.260 C 
BRANCH  17  21
ATOM     21  C   LIG    1        0.792  -5.090  -0.104  0.00  0.00    +0.310 C 
BRANCH  21  22
ATOM     22  C   LIG    1        1.302  -5.455   1.266  0.00  0.00    -0.110 C 
ATOM     23  C   LIG    1        0.476  -5.454   2.303  0.00  0.00    +0.120 C 
BRANCH  23  24
ATOM     24  C   LIG    1        0.977  -5.812   3.647  0.00  0.00    -0.100 A 
ATOM     25  C   LIG    1        2.317  -6.157   3.826  0.00  0.00    +0.020 A 
ATOM     26  C   LIG    1        2.779  -6.484   5.084  0.00  0.00    +0.010 A 
ATOM     27  C   LIG    1        1.915  -6.482   6.165  0.00  0.00    +0.040 A 
ATOM     28  C   LIG    1        0.584  -6.147   5.992  0.00  0.00    +0.010 A 
ATOM     29  C   LIG    1        0.110  -5.812   4.740  0.00  0.00    +0.040 A 
ENDBRANCH  23  24
ENDBRANCH  21  22
ENDBRANCH  17  21
ENDBRANCH   2  14
BRANCH   1  30
ATOM     30  C   LIG    1        0.845   1.513  -1.835  0.00  0.00    +0.380 C 
BRANCH  30  35
ATOM     31  C   LIG    1       -2.848   0.560  -6.177  0.00  0.00    +0.100 C 
ATOM     32  C   LIG    1       -1.885   0.809  -5.044  0.00  0.00    -0.060 A 
ATOM     33  C   LIG    1       -1.706  -0.151  -4.066  0.00  0.00    -0.010 A 
ATOM     34  C   LIG    1       -0.826   0.079  -3.025  0.00  0.00    +0.030 A 
ATOM     35  C   LIG    1       -0.118   1.265  -2.967  0.00  0.00    -0.130 A 
ATOM     36  C   LIG    1       -0.295   2.223  -3.948  0.00  0.00    +0.050 A 
ATOM     37  C   LIG    1       -1.178   1.995  -4.986  0.00  0.00    +0.010 A 
ENDBRANCH  30  35
ENDBRANCH   1  30
TORSDOF 6
