REMARK  Name = ZINCtV00000L6kjw.0
REMARK                            x       y       z     vdW  Elec       q    Type
REMARK                         _______ _______ _______ _____ _____    ______ ____
ROOT
ATOM      1  C   LIG    1       -2.994   2.585  -0.870  0.00  0.00    +0.280 A 
ATOM      2  N   LIG    1       -3.645   2.476  -1.986  0.00  0.00    -0.470 NA
ATOM      3  C   LIG    1       -3.717   3.554  -2.744  0.00  0.00    +0.090 A 
ATOM      4  C   LIG    1       -3.088   4.622  -2.249  0.00  0.00    -0.060 A 
ATOM      5  S   LIG    1       -2.376   4.170  -0.703  0.00  0.00    +0.140 S 
ENDROOT
BRANCH   1   8
ATOM      6  C   LIG    1       -3.161  -0.768   0.820  0.00  0.00    +0.110 C 
ATOM      7  C   LIG    1       -3.351   0.343  -0.181  0.00  0.00    +0.520 C 
ATOM      8  N   LIG    1       -2.818   1.559   0.053  0.00  0.00    -0.480 N 
ATOM      9  O   LIG    1       -3.982   0.143  -1.196  0.00  0.00    -0.460 OA
BRANCH   8  10
ATOM     10  C   LIG    1       -2.089   1.790   1.227  0.00  0.00    +0.090 A 
ATOM     11  C   LIG    1       -0.718   1.572   1.248  0.00  0.00    -0.050 A 
ATOM     12  C   LIG    1       -0.000   1.806   2.405  0.00  0.00    +0.030 A 
ATOM     13  C   LIG    1       -0.646   2.252   3.543  0.00  0.00    -0.040 A 
ATOM     14  C   LIG    1       -2.012   2.466   3.528  0.00  0.00    +0.030 A 
ATOM     15  C   LIG    1        0.141   2.506   4.803  0.00  0.00    +0.110 C 
ATOM     16  C   LIG    1       -0.013   1.086   0.008  0.00  0.00    +0.110 C 
ATOM     17  C   LIG    1       -2.736   2.234   2.374  0.00  0.00    -0.010 A 
ATOM     18 CL   LIG    1       -4.451   2.502   2.355  0.00  0.00    -0.050 Cl
ENDBRANCH   8  10
ENDBRANCH   1   8
BRANCH   3  19
ATOM     19  C   LIG    1       -4.445   3.576  -4.063  0.00  0.00    +0.350 C 
BRANCH  19  20
ATOM     20  O   LIG    1       -4.337   4.897  -4.654  0.00  0.00    -0.350 OA
BRANCH  20  21
ATOM     21  C   LIG    1       -4.938   5.086  -5.845  0.00  0.00    +0.540 C 
ATOM     22  O   LIG    1       -5.537   4.171  -6.376  0.00  0.00    -0.500 OA
BRANCH  21  23
ATOM     23  C   LIG    1       -4.870   6.399  -6.503  0.00  0.00    -0.160 A 
ATOM     24  C   LIG    1       -5.451   6.668  -7.705  0.00  0.00    -0.130 A 
ATOM     25  S   LIG    1       -5.171   8.285  -8.164  0.00  0.00    +0.210 S 
ATOM     26  C   LIG    1       -4.250   8.619  -6.708  0.00  0.00    -0.210 A 
ATOM     27  C   LIG    1       -3.623   9.948  -6.375  0.00  0.00    +0.150 C 
ATOM     28  C   LIG    1       -6.234   5.670  -8.519  0.00  0.00    +0.150 C 
ATOM     29  C   LIG    1       -4.186   7.539  -5.939  0.00  0.00    +0.050 A 
ENDBRANCH  21  23
ENDBRANCH  20  21
ENDBRANCH  19  20
ENDBRANCH   3  19
TORSDOF 6
