REMARK  Name = ZINCpk000000oIOZ.0
REMARK                            x       y       z     vdW  Elec       q    Type
REMARK                         _______ _______ _______ _____ _____    ______ ____
ROOT
ATOM      1  C   LIG    1        1.228  -0.659  -0.216  0.00  0.00    -0.150 A 
ATOM      2  C   LIG    1        0.086   0.011   0.229  0.00  0.00    +0.100 A 
ATOM      3  C   LIG    1        0.067   1.387   0.266  0.00  0.00    -0.010 A 
ATOM      4  C   LIG    1        1.185   2.111  -0.140  0.00  0.00    +0.170 A 
ATOM      5  C   LIG    1        2.324   1.446  -0.584  0.00  0.00    +0.020 A 
ATOM      6  C   LIG    1        2.349   0.070  -0.623  0.00  0.00    +0.060 A 
ENDROOT
BRANCH   1  12
ATOM      7  N   LIG    1        4.359  -4.183   1.399  0.00  0.00    -0.540 NA
ATOM      8  C   LIG    1        3.077  -4.844   1.121  0.00  0.00    +0.170 C 
ATOM      9  C   LIG    1        2.472  -4.259  -0.159  0.00  0.00    +0.300 C 
ATOM     10  N   LIG    1        2.400  -2.797  -0.016  0.00  0.00    -0.610 N 
ATOM     11  C   LIG    1        3.616  -2.077   0.389  0.00  0.00    +0.280 C 
ATOM     12  C   LIG    1        1.251  -2.134  -0.256  0.00  0.00    +0.560 C 
ATOM     13  O   LIG    1        0.234  -2.752  -0.506  0.00  0.00    -0.540 OA
ATOM     14  C   LIG    1        4.175  -2.748   1.654  0.00  0.00    +0.170 C 
BRANCH   7  16
ATOM     15  C   LIG    1        6.251  -3.977   2.941  0.00  0.00    +0.030 C 
ATOM     16  C   LIG    1        5.054  -4.832   2.520  0.00  0.00    +0.160 C 
ENDBRANCH   7  16
ENDBRANCH   1  12
BRANCH   4  17
ATOM     17  N   LIG    1        1.163   3.503  -0.102  0.00  0.00    -0.660 N 
ATOM     18  H   LIG    1        0.345   3.981  -0.309  0.00  0.00    +0.420 HD
ATOM     19  C   LIG    1        2.279   4.186   0.223  0.00  0.00    +0.600 C 
ATOM     20  O   LIG    1        3.325   3.592   0.403  0.00  0.00    -0.520 OA
BRANCH  19  21
ATOM     21  C   LIG    1        2.232   5.650   0.359  0.00  0.00    -0.050 A 
ATOM     22  C   LIG    1        1.155   6.476   0.084  0.00  0.00    -0.020 A 
ATOM     23  C   LIG    1        1.599   7.769   0.369  0.00  0.00    +0.190 A 
ATOM     24  N   LIG    1        2.842   7.688   0.770  0.00  0.00    -0.270 NA
ATOM     25  N   LIG    1        3.244   6.468   0.776  0.00  0.00    -0.250 N 
ATOM     26  C   LIG    1        4.582   6.021   1.170  0.00  0.00    +0.380 C 
ENDBRANCH  19  21
ENDBRANCH   4  17
TORSDOF 4
