REMARK  Name = ZINCrg00000fRycy.0
REMARK                            x       y       z     vdW  Elec       q    Type
REMARK                         _______ _______ _______ _____ _____    ______ ____
ROOT
ATOM      1  C   LIG    1        0.113   5.674   0.030  0.00  0.00    -0.700 A 
ATOM      2  C   LIG    1        1.338   6.321   0.022  0.00  0.00    +0.170 A 
ATOM      3  C   LIG    1        2.512   5.596   0.008  0.00  0.00    -0.040 A 
ATOM      4  C   LIG    1        2.472   4.207   0.001  0.00  0.00    +0.210 A 
ATOM      5  C   LIG    1        1.232   3.548   0.009  0.00  0.00    -0.120 A 
ATOM      6  C   LIG    1        0.052   4.297   0.019  0.00  0.00    +0.200 A 
ENDROOT
BRANCH   4   7
ATOM      7  N   LIG    1        3.651   3.475  -0.013  0.00  0.00    -0.490 N 
ATOM      8  C   LIG    1        4.432   3.709   1.210  0.00  0.00    +0.160 C 
ATOM      9  C   LIG    1        5.691   2.839   1.180  0.00  0.00    +0.240 C 
ATOM     10  O   LIG    1        6.439   3.133  -0.003  0.00  0.00    -0.380 OA
ATOM     11  C   LIG    1        5.710   2.915  -1.214  0.00  0.00    +0.240 C 
ATOM     12  C   LIG    1        4.450   3.785  -1.208  0.00  0.00    +0.160 C 
ENDBRANCH   4   7
BRANCH   1  13
ATOM     13  S   LIG    1       -1.376   6.616   0.048  0.00  0.00    +2.700 S 
ATOM     14  O   LIG    1       -1.042   7.884   0.595  0.00  0.00    -0.950 OA
ATOM     15  O   LIG    1       -2.378   5.772   0.597  0.00  0.00    -0.940 OA
BRANCH  13  17
ATOM     16  C   LIG    1       -2.672   5.932  -2.225  0.00  0.00    +0.300 C 
ATOM     17  N   LIG    1       -1.804   6.885  -1.529  0.00  0.00    -1.000 NA
ATOM     18  C   LIG    1       -1.315   8.076  -2.228  0.00  0.00    +0.310 C 
ENDBRANCH  13  17
ENDBRANCH   1  13
BRANCH   5  19
ATOM     19  C   LIG    1        1.175   2.076   0.002  0.00  0.00    +0.500 C 
ATOM     20  O   LIG    1        2.203   1.428  -0.011  0.00  0.00    -0.460 OA
BRANCH  19  21
ATOM     21  O   LIG    1       -0.018   1.448   0.010  0.00  0.00    -0.360 OA
BRANCH  21  22
ATOM     22  C   LIG    1        0.002  -0.004   0.002  0.00  0.00    +0.210 C 
BRANCH  22  23
ATOM     23  C   LIG    1       -1.433  -0.534   0.013  0.00  0.00    +0.040 C 
BRANCH  23  24
ATOM     24  C   LIG    1       -1.413  -2.063   0.004  0.00  0.00    +0.030 C 
BRANCH  24  25
ATOM     25  C   LIG    1       -2.848  -2.593   0.015  0.00  0.00    +0.020 C 
BRANCH  25  26
ATOM     26  C   LIG    1       -2.827  -4.123   0.007  0.00  0.00    +0.170 C 
BRANCH  26  27
ATOM     27  O   LIG    1       -4.168  -4.617   0.017  0.00  0.00    -0.580 OA
ATOM     28  H   LIG    1       -4.231  -5.582   0.013  0.00  0.00    +0.380 HD
ENDBRANCH  26  27
ENDBRANCH  25  26
ENDBRANCH  24  25
ENDBRANCH  23  24
ENDBRANCH  22  23
ENDBRANCH  21  22
ENDBRANCH  19  21
ENDBRANCH   5  19
TORSDOF 11
