REMARK  Name = ZINCrg000000s9Zd.0
REMARK                            x       y       z     vdW  Elec       q    Type
REMARK                         _______ _______ _______ _____ _____    ______ ____
ROOT
ATOM      1  N   LIG    1        1.162   3.485   0.010  0.00  0.00    -0.390 N 
ATOM      2  N   LIG    1       -0.058   4.163  -0.081  0.00  0.00    -0.270 NA
ATOM      3  C   LIG    1       -0.097   5.434  -0.371  0.00  0.00    +0.320 C 
ATOM      4  N   LIG    1        1.099   6.127  -0.584  0.00  0.00    -0.740 N 
ATOM      5  H   LIG    1        1.136   6.884  -1.189  0.00  0.00    +0.420 HD
ATOM      6  C   LIG    1        2.300   5.674   0.134  0.00  0.00    +0.340 C 
ATOM      7  C   LIG    1        2.323   4.163   0.110  0.00  0.00    +0.480 C 
ATOM      8  O   LIG    1        3.377   3.566   0.176  0.00  0.00    -0.500 OA
ENDROOT
BRANCH   1  13
ATOM      9  C   LIG    1        1.225  -2.188  -0.021  0.00  0.00    +0.090 C 
ATOM     10  C   LIG    1        1.208  -0.681  -0.013  0.00  0.00    -0.080 A 
ATOM     11  C   LIG    1        0.480   0.006  -0.967  0.00  0.00    +0.020 A 
ATOM     12  C   LIG    1        0.462   1.387  -0.962  0.00  0.00    +0.020 A 
ATOM     13  C   LIG    1        1.178   2.086   0.002  0.00  0.00    +0.150 A 
ATOM     14  C   LIG    1        1.908   1.393   0.959  0.00  0.00    +0.030 A 
ATOM     15  C   LIG    1        1.921   0.012   0.948  0.00  0.00    +0.020 A 
ENDBRANCH   1  13
BRANCH   3  16
ATOM     16  C   LIG    1       -1.390   6.135  -0.473  0.00  0.00    +0.590 C 
ATOM     17  N   LIG    1       -2.539   5.462  -0.267  0.00  0.00    -0.700 N 
ATOM     18  H   LIG    1       -2.515   4.516  -0.050  0.00  0.00    +0.420 HD
ATOM     19  O   LIG    1       -1.420   7.320  -0.745  0.00  0.00    -0.510 OA
BRANCH  17  20
ATOM     20  C   LIG    1       -3.824   6.157  -0.368  0.00  0.00    +0.340 C 
BRANCH  20  21
ATOM     21  C   LIG    1       -4.944   5.187  -0.094  0.00  0.00    -0.030 A 
ATOM     22  C   LIG    1       -5.419   4.997   1.197  0.00  0.00    -0.090 A 
ATOM     23  C   LIG    1       -6.446   4.101   1.414  0.00  0.00    +0.310 A 
ATOM     24  N   LIG    1       -6.979   3.426   0.413  0.00  0.00    -0.540 NA
ATOM     25  C   LIG    1       -6.554   3.580  -0.831  0.00  0.00    +0.400 A 
ATOM     26  C   LIG    1       -5.526   4.470  -1.124  0.00  0.00    -0.080 A 
BRANCH  25  27
ATOM     27  N   LIG    1       -7.144   2.848  -1.856  0.00  0.00    -0.620 N 
ATOM     28  C   LIG    1       -8.302   1.996  -1.574  0.00  0.00    +0.280 C 
ATOM     29  C   LIG    1       -6.608   2.930  -3.217  0.00  0.00    +0.280 C 
ENDBRANCH  25  27
ENDBRANCH  20  21
ENDBRANCH  17  20
ENDBRANCH   3  16
TORSDOF 5
