REMARK  Name = ZINCvU0000000ALq.0
REMARK                            x       y       z     vdW  Elec       q    Type
REMARK                         _______ _______ _______ _____ _____    ______ ____
ROOT
ATOM      1  C   LIG    1       -5.635   5.494   1.513  0.00  0.00    +0.430 C 
ATOM      2  O   LIG    1       -5.758   4.979   2.604  0.00  0.00    -0.450 OA
ENDROOT
BRANCH   1   6
ATOM      3  C   LIG    1       -2.200   5.562  -2.250  0.00  0.00    +0.150 C 
ATOM      4  C   LIG    1       -2.925   5.282  -0.959  0.00  0.00    +0.020 A 
ATOM      5  C   LIG    1       -4.125   5.780  -0.617  0.00  0.00    +0.010 A 
ATOM      6  C   LIG    1       -4.434   5.240   0.715  0.00  0.00    -0.260 A 
ATOM      7  C   LIG    1       -3.360   4.440   1.058  0.00  0.00    +0.130 A 
ATOM      8  C   LIG    1       -3.212   3.660   2.339  0.00  0.00    +0.150 C 
ATOM      9  N   LIG    1       -2.467   4.481   0.050  0.00  0.00    -0.400 N 
BRANCH   9  10
ATOM     10  C   LIG    1       -1.245   3.794   0.034  0.00  0.00    +0.130 A 
ATOM     11  C   LIG    1       -0.051   4.502   0.027  0.00  0.00    +0.060 A 
ATOM     12  C   LIG    1        1.153   3.824   0.012  0.00  0.00    +0.080 A 
ATOM     13  C   LIG    1        1.169   2.440   0.004  0.00  0.00    -0.020 A 
ATOM     14  C   LIG    1       -0.021   1.732   0.012  0.00  0.00    -0.020 A 
ATOM     15 CL   LIG    1        0.002  -0.004   0.002  0.00  0.00    -0.030 Cl
ATOM     16 CL   LIG    1        2.683   1.591  -0.015  0.00  0.00    -0.030 Cl
ATOM     17  C   LIG    1       -1.228   2.406   0.021  0.00  0.00    +0.060 A 
ENDBRANCH   9  10
ENDBRANCH   1   6
BRANCH   1  18
ATOM     18  C   LIG    1       -6.717   6.396   0.979  0.00  0.00    +0.250 C 
BRANCH  18  19
ATOM     19  O   LIG    1       -7.794   6.487   1.949  0.00  0.00    -0.330 OA
BRANCH  19  20
ATOM     20  C   LIG    1       -8.843   7.258   1.624  0.00  0.00    +0.480 C 
ATOM     21  O   LIG    1       -8.862   7.838   0.564  0.00  0.00    -0.480 OA
BRANCH  20  22
ATOM     22  C   LIG    1       -9.999   7.401   2.581  0.00  0.00    +0.150 C 
BRANCH  22  23
ATOM     23  S   LIG    1      -11.250   8.499   1.860  0.00  0.00    -0.160 S 
BRANCH  23  24
ATOM     24  C   LIG    1      -12.537   8.545   3.137  0.00  0.00    +0.180 C 
BRANCH  24  25
ATOM     25  C   LIG    1      -13.666   9.432   2.680  0.00  0.00    -0.200 A 
ATOM     26  C   LIG    1      -13.816  10.763   2.884  0.00  0.00    -0.000 A 
ATOM     27  O   LIG    1      -14.969  11.109   2.293  0.00  0.00    +0.100 OA
ATOM     28  N   LIG    1      -15.510  10.157   1.781  0.00  0.00    -0.360 NA
ATOM     29  C   LIG    1      -12.873  11.674   3.626  0.00  0.00    +0.200 C 
ATOM     30  C   LIG    1      -14.817   9.067   1.945  0.00  0.00    +0.040 A 
ATOM     31  C   LIG    1      -15.172   7.689   1.448  0.00  0.00    +0.170 C 
ENDBRANCH  24  25
ENDBRANCH  23  24
ENDBRANCH  22  23
ENDBRANCH  20  22
ENDBRANCH  19  20
ENDBRANCH  18  19
ENDBRANCH   1  18
TORSDOF 9
