REMARK  Name = ZINCvU0000000584.0
REMARK                            x       y       z     vdW  Elec       q    Type
REMARK                         _______ _______ _______ _____ _____    ______ ____
ROOT
ATOM      1  C   LIG    1       -3.190   4.238  -1.035  0.00  0.00    +0.180 A 
ATOM      2  N   LIG    1       -4.260   4.840  -0.568  0.00  0.00    -0.280 NA
ATOM      3  N   LIG    1       -4.242   4.830   0.717  0.00  0.00    -0.250 NA
ATOM      4  C   LIG    1       -3.173   4.221   1.146  0.00  0.00    +0.160 A 
ATOM      5  N   LIG    1       -2.459   3.827   0.046  0.00  0.00    -0.410 N 
ENDROOT
BRANCH   5   6
ATOM      6  C   LIG    1       -1.236   3.139   0.031  0.00  0.00    +0.100 A 
ATOM      7  C   LIG    1       -0.042   3.845   0.024  0.00  0.00    +0.060 A 
ATOM      8  C   LIG    1        1.161   3.165   0.008  0.00  0.00    +0.050 A 
ATOM      9  C   LIG    1        1.176   1.783   0.000  0.00  0.00    +0.070 A 
ATOM     10  C   LIG    1       -0.013   1.076   0.008  0.00  0.00    +0.050 A 
ATOM     11  C   LIG    1       -1.219   1.750   0.017  0.00  0.00    -0.020 A 
ATOM     12 CL   LIG    1       -2.711   0.862   0.019  0.00  0.00    -0.040 Cl
ENDBRANCH   5   6
BRANCH   1  13
ATOM     13  S   LIG    1       -2.775   4.004  -2.731  0.00  0.00    +0.020 S 
BRANCH  13  14
ATOM     14  C   LIG    1       -4.196   4.803  -3.516  0.00  0.00    +0.160 C 
BRANCH  14  19
ATOM     15  C   LIG    1       -3.652   4.495  -9.261  0.00  0.00    +0.090 C 
ATOM     16  C   LIG    1       -3.794   4.576  -7.762  0.00  0.00    -0.070 A 
ATOM     17  C   LIG    1       -4.446   3.569  -7.075  0.00  0.00    +0.010 A 
ATOM     18  C   LIG    1       -4.576   3.643  -5.701  0.00  0.00    +0.040 A 
ATOM     19  C   LIG    1       -4.054   4.723  -5.014  0.00  0.00    -0.090 A 
ATOM     20  C   LIG    1       -3.407   5.732  -5.702  0.00  0.00    +0.040 A 
ATOM     21  C   LIG    1       -3.272   5.656  -7.076  0.00  0.00    +0.010 A 
ENDBRANCH  14  19
ENDBRANCH  13  14
ENDBRANCH   1  13
BRANCH   4  22
ATOM     22  C   LIG    1       -2.791   3.997   2.587  0.00  0.00    +0.450 C 
BRANCH  22  23
ATOM     23  N   LIG    1       -1.989   5.127   3.062  0.00  0.00    -0.490 N 
ATOM     24  C   LIG    1       -0.631   5.198   3.087  0.00  0.00    +0.470 A 
ATOM     25  N   LIG    1       -0.252   6.346   3.570  0.00  0.00    -0.480 NA
ATOM     26  C   LIG    1       -1.343   7.090   3.887  0.00  0.00    +0.040 A 
ATOM     27  C   LIG    1       -1.514   8.368   4.426  0.00  0.00    +0.060 A 
ATOM     28  C   LIG    1       -2.773   8.861   4.622  0.00  0.00    +0.000 A 
ATOM     29  C   LIG    1       -3.889   8.100   4.303  0.00  0.00    +0.030 A 
ATOM     30  C   LIG    1       -3.744   6.835   3.774  0.00  0.00    +0.030 A 
ATOM     31  C   LIG    1       -2.473   6.321   3.560  0.00  0.00    +0.060 A 
ENDBRANCH  22  23
ENDBRANCH   4  22
TORSDOF 6
