REMARK  Name = ZINCAx0000000hZ4.0
REMARK                            x       y       z     vdW  Elec       q    Type
REMARK                         _______ _______ _______ _____ _____    ______ ____
ROOT
ATOM      1  N   LIG    1        0.027   1.301   6.122  0.00  0.00    -0.580 N 
ATOM      2  C   LIG    1       -0.850   0.498   6.756  0.00  0.00    +0.570 C 
ATOM      3  O   LIG    1       -1.342   0.848   7.810  0.00  0.00    -0.500 OA
ENDROOT
BRANCH   2   4
ATOM      4  C   LIG    1       -1.214  -0.812   6.167  0.00  0.00    +0.070 A 
ATOM      5  C   LIG    1       -2.011  -1.697   6.890  0.00  0.00    +0.050 A 
ATOM      6  C   LIG    1       -2.348  -2.916   6.323  0.00  0.00    -0.010 A 
ATOM      7  C   LIG    1       -1.866  -3.213   5.058  0.00  0.00    -0.010 A 
ATOM      8  C   LIG    1       -1.073  -2.287   4.398  0.00  0.00    +0.280 A 
ATOM      9  N   LIG    1       -0.773  -1.135   4.957  0.00  0.00    -0.450 NA
BRANCH   6  10
ATOM     10  C   LIG    1       -3.213  -3.900   7.068  0.00  0.00    -0.010 C 
ATOM     11  C   LIG    1       -3.368  -5.299   6.470  0.00  0.00    +0.030 C 
ATOM     12  C   LIG    1       -4.535  -4.311   6.419  0.00  0.00    +0.040 C 
ENDBRANCH   6  10
ENDBRANCH   2   4
BRANCH   1  13
ATOM     13  C   LIG    1        0.563   0.914   4.815  0.00  0.00    +0.300 C 
BRANCH  13  14
ATOM     14  C   LIG    1       -0.432   1.303   3.720  0.00  0.00    +0.090 C 
BRANCH  14  15
ATOM     15  C   LIG    1        0.127   0.899   2.355  0.00  0.00    +0.050 C 
ATOM     16  N   LIG    1        1.581   0.859   2.177  0.00  0.00    -0.130 NA
ATOM     17  N   LIG    1        1.033  -0.251   2.281  0.00  0.00    -0.110 NA
BRANCH  15  18
ATOM     18  C   LIG    1       -0.750   1.219   1.143  0.00  0.00    +0.100 C 
BRANCH  18  19
ATOM     19  C   LIG    1       -0.047   0.752  -0.133  0.00  0.00    +0.160 C 
BRANCH  19  21
ATOM     20  C   LIG    1       -1.564   1.305  -2.229  0.00  0.00    +0.030 C 
ATOM     21  C   LIG    1       -0.891   1.060  -1.299  0.00  0.00    -0.190 C 
ENDBRANCH  19  21
ENDBRANCH  18  19
ENDBRANCH  15  18
ENDBRANCH  14  15
ENDBRANCH  13  14
ENDBRANCH   1  13
BRANCH   1  22
ATOM     22  C   LIG    1        0.444   2.562   6.740  0.00  0.00    +0.350 C 
BRANCH  22  23
ATOM     23  C   LIG    1        1.198   2.272   8.013  0.00  0.00    +0.010 A 
ATOM     24  C   LIG    1        2.103   3.081   8.612  0.00  0.00    +0.010 A 
ATOM     25  C   LIG    1        2.530   2.382   9.766  0.00  0.00    -0.000 A 
ATOM     26  N   LIG    1        1.881   1.234   9.782  0.00  0.00    -0.210 NA
ATOM     27  N   LIG    1        1.100   1.155   8.765  0.00  0.00    -0.350 N 
ATOM     28  H   LIG    1        0.523   0.401   8.566  0.00  0.00    +0.450 HD
BRANCH  25  29
ATOM     29  C   LIG    1        3.515   2.848  10.761  0.00  0.00    +0.560 C 
ATOM     30  O   LIG    1        4.044   3.934  10.630  0.00  0.00    -0.500 OA
BRANCH  29  31
ATOM     31  O   LIG    1        3.829   2.068  11.814  0.00  0.00    -0.340 OA
BRANCH  31  32
ATOM     32  C   LIG    1        4.807   2.590  12.752  0.00  0.00    +0.200 C 
ATOM     33  C   LIG    1        5.033   1.573  13.872  0.00  0.00    +0.070 C 
ENDBRANCH  31  32
ENDBRANCH  29  31
ENDBRANCH  25  29
ENDBRANCH  22  23
BRANCH  22  34
ATOM     34  C   LIG    1       -0.772   3.394   7.055  0.00  0.00    +0.510 C 
ATOM     35  N   LIG    1       -0.630   4.604   7.632  0.00  0.00    -0.730 N 
ATOM     36  H   LIG    1        0.255   4.939   7.845  0.00  0.00    +0.400 HD
ATOM     37  C   LIG    1       -1.813   5.412   7.939  0.00  0.00    +0.290 C 
ATOM     38  O   LIG    1       -1.879   2.975   6.789  0.00  0.00    -0.500 OA
ENDBRANCH  22  34
ENDBRANCH   1  22
TORSDOF 14
