REMARK  Name = ZINCqH0000004ZS3.0
REMARK                            x       y       z     vdW  Elec       q    Type
REMARK                         _______ _______ _______ _____ _____    ______ ____
ROOT
ATOM      1  C   LIG    1       -3.300   2.533  -0.335  0.00  0.00    +0.310 C 
ATOM      2  N   LIG    1       -2.358   3.656  -0.344  0.00  0.00    -0.550 N 
ATOM      3  C   LIG    1       -2.625   4.764   0.375  0.00  0.00    +0.600 C 
ATOM      4  O   LIG    1       -1.792   5.647   0.462  0.00  0.00    -0.520 OA
ENDROOT
BRANCH   3   5
ATOM      5  C   LIG    1       -3.919   4.906   1.053  0.00  0.00    -0.290 A 
ATOM      6  C   LIG    1       -4.362   6.020   1.786  0.00  0.00    +0.100 A 
ATOM      7  C   LIG    1       -3.793   7.262   2.102  0.00  0.00    +0.360 A 
ATOM      8  N   LIG    1       -4.473   8.122   2.826  0.00  0.00    -0.430 NA
ATOM      9  C   LIG    1       -5.696   7.834   3.269  0.00  0.00    +0.220 A 
ATOM     10  C   LIG    1       -6.283   6.648   2.989  0.00  0.00    +0.260 A 
ATOM     11  N   LIG    1       -5.618   5.723   2.240  0.00  0.00    -0.240 N 
ATOM     12  N   LIG    1       -5.946   4.441   1.792  0.00  0.00    -0.300 NA
ATOM     13  C   LIG    1       -4.953   3.957   1.088  0.00  0.00    +0.320 A 
ENDBRANCH   3   5
BRANCH   2  14
ATOM     14  C   LIG    1       -1.182   3.577  -1.099  0.00  0.00    +0.150 A 
ATOM     15  C   LIG    1       -0.291   4.642  -1.111  0.00  0.00    +0.040 A 
ATOM     16  C   LIG    1        0.866   4.566  -1.860  0.00  0.00    +0.020 A 
ATOM     17  C   LIG    1        1.145   3.421  -2.592  0.00  0.00    +0.060 A 
ATOM     18  C   LIG    1        0.258   2.354  -2.576  0.00  0.00    +0.050 A 
ATOM     19  C   LIG    1       -0.902   2.431  -1.832  0.00  0.00    -0.010 A 
BRANCH  17  20
ATOM     20  O   LIG    1        2.287   3.344  -3.325  0.00  0.00    -0.260 OA
BRANCH  20  21
ATOM     21  C   LIG    1        3.473   3.374  -2.663  0.00  0.00    +0.120 A 
ATOM     22  C   LIG    1        3.495   3.392  -1.276  0.00  0.00    -0.070 A 
ATOM     23  C   LIG    1        4.702   3.418  -0.605  0.00  0.00    +0.050 A 
ATOM     24  C   LIG    1        5.888   3.437  -1.315  0.00  0.00    -0.030 A 
ATOM     25  C   LIG    1        5.870   3.425  -2.698  0.00  0.00    +0.050 A 
ATOM     26  C   LIG    1        4.665   3.394  -3.373  0.00  0.00    -0.020 A 
ENDBRANCH  20  21
ENDBRANCH  17  20
ENDBRANCH   2  14
TORSDOF 4
