REMARK  Name = ZINCqH0000036Tut.0
REMARK                            x       y       z     vdW  Elec       q    Type
REMARK                         _______ _______ _______ _____ _____    ______ ____
ROOT
ATOM      1  C   LIG    1        0.505   3.179   0.002  0.00  0.00    +0.080 A 
ATOM      2  C   LIG    1       -0.618   3.636   0.689  0.00  0.00    +0.120 A 
ATOM      3  C   LIG    1       -1.764   2.862   0.666  0.00  0.00    -0.010 A 
ATOM      4  C   LIG    1       -1.757   1.661  -0.032  0.00  0.00    +0.300 A 
ATOM      5  N   LIG    1       -0.674   1.261  -0.677  0.00  0.00    -0.510 NA
ATOM      6  C   LIG    1        0.436   1.972  -0.678  0.00  0.00    +0.280 A 
ENDROOT
BRANCH   1  16
ATOM      7  C   LIG    1        2.752   9.489  -1.518  0.00  0.00    +0.030 C 
ATOM      8  C   LIG    1        2.325   8.021  -1.468  0.00  0.00    +0.010 C 
ATOM      9  C   LIG    1        2.735   7.430  -0.109  0.00  0.00    +0.300 C 
ATOM     10  N   LIG    1        2.768   5.997  -0.096  0.00  0.00    -0.620 N 
ATOM     11  C   LIG    1        4.098   5.329  -0.190  0.00  0.00    +0.320 C 
ATOM     12  C   LIG    1        4.530   5.209  -1.564  0.00  0.00    -0.250 C 
ATOM     13  S   LIG    1        4.686   6.843  -2.365  0.00  0.00    +1.260 S 
ATOM     14  O   LIG    1        5.358   6.699  -3.609  0.00  0.00    -0.850 OA
ATOM     15  C   LIG    1        1.633   5.276  -0.006  0.00  0.00    +0.710 C 
ATOM     16  N   LIG    1        1.689   3.930  -0.002  0.00  0.00    -0.680 N 
ATOM     17  H   LIG    1        2.548   3.480  -0.001  0.00  0.00    +0.410 HD
ATOM     18  O   LIG    1        0.559   5.840   0.070  0.00  0.00    -0.560 OA
ATOM     19  C   LIG    1        2.972   7.270  -2.659  0.00  0.00    -0.250 C 
ENDBRANCH   1  16
BRANCH   4  20
ATOM     20  O   LIG    1       -2.875   0.892  -0.055  0.00  0.00    -0.240 OA
BRANCH  20  21
ATOM     21  C   LIG    1       -2.800  -0.325  -0.656  0.00  0.00    +0.100 A 
ATOM     22  C   LIG    1       -3.528  -0.575  -1.810  0.00  0.00    +0.030 A 
ATOM     23  C   LIG    1       -3.447  -1.811  -2.422  0.00  0.00    +0.040 A 
ATOM     24  C   LIG    1       -2.648  -2.802  -1.879  0.00  0.00    -0.040 A 
ATOM     25  C   LIG    1       -1.926  -2.556  -0.725  0.00  0.00    +0.050 A 
ATOM     26 CL   LIG    1       -2.554  -4.357  -2.645  0.00  0.00    -0.060 Cl
ATOM     27  C   LIG    1       -2.000  -1.319  -0.113  0.00  0.00    +0.020 A 
ENDBRANCH  20  21
ENDBRANCH   4  20
TORSDOF 3
