REMARK  Name = ZINCpk00000eb7lP.0
REMARK                            x       y       z     vdW  Elec       q    Type
REMARK                         _______ _______ _______ _____ _____    ______ ____
ROOT
ATOM      1  C   LIG    1       -1.682  -0.189   0.408  0.00  0.00    +0.260 C 
ATOM      2  C   LIG    1       -2.027  -0.578  -1.032  0.00  0.00    +0.020 C 
ATOM      3  C   LIG    1       -3.266  -1.477  -1.036  0.00  0.00    +0.030 C 
ATOM      4  C   LIG    1       -2.966  -2.756  -0.248  0.00  0.00    +0.290 C 
ATOM      5  N   LIG    1       -2.494  -2.386   1.093  0.00  0.00    -0.590 N 
ATOM      6  C   LIG    1       -3.085  -2.892   2.193  0.00  0.00    +0.580 C 
ATOM      7  O   LIG    1       -2.663  -2.604   3.297  0.00  0.00    -0.520 OA
ATOM      8  C   LIG    1       -1.364  -1.453   1.212  0.00  0.00    +0.300 C 
ENDROOT
BRANCH   1  12
ATOM      9  C   LIG    1        2.952   1.609  -0.267  0.00  0.00    +0.190 C 
ATOM     10  C   LIG    1        1.500   1.466   0.110  0.00  0.00    +0.230 A 
ATOM     11  N   LIG    1        0.765   0.403  -0.087  0.00  0.00    -0.320 NA
ATOM     12  N   LIG    1       -0.516   0.697   0.408  0.00  0.00    -0.380 N 
ATOM     13  C   LIG    1       -0.458   1.954   0.883  0.00  0.00    +0.280 A 
ATOM     14  C   LIG    1       -1.597   2.714   1.513  0.00  0.00    +0.190 C 
ATOM     15  N   LIG    1        0.756   2.403   0.698  0.00  0.00    -0.540 NA
ENDBRANCH   1  12
BRANCH   6  16
ATOM     16  C   LIG    1       -4.237  -3.791   2.059  0.00  0.00    +0.080 C 
ATOM     17  N   LIG    1       -4.350  -4.532   1.000  0.00  0.00    -0.190 NA
ATOM     18  N   LIG    1       -5.435  -5.399   0.838  0.00  0.00    -0.450 N 
ATOM     19  C   LIG    1       -6.563  -5.223   1.554  0.00  0.00    +0.500 C 
ATOM     20  C   LIG    1       -6.652  -4.087   2.542  0.00  0.00    +0.090 C 
ATOM     21  O   LIG    1       -7.502  -5.975   1.404  0.00  0.00    -0.510 OA
ATOM     22  C   LIG    1       -5.267  -3.846   3.155  0.00  0.00    +0.120 C 
BRANCH  18  23
ATOM     23  C   LIG    1       -5.345  -6.506  -0.118  0.00  0.00    +0.260 C 
ATOM     24  C   LIG    1       -4.188  -7.427   0.275  0.00  0.00    +0.050 C 
ATOM     25  C   LIG    1       -5.099  -5.949  -1.522  0.00  0.00    +0.040 C 
ENDBRANCH  18  23
ENDBRANCH   6  16
TORSDOF 3
