REMARK  Name = ZINCrD000000BHoB.0
REMARK                            x       y       z     vdW  Elec       q    Type
REMARK                         _______ _______ _______ _____ _____    ______ ____
ROOT
ATOM      1  O   LIG    1        0.944   6.345  -0.255  0.00  0.00    -0.530 OA
ATOM      2  C   LIG    1        1.567   5.837   0.658  0.00  0.00    +0.570 C 
ATOM      3  N   LIG    1        1.490   4.508   0.869  0.00  0.00    -0.720 N 
ATOM      4  H   LIG    1        1.987   4.103   1.597  0.00  0.00    +0.400 HD
ENDROOT
BRANCH   3   5
ATOM      5  C   LIG    1        0.656   3.675  -0.001  0.00  0.00    +0.250 C 
ATOM      6  C   LIG    1       -0.777   3.539   0.579  0.00  0.00    +0.030 C 
ATOM      7  C   LIG    1       -1.229   2.185  -0.028  0.00  0.00    +0.260 C 
ATOM      8  N   LIG    1       -0.018   1.343  -0.010  0.00  0.00    -0.620 N 
ATOM      9  C   LIG    1        0.002  -0.004   0.002  0.00  0.00    +0.530 C 
ATOM     10  O   LIG    1        1.057  -0.596  -0.086  0.00  0.00    -0.530 OA
ATOM     11  C   LIG    1        1.164   2.218  -0.013  0.00  0.00    +0.250 C 
BRANCH   9  12
ATOM     12  C   LIG    1       -1.287  -0.776   0.124  0.00  0.00    -0.010 C 
ATOM     13  C   LIG    1       -1.648  -0.935   1.602  0.00  0.00    +0.030 C 
ATOM     14  C   LIG    1       -2.956  -1.718   1.726  0.00  0.00    +0.010 C 
ATOM     15  C   LIG    1       -2.785  -3.100   1.091  0.00  0.00    +0.000 C 
ATOM     16  C   LIG    1       -2.424  -2.941  -0.387  0.00  0.00    +0.010 C 
ATOM     17  C   LIG    1       -1.116  -2.157  -0.511  0.00  0.00    +0.050 C 
ENDBRANCH   9  12
ENDBRANCH   3   5
BRANCH   2  18
ATOM     18  C   LIG    1        2.407   6.676   1.534  0.00  0.00    -0.180 A 
ATOM     19  C   LIG    1        3.120   6.096   2.587  0.00  0.00    +0.090 A 
ATOM     20  C   LIG    1        3.907   6.881   3.399  0.00  0.00    -0.090 A 
ATOM     21  C   LIG    1        3.985   8.251   3.179  0.00  0.00    +0.160 A 
ATOM     22  C   LIG    1        3.273   8.834   2.136  0.00  0.00    -0.020 A 
ATOM     23  C   LIG    1        2.488   8.054   1.317  0.00  0.00    +0.130 A 
BRANCH  21  24
ATOM     24  O   LIG    1        4.758   9.023   3.985  0.00  0.00    -0.310 OA
BRANCH  24  25
ATOM     25  C   LIG    1        5.463   8.360   5.036  0.00  0.00    +0.230 C 
BRANCH  25  26
ATOM     26  C   LIG    1        6.274   9.385   5.832  0.00  0.00    -0.040 C 
ATOM     27  C   LIG    1        7.797   9.248   5.814  0.00  0.00    +0.030 C 
ATOM     28  C   LIG    1        7.011   8.889   7.077  0.00  0.00    +0.030 C 
ENDBRANCH  25  26
ENDBRANCH  24  25
ENDBRANCH  21  24
ENDBRANCH   2  18
TORSDOF 6
