REMARK  Name = ZINCBu0000000by9.0
REMARK                            x       y       z     vdW  Elec       q    Type
REMARK                         _______ _______ _______ _____ _____    ______ ____
ROOT
ATOM      1  C   LIG    1        5.284   7.558  -2.561  0.00  0.00    +0.670 C 
ATOM      2  N   LIG    1        4.627   8.586  -3.088  0.00  0.00    -0.590 NA
ATOM      3  C   LIG    1        3.332   8.749  -2.834  0.00  0.00    +0.620 C 
ATOM      4  N   LIG    1        2.694   7.884  -2.053  0.00  0.00    -0.500 NA
ATOM      5  C   LIG    1        3.351   6.855  -1.525  0.00  0.00    +0.640 C 
ATOM      6  N   LIG    1        4.647   6.696  -1.774  0.00  0.00    -0.630 NA
ATOM      7  H   LIG    1        5.127   5.947  -1.386  0.00  0.00    +0.440 HD
ENDROOT
BRANCH   5   8
ATOM      8  N   LIG    1        2.689   5.957  -0.713  0.00  0.00    -0.450 NA
ATOM      9  C   LIG    1        3.296   5.916   0.643  0.00  0.00    +0.210 C 
ATOM     10  C   LIG    1        2.860   4.552   1.226  0.00  0.00    +0.090 C 
ATOM     11  C   LIG    1        2.567   3.680  -0.002  0.00  0.00    -0.020 C 
ATOM     12  C   LIG    1        3.446   2.430  -0.019  0.00  0.00    +0.280 C 
ATOM     13  N   LIG    1        2.501   1.307  -0.016  0.00  0.00    -0.750 N 
ATOM     14  H   LIG    1        2.751   0.370  -0.024  0.00  0.00    +0.420 HD
ATOM     15  C   LIG    1        1.189   1.786   0.000  0.00  0.00    +0.200 A 
ATOM     16  C   LIG    1       -0.013   1.076   0.008  0.00  0.00    -0.060 A 
ATOM     17  C   LIG    1       -1.218   1.745   0.017  0.00  0.00    +0.070 A 
ATOM     18  C   LIG    1       -1.246   3.127   0.033  0.00  0.00    -0.040 A 
ATOM     19  C   LIG    1       -0.060   3.839   0.024  0.00  0.00    +0.070 A 
ATOM     20  C   LIG    1        1.151   3.175   0.009  0.00  0.00    -0.180 A 
ATOM     21  C   LIG    1        2.836   4.567  -1.225  0.00  0.00    +0.230 C 
ENDBRANCH   5   8
BRANCH   3  22
ATOM     22  N   LIG    1        2.651   9.817  -3.382  0.00  0.00    -0.430 NA
ATOM     23  C   LIG    1        2.006  10.623  -2.335  0.00  0.00    +0.220 C 
ATOM     24  C   LIG    1        1.214  11.758  -2.988  0.00  0.00    +0.270 C 
ATOM     25  O   LIG    1        2.092  12.536  -3.806  0.00  0.00    -0.360 OA
ATOM     26  C   LIG    1        2.737  11.783  -4.837  0.00  0.00    +0.220 C 
ATOM     27  C   LIG    1        3.544  10.647  -4.202  0.00  0.00    +0.230 C 
BRANCH  26  28
ATOM     28  C   LIG    1        3.661  12.683  -5.615  0.00  0.00    -0.040 A 
ATOM     29  C   LIG    1        4.415  13.636  -4.956  0.00  0.00    +0.030 A 
ATOM     30  C   LIG    1        5.266  14.459  -5.670  0.00  0.00    +0.130 A 
ATOM     31  C   LIG    1        5.356  14.336  -7.044  0.00  0.00    -0.650 A 
ATOM     32  C   LIG    1        4.598  13.387  -7.703  0.00  0.00    +0.130 A 
ATOM     33  C   LIG    1        3.751  12.560  -6.989  0.00  0.00    +0.020 A 
BRANCH  31  34
ATOM     34  S   LIG    1        6.436  15.390  -7.954  0.00  0.00    +2.500 S 
ATOM     35  O   LIG    1        6.752  14.643  -9.121  0.00  0.00    -0.930 OA
ATOM     36  O   LIG    1        7.443  15.751  -7.019  0.00  0.00    -0.930 OA
ATOM     37  C   LIG    1        5.414  16.828  -8.376  0.00  0.00    -0.250 C 
ENDBRANCH  31  34
ENDBRANCH  26  28
ENDBRANCH   3  22
BRANCH   1  39
ATOM     38  C   LIG    1        7.351   6.256  -2.243  0.00  0.00    +0.340 C 
ATOM     39  N   LIG    1        6.628   7.389  -2.824  0.00  0.00    -0.650 NA
ATOM     40  H   LIG    1        7.093   8.020  -3.394  0.00  0.00    +0.450 HD
ENDBRANCH   1  39
TORSDOF 5
