REMARK  Name = ZINCBu0000000by9.1
REMARK                            x       y       z     vdW  Elec       q    Type
REMARK                         _______ _______ _______ _____ _____    ______ ____
ROOT
ATOM      1  C   LIG    1        5.478   1.711   2.263  0.00  0.00    +0.680 C 
ATOM      2  N   LIG    1        4.209   1.317   2.263  0.00  0.00    -0.610 NA
ATOM      3  C   LIG    1        3.424   1.604   1.229  0.00  0.00    +0.630 C 
ATOM      4  N   LIG    1        3.905   2.295   0.201  0.00  0.00    -0.570 NA
ATOM      5  C   LIG    1        5.173   2.695   0.204  0.00  0.00    +0.630 C 
ATOM      6  H   LIG    1        3.857   0.815   3.015  0.00  0.00    +0.440 HD
ATOM      7  N   LIG    1        5.960   2.403   1.235  0.00  0.00    -0.600 NA
ENDROOT
BRANCH   5   8
ATOM      8  N   LIG    1        5.673   3.412  -0.864  0.00  0.00    -0.430 NA
ATOM      9  C   LIG    1        5.555   2.643  -2.122  0.00  0.00    +0.250 C 
ATOM     10  C   LIG    1        6.799   3.045  -2.955  0.00  0.00    +0.080 C 
ATOM     11  C   LIG    1        7.867   3.204  -1.857  0.00  0.00    -0.040 C 
ATOM     12  C   LIG    1        8.543   1.872  -1.543  0.00  0.00    +0.270 C 
ATOM     13  N   LIG    1        9.968   2.105  -1.812  0.00  0.00    -0.750 N 
ATOM     14  H   LIG    1       10.669   1.443  -1.707  0.00  0.00    +0.420 HD
ATOM     15  C   LIG    1       10.165   3.421  -2.240  0.00  0.00    +0.200 A 
ATOM     16  C   LIG    1       11.348   4.066  -2.600  0.00  0.00    -0.060 A 
ATOM     17  C   LIG    1       11.330   5.386  -2.998  0.00  0.00    +0.070 A 
ATOM     18  C   LIG    1       10.136   6.081  -3.043  0.00  0.00    -0.040 A 
ATOM     19  C   LIG    1        8.958   5.450  -2.689  0.00  0.00    +0.070 A 
ATOM     20  C   LIG    1        8.969   4.128  -2.289  0.00  0.00    -0.170 A 
ATOM     21  C   LIG    1        7.095   3.752  -0.654  0.00  0.00    +0.270 C 
ENDBRANCH   5   8
BRANCH   3  22
ATOM     22  N   LIG    1        2.108   1.189   1.226  0.00  0.00    -0.460 NA
ATOM     23  C   LIG    1        1.398   1.680   2.416  0.00  0.00    +0.200 C 
ATOM     24  C   LIG    1       -0.038   1.149   2.402  0.00  0.00    +0.270 C 
ATOM     25  O   LIG    1       -0.677   1.548   1.187  0.00  0.00    -0.360 OA
ATOM     26  C   LIG    1       -0.013   1.086   0.008  0.00  0.00    +0.220 C 
ATOM     27  C   LIG    1        1.423   1.617  -0.003  0.00  0.00    +0.250 C 
BRANCH  26  28
ATOM     28  C   LIG    1       -0.743   1.586  -1.212  0.00  0.00    -0.050 A 
ATOM     29  C   LIG    1       -1.258   2.869  -1.231  0.00  0.00    +0.030 A 
ATOM     30  C   LIG    1       -1.925   3.329  -2.351  0.00  0.00    +0.130 A 
ATOM     31  C   LIG    1       -2.084   2.503  -3.449  0.00  0.00    -0.650 A 
ATOM     32  C   LIG    1       -1.573   1.219  -3.427  0.00  0.00    +0.130 A 
ATOM     33  C   LIG    1       -0.903   0.760  -2.308  0.00  0.00    +0.020 A 
BRANCH  31  34
ATOM     34  S   LIG    1       -2.938   3.088  -4.874  0.00  0.00    +2.500 S 
ATOM     35  O   LIG    1       -2.405   2.318  -5.943  0.00  0.00    -0.930 OA
ATOM     36  O   LIG    1       -2.768   4.498  -4.831  0.00  0.00    -0.930 OA
ATOM     37  C   LIG    1       -4.672   2.646  -4.576  0.00  0.00    -0.250 C 
ENDBRANCH  31  34
ENDBRANCH  26  28
ENDBRANCH   3  22
BRANCH   1  39
ATOM     38  C   LIG    1        5.764   0.646   4.467  0.00  0.00    +0.340 C 
ATOM     39  N   LIG    1        6.295   1.408   3.334  0.00  0.00    -0.650 NA
ATOM     40  H   LIG    1        7.220   1.700   3.336  0.00  0.00    +0.450 HD
ENDBRANCH   1  39
TORSDOF 5
