REMARK  Name = ZINCpe00000MJISe.0
REMARK                            x       y       z     vdW  Elec       q    Type
REMARK                         _______ _______ _______ _____ _____    ______ ____
ROOT
ATOM      1  C   LIG    1        1.560   5.034  -7.281  0.00  0.00    -0.020 C 
ATOM      2  C   LIG    1        0.062   5.171  -6.998  0.00  0.00    +0.020 C 
ATOM      3  C   LIG    1       -0.451   3.883  -6.348  0.00  0.00    +0.270 C 
ATOM      4  N   LIG    1        0.364   3.596  -5.159  0.00  0.00    -0.610 N 
ATOM      5  C   LIG    1        1.825   3.537  -5.302  0.00  0.00    +0.260 C 
ATOM      6  C   LIG    1       -0.217   3.395  -3.960  0.00  0.00    +0.500 C 
ATOM      7  O   LIG    1       -1.424   3.451  -3.854  0.00  0.00    -0.530 OA
ATOM      8  C   LIG    1        2.312   4.824  -5.965  0.00  0.00    +0.040 C 
ENDROOT
BRANCH   1   9
ATOM      9  C   LIG    1        2.068   6.306  -7.962  0.00  0.00    +0.330 C 
BRANCH   9  13
ATOM     10  C   LIG    1        6.289   6.094 -10.656  0.00  0.00    +0.110 C 
ATOM     11  C   LIG    1        5.314   6.035  -9.509  0.00  0.00    -0.240 A 
ATOM     12  C   LIG    1        3.986   6.285  -9.579  0.00  0.00    +0.220 A 
ATOM     13  N   LIG    1        3.472   6.130  -8.341  0.00  0.00    -0.370 N 
ATOM     14  N   LIG    1        4.518   5.764  -7.483  0.00  0.00    -0.290 NA
ATOM     15  C   LIG    1        5.621   5.708  -8.184  0.00  0.00    +0.230 A 
ENDBRANCH   9  13
ENDBRANCH   1   9
BRANCH   6  16
ATOM     16  C   LIG    1        0.633   3.102  -2.750  0.00  0.00    +0.320 C 
BRANCH  16  17
ATOM     17  N   LIG    1       -0.229   2.925  -1.579  0.00  0.00    -0.590 N 
ATOM     18  C   LIG    1       -0.739   1.586  -1.242  0.00  0.00    +0.280 C 
ATOM     19  C   LIG    1       -0.013   1.086   0.008  0.00  0.00    +0.010 C 
ATOM     20  C   LIG    1       -0.710   1.569   1.267  0.00  0.00    +0.030 C 
ATOM     21  C   LIG    1       -0.633   3.071   1.472  0.00  0.00    +0.050 C 
ATOM     22  C   LIG    1       -1.431   3.805   0.392  0.00  0.00    +0.180 C 
ATOM     23  C   LIG    1       -0.547   3.978  -0.825  0.00  0.00    +0.490 C 
ATOM     24  O   LIG    1       -0.125   5.078  -1.115  0.00  0.00    -0.530 OA
BRANCH  22  25
ATOM     25  O   LIG    1       -1.832   5.087   0.880  0.00  0.00    -0.540 OA
ATOM     26  H   LIG    1       -2.330   5.614   0.240  0.00  0.00    +0.390 HD
ENDBRANCH  22  25
ENDBRANCH  16  17
ENDBRANCH   6  16
TORSDOF 5
