REMARK  Name = ZINC670000002BQ9.0
REMARK                            x       y       z     vdW  Elec       q    Type
REMARK                         _______ _______ _______ _____ _____    ______ ____
ROOT
ATOM      1  C   LIG    1       -1.226   1.646   0.017  0.00  0.00    +0.120 A 
ATOM      2  C   LIG    1       -1.429   2.990   0.031  0.00  0.00    +0.070 A 
ATOM      3  N   LIG    1       -2.684   3.372   0.033  0.00  0.00    -0.180 NA
ATOM      4  N   LIG    1       -3.602   2.477   0.033  0.00  0.00    -0.230 NA
ATOM      5  S   LIG    1       -2.813   0.973   0.021  0.00  0.00    +0.210 S 
ENDROOT
BRANCH   1   6
ATOM      6  N   LIG    1       -0.011   0.966   0.007  0.00  0.00    -0.800 N 
ATOM      7  H   LIG    1        0.822   1.462   0.002  0.00  0.00    +0.420 HD
ATOM      8  H   LIG    1        0.002  -0.004   0.002  0.00  0.00    +0.420 HD
ENDBRANCH   1   6
TORSDOF 1
