REMARK  Name = ZINCrg000000pRxc.0
REMARK                            x       y       z     vdW  Elec       q    Type
REMARK                         _______ _______ _______ _____ _____    ______ ____
ROOT
ATOM      1  C   LIG    1        1.692   7.859  -2.994  0.00  0.00    +0.010 C 
ENDROOT
BRANCH   1   2
ATOM      2  C   LIG    1        1.872   7.356  -1.585  0.00  0.00    +0.540 C 
ATOM      3  N   LIG    1        1.641   6.060  -1.297  0.00  0.00    -0.720 N 
ATOM      4  H   LIG    1        1.358   5.451  -1.997  0.00  0.00    +0.410 HD
ATOM      5  O   LIG    1        2.225   8.118  -0.710  0.00  0.00    -0.510 OA
BRANCH   3   6
ATOM      6  C   LIG    1        1.816   5.572   0.073  0.00  0.00    +0.350 C 
BRANCH   6   7
ATOM      7  C   LIG    1        1.497   4.100   0.126  0.00  0.00    -0.110 A 
ATOM      8  C   LIG    1        0.205   3.684   0.389  0.00  0.00    +0.050 A 
ATOM      9  C   LIG    1       -0.094   2.334   0.434  0.00  0.00    +0.040 A 
ATOM     10  C   LIG    1        0.903   1.396   0.225  0.00  0.00    +0.050 A 
ATOM     11  O   LIG    1        0.875   0.031   0.217  0.00  0.00    -0.310 OA
ATOM     12  C   LIG    1        2.248  -0.382   0.351  0.00  0.00    +0.440 C 
ATOM     13  O   LIG    1        2.992   0.714  -0.212  0.00  0.00    -0.310 OA
ATOM     14  C   LIG    1        2.205   1.816  -0.040  0.00  0.00    +0.030 A 
ATOM     15  C   LIG    1        2.496   3.169  -0.088  0.00  0.00    +0.060 A 
ENDBRANCH   6   7
ENDBRANCH   3   6
ENDBRANCH   1   2
BRANCH   1  16
ATOM     16  S   LIG    1        2.075   9.626  -3.059  0.00  0.00    +0.210 S 
BRANCH  16  18
ATOM     17  C   LIG    1        1.968  11.229  -5.303  0.00  0.00    -0.290 A 
ATOM     18  C   LIG    1        1.790   9.940  -4.769  0.00  0.00    +0.220 A 
ATOM     19  N   LIG    1        1.396   8.936  -5.605  0.00  0.00    -0.630 N 
ATOM     20  H   LIG    1        1.271   8.039  -5.259  0.00  0.00    +0.420 HD
ATOM     21  C   LIG    1        1.176   9.191  -6.907  0.00  0.00    +0.640 A 
ATOM     22  N   LIG    1        1.343  10.411  -7.421  0.00  0.00    -0.550 NA
ATOM     23  O   LIG    1        0.821   8.282  -7.638  0.00  0.00    -0.510 OA
ATOM     24  C   LIG    1        1.727  11.425  -6.674  0.00  0.00    +0.320 A 
ATOM     25  C   LIG    1        1.905  12.790  -7.286  0.00  0.00    +0.180 C 
BRANCH  17  26
ATOM     26  C   LIG    1        2.397  12.343  -4.449  0.00  0.00    +0.530 C 
ATOM     27  O   LIG    1        2.487  12.188  -3.247  0.00  0.00    -0.490 OA
BRANCH  26  29
ATOM     28  C   LIG    1        3.106  14.596  -4.093  0.00  0.00    +0.280 C 
ATOM     29  O   LIG    1        2.689  13.540  -4.998  0.00  0.00    -0.340 OA
ENDBRANCH  26  29
ENDBRANCH  17  26
ENDBRANCH  16  18
ENDBRANCH   1  16
TORSDOF 7
