REMARK  Name = ZINCpk00000xQBCw.0
REMARK                            x       y       z     vdW  Elec       q    Type
REMARK                         _______ _______ _______ _____ _____    ______ ____
ROOT
ATOM      1  C   LIG    1        0.683   6.237   0.558  0.00  0.00    +0.590 C 
ATOM      2  N   LIG    1        0.129   5.067   0.180  0.00  0.00    -0.620 N 
ATOM      3  C   LIG    1       -1.006   4.915  -0.742  0.00  0.00    +0.240 C 
ATOM      4  C   LIG    1       -1.306   3.406  -0.854  0.00  0.00    +0.050 C 
ATOM      5  C   LIG    1       -0.689   2.831   0.449  0.00  0.00    +0.130 C 
ATOM      6  C   LIG    1        0.561   3.729   0.623  0.00  0.00    +0.280 C 
ATOM      7  O   LIG    1        1.677   6.240   1.257  0.00  0.00    -0.520 OA
ENDROOT
BRANCH   1  13
ATOM      8  C   LIG    1       -0.132   8.542   1.049  0.00  0.00    +0.180 A 
ATOM      9  C   LIG    1       -0.693   9.739   0.629  0.00  0.00    -0.080 A 
ATOM     10  C   LIG    1       -1.048   9.909  -0.695  0.00  0.00    +0.070 A 
ATOM     11  C   LIG    1       -0.844   8.892  -1.612  0.00  0.00    -0.030 A 
ATOM     12  C   LIG    1       -0.282   7.698  -1.212  0.00  0.00    +0.090 A 
ATOM     13  C   LIG    1        0.082   7.512   0.123  0.00  0.00    -0.160 A 
BRANCH   8  15
ATOM     14  C   LIG    1       -0.035   9.465   3.236  0.00  0.00    +0.240 C 
ATOM     15  O   LIG    1        0.213   8.371   2.350  0.00  0.00    -0.300 OA
ENDBRANCH   8  15
ENDBRANCH   1  13
BRANCH   5  16
ATOM     16  N   LIG    1       -0.306   1.424   0.274  0.00  0.00    -0.520 NA
ATOM     17  C   LIG    1        0.370   0.909   1.472  0.00  0.00    +0.190 C 
BRANCH  16  18
ATOM     18  C   LIG    1       -1.473   0.599  -0.068  0.00  0.00    +0.290 C 
BRANCH  18  19
ATOM     19  C   LIG    1       -1.013  -0.776  -0.478  0.00  0.00    +0.370 A 
ATOM     20  N   LIG    1       -0.751  -1.012  -1.748  0.00  0.00    -0.540 NA
ATOM     21  C   LIG    1       -0.339  -2.206  -2.150  0.00  0.00    +0.350 A 
ATOM     22  C   LIG    1       -0.195  -3.217  -1.221  0.00  0.00    -0.150 A 
ATOM     23  C   LIG    1       -0.487  -2.936   0.116  0.00  0.00    +0.440 A 
ATOM     24  N   LIG    1       -0.890  -1.711   0.442  0.00  0.00    -0.580 NA
BRANCH  23  25
ATOM     25  N   LIG    1       -0.360  -3.917   1.085  0.00  0.00    -0.840 N 
ATOM     26  H   LIG    1       -0.065  -4.807   0.839  0.00  0.00    +0.410 HD
ATOM     27  H   LIG    1       -0.565  -3.713   2.011  0.00  0.00    +0.410 HD
ENDBRANCH  23  25
ENDBRANCH  18  19
ENDBRANCH  16  18
ENDBRANCH   5  16
TORSDOF 6
