REMARK  Name = ZINCqH0000007ZpN.0
REMARK                            x       y       z     vdW  Elec       q    Type
REMARK                         _______ _______ _______ _____ _____    ______ ____
ROOT
ATOM      1  N   LIG    1        4.888   0.111  -0.144  0.00  0.00    -0.660 N 
ATOM      2  H   LIG    1        4.849   1.066   0.017  0.00  0.00    +0.410 HD
ATOM      3  C   LIG    1        3.749  -0.601  -0.251  0.00  0.00    +0.570 C 
ATOM      4  O   LIG    1        3.796  -1.810  -0.370  0.00  0.00    -0.500 OA
ENDROOT
BRANCH   3   5
ATOM      5  C   LIG    1        2.441   0.088  -0.224  0.00  0.00    -0.070 A 
ATOM      6  C   LIG    1        2.353   1.450   0.030  0.00  0.00    +0.010 A 
ATOM      7  C   LIG    1        1.104   2.067   0.047  0.00  0.00    +0.180 A 
ATOM      8  N   LIG    1       -0.001   1.399  -0.170  0.00  0.00    -0.440 NA
ATOM      9  C   LIG    1        0.007   0.087  -0.421  0.00  0.00    +0.130 A 
ATOM     10  C   LIG    1       -1.191  -0.613  -0.652  0.00  0.00    +0.040 A 
ATOM     11  C   LIG    1       -1.154  -1.950  -0.906  0.00  0.00    +0.040 A 
ATOM     12  C   LIG    1        0.055  -2.641  -0.941  0.00  0.00    +0.020 A 
ATOM     13  C   LIG    1        1.235  -1.996  -0.721  0.00  0.00    +0.060 A 
ATOM     14  C   LIG    1        1.234  -0.620  -0.458  0.00  0.00    -0.070 A 
BRANCH   7  15
ATOM     15  C   LIG    1        1.022   3.546   0.324  0.00  0.00    +0.020 C 
ATOM     16  C   LIG    1        2.251   4.219   0.940  0.00  0.00    +0.040 C 
ATOM     17  C   LIG    1        0.997   3.991   1.788  0.00  0.00    +0.050 C 
ENDBRANCH   7  15
ENDBRANCH   3   5
BRANCH   1  22
ATOM     18  C   LIG    1        8.410  -0.512  -0.992  0.00  0.00    -0.640 A 
ATOM     19  C   LIG    1        8.575  -1.793  -0.501  0.00  0.00    +0.120 A 
ATOM     20  C   LIG    1        7.519  -2.445   0.108  0.00  0.00    +0.020 A 
ATOM     21  C   LIG    1        6.296  -1.815   0.234  0.00  0.00    +0.090 A 
ATOM     22  C   LIG    1        6.126  -0.529  -0.264  0.00  0.00    +0.120 A 
ATOM     23  C   LIG    1        7.189   0.123  -0.876  0.00  0.00    +0.100 A 
BRANCH  18  25
ATOM     24  C   LIG    1       10.597   1.185  -0.415  0.00  0.00    -0.260 C 
ATOM     25  S   LIG    1        9.760   0.314  -1.768  0.00  0.00    +2.500 S 
ATOM     26  O   LIG    1        9.143   1.240  -2.651  0.00  0.00    -0.940 OA
ATOM     27  O   LIG    1       10.576  -0.739  -2.264  0.00  0.00    -0.930 OA
ENDBRANCH  18  25
ENDBRANCH   1  22
TORSDOF 4
