REMARK  Name = ZINCrH00000tj10q.0
REMARK                            x       y       z     vdW  Elec       q    Type
REMARK                         _______ _______ _______ _____ _____    ______ ____
ROOT
ATOM      1  C   LIG    1       -1.183  -2.050  -0.260  0.00  0.00    +0.270 C 
ENDROOT
BRANCH   1   5
ATOM      2  C   LIG    1        2.152  -0.754  -0.606  0.00  0.00    +0.220 A 
ATOM      3  N   LIG    1        1.409   0.314  -0.743  0.00  0.00    -0.360 NA
ATOM      4  O   LIG    1        0.236   0.021  -0.646  0.00  0.00    +0.100 OA
ATOM      5  C   LIG    1        0.108  -1.293  -0.433  0.00  0.00    +0.190 A 
ATOM      6  N   LIG    1        1.316  -1.798  -0.405  0.00  0.00    -0.440 NA
BRANCH   2  11
ATOM      7  C   LIG    1        7.905  -0.973  -0.811  0.00  0.00    +0.110 C 
ATOM      8  C   LIG    1        6.400  -0.915  -0.758  0.00  0.00    -0.090 A 
ATOM      9  C   LIG    1        5.673  -2.071  -0.544  0.00  0.00    +0.050 A 
ATOM     10  C   LIG    1        4.295  -2.024  -0.489  0.00  0.00    +0.060 A 
ATOM     11  C   LIG    1        3.634  -0.809  -0.659  0.00  0.00    -0.010 A 
ATOM     12  C   LIG    1        4.369   0.355  -0.875  0.00  0.00    +0.030 A 
ATOM     13  C   LIG    1        5.749   0.297  -0.923  0.00  0.00    +0.100 A 
ATOM     14  F   LIG    1        6.465   1.424  -1.132  0.00  0.00    -0.130 F 
ENDBRANCH   2  11
ENDBRANCH   1   5
BRANCH   1  15
ATOM     15  S   LIG    1       -1.629  -2.088   1.494  0.00  0.00    +0.100 S 
BRANCH  15  16
ATOM     16  C   LIG    1       -3.130  -3.006   1.409  0.00  0.00    +0.210 A 
ATOM     17  N   LIG    1       -3.694  -3.484   0.320  0.00  0.00    -0.330 NA
ATOM     18  N   LIG    1       -4.778  -4.107   0.611  0.00  0.00    -0.020 NA
ATOM     19  N   LIG    1       -4.992  -4.068   1.882  0.00  0.00    -0.060 NA
ATOM     20  N   LIG    1       -3.927  -3.349   2.452  0.00  0.00    -0.310 N 
BRANCH  20  21
ATOM     21  C   LIG    1       -3.729  -3.051   3.808  0.00  0.00    +0.100 A 
ATOM     22  C   LIG    1       -2.494  -3.280   4.398  0.00  0.00    +0.040 A 
ATOM     23  C   LIG    1       -2.301  -2.981   5.733  0.00  0.00    +0.030 A 
ATOM     24  C   LIG    1       -3.341  -2.464   6.484  0.00  0.00    +0.050 A 
ATOM     25  C   LIG    1       -4.574  -2.240   5.900  0.00  0.00    +0.030 A 
ATOM     26  C   LIG    1       -4.771  -2.532   4.565  0.00  0.00    -0.050 A 
ATOM     27  C   LIG    1       -6.116  -2.288   3.930  0.00  0.00    +0.110 C 
ENDBRANCH  20  21
ENDBRANCH  15  16
ENDBRANCH   1  15
TORSDOF 5
