REMARK  Name = ZINCvU0000000Azh.1
REMARK                            x       y       z     vdW  Elec       q    Type
REMARK                         _______ _______ _______ _____ _____    ______ ____
ROOT
ATOM      1  C   LIG    1        0.460   2.322   0.243  0.00  0.00    -0.690 A 
ATOM      2  C   LIG    1       -0.799   1.824   0.525  0.00  0.00    +0.160 A 
ATOM      3  C   LIG    1       -1.867   2.687   0.672  0.00  0.00    -0.020 A 
ATOM      4  C   LIG    1       -1.675   4.056   0.545  0.00  0.00    +0.200 A 
ATOM      5  C   LIG    1       -0.410   4.553   0.262  0.00  0.00    +0.010 A 
ATOM      6  C   LIG    1        0.654   3.685   0.111  0.00  0.00    +0.160 A 
ENDROOT
BRANCH   4   7
ATOM      7  N   LIG    1       -2.755   4.933   0.698  0.00  0.00    -0.670 N 
ATOM      8  H   LIG    1       -3.452   4.737   1.344  0.00  0.00    +0.420 HD
ATOM      9  C   LIG    1       -2.826   6.051  -0.051  0.00  0.00    +0.540 C 
ATOM     10  O   LIG    1       -1.917   6.339  -0.800  0.00  0.00    -0.490 OA
BRANCH   9  11
ATOM     11  C   LIG    1       -4.037   6.943   0.040  0.00  0.00    -0.010 C 
ATOM     12  C   LIG    1       -3.868   7.915   1.210  0.00  0.00    +0.080 C 
BRANCH  11  13
ATOM     13  S   LIG    1       -4.217   7.880  -1.503  0.00  0.00    +0.000 S 
BRANCH  13  14
ATOM     14  C   LIG    1       -5.844   8.543  -1.377  0.00  0.00    -0.100 A 
ATOM     15  C   LIG    1       -6.669   8.169  -0.324  0.00  0.00    +0.000 A 
ATOM     16  C   LIG    1       -7.943   8.695  -0.226  0.00  0.00    +0.040 A 
ATOM     17  C   LIG    1       -8.401   9.584  -1.180  0.00  0.00    +0.030 A 
ATOM     18  C   LIG    1       -7.585   9.956  -2.233  0.00  0.00    +0.050 A 
ATOM     19  C   LIG    1       -6.308   9.438  -2.336  0.00  0.00    -0.020 A 
ATOM     20 CL   LIG    1       -5.284   9.905  -3.657  0.00  0.00    -0.050 Cl
ENDBRANCH  13  14
ENDBRANCH  11  13
ENDBRANCH   9  11
ENDBRANCH   4   7
BRANCH   1  21
ATOM     21  S   LIG    1        1.819   1.218   0.049  0.00  0.00    +2.690 S 
ATOM     22  O   LIG    1        1.477   0.033   0.754  0.00  0.00    -0.950 OA
ATOM     23  O   LIG    1        2.992   1.974   0.322  0.00  0.00    -0.950 OA
BRANCH  21  24
ATOM     24  N   LIG    1        1.891   0.806  -1.553  0.00  0.00    -1.040 N 
ATOM     25  H   LIG    1        1.799  -0.122  -1.820  0.00  0.00    +0.430 HD
BRANCH  24  31
ATOM     26  C   LIG    1        1.466   1.689  -3.766  0.00  0.00    +0.110 A 
ATOM     27  C   LIG    1        1.658   2.674  -4.719  0.00  0.00    -0.060 A 
ATOM     28  C   LIG    1        2.473   3.757  -4.441  0.00  0.00    +0.040 A 
ATOM     29  C   LIG    1        3.093   3.861  -3.210  0.00  0.00    +0.010 A 
ATOM     30  C   LIG    1        2.902   2.885  -2.251  0.00  0.00    +0.030 A 
ATOM     31  C   LIG    1        2.086   1.796  -2.522  0.00  0.00    +0.120 A 
BRANCH  26  33
ATOM     32  C   LIG    1        0.065   0.578  -5.334  0.00  0.00    +0.250 C 
ATOM     33  O   LIG    1        0.669   0.621  -4.040  0.00  0.00    -0.320 OA
ENDBRANCH  26  33
ENDBRANCH  24  31
ENDBRANCH  21  24
ENDBRANCH   1  21
TORSDOF 8
