REMARK  Name = ZINCpe000000W6hp.0
REMARK                            x       y       z     vdW  Elec       q    Type
REMARK                         _______ _______ _______ _____ _____    ______ ____
ROOT
ATOM      1  N   LIG    1        2.189  -2.176   1.347  0.00  0.00    -0.290 N 
ATOM      2  C   LIG    1        1.736  -3.295   1.959  0.00  0.00    +0.160 A 
ATOM      3  C   LIG    1        2.263  -3.281   3.206  0.00  0.00    -0.010 A 
ATOM      4  N   LIG    1        3.003  -2.170   3.293  0.00  0.00    -0.260 NA
ATOM      5  N   LIG    1        2.943  -1.540   2.173  0.00  0.00    -0.080 NA
ENDROOT
BRANCH   1   6
ATOM      6  C   LIG    1        1.879  -1.764  -0.025  0.00  0.00    +0.440 C 
BRANCH   6  11
ATOM      7  C   LIG    1        2.006   0.859  -0.013  0.00  0.00    +0.050 A 
ATOM      8  N   LIG    1        1.102   1.796   0.001  0.00  0.00    -0.340 NA
ATOM      9  O   LIG    1       -0.016   1.336   0.009  0.00  0.00    +0.110 OA
ATOM     10  C   LIG    1        0.002  -0.004   0.002  0.00  0.00    +0.200 A 
ATOM     11  C   LIG    1        1.306  -0.370  -0.012  0.00  0.00    -0.220 A 
BRANCH   7  12
ATOM     12  C   LIG    1        3.501   1.046  -0.027  0.00  0.00    +0.290 C 
BRANCH  12  14
ATOM     13  C   LIG    1        5.372   1.291  -1.505  0.00  0.00    +0.220 C 
ATOM     14  O   LIG    1        3.960   1.113  -1.378  0.00  0.00    -0.390 OA
ENDBRANCH  12  14
ENDBRANCH   7  12
ENDBRANCH   6  11
ENDBRANCH   1   6
BRANCH   3  15
ATOM     15  C   LIG    1        2.057  -4.315   4.283  0.00  0.00    +0.300 C 
BRANCH  15  16
ATOM     16  N   LIG    1        3.161  -5.284   4.250  0.00  0.00    -0.530 NA
ATOM     17  C   LIG    1        4.432  -4.647   4.615  0.00  0.00    +0.180 C 
ATOM     18  C   LIG    1        5.577  -5.645   4.429  0.00  0.00    +0.040 C 
ATOM     19  C   LIG    1        5.327  -6.871   5.312  0.00  0.00    +0.040 C 
ATOM     20  C   LIG    1        3.974  -7.488   4.944  0.00  0.00    +0.040 C 
ATOM     21  C   LIG    1        2.876  -6.436   5.115  0.00  0.00    +0.210 C 
BRANCH  20  22
ATOM     22  C   LIG    1        3.693  -8.660   5.848  0.00  0.00    +0.470 C 
ATOM     23  O   LIG    1        2.713  -8.657   6.554  0.00  0.00    -0.510 OA
BRANCH  22  24
ATOM     24  O   LIG    1        4.532  -9.708   5.868  0.00  0.00    -0.360 OA
ATOM     25  C   LIG    1        4.198 -10.802   6.763  0.00  0.00    +0.250 C 
ENDBRANCH  22  24
ENDBRANCH  20  22
ENDBRANCH  15  16
ENDBRANCH   3  15
TORSDOF 8
