REMARK  Name = ZINCvU0000000BXW.0
REMARK                            x       y       z     vdW  Elec       q    Type
REMARK                         _______ _______ _______ _____ _____    ______ ____
ROOT
ATOM      1  N   LIG    1       -1.234  -5.064  -0.013  0.00  0.00    -0.710 N 
ATOM      2  H   LIG    1       -0.290  -5.289  -0.023  0.00  0.00    +0.400 HD
ATOM      3  C   LIG    1       -1.617  -3.772  -0.002  0.00  0.00    +0.540 C 
ATOM      4  O   LIG    1       -2.796  -3.489   0.012  0.00  0.00    -0.520 OA
ENDROOT
BRANCH   1   5
ATOM      5  C   LIG    1       -2.241  -6.127  -0.008  0.00  0.00    +0.320 C 
BRANCH   5   9
ATOM      6  C   LIG    1       -0.588  -9.663  -1.747  0.00  0.00    +0.130 A 
ATOM      7  C   LIG    1       -1.898  -9.299  -2.025  0.00  0.00    -0.020 A 
ATOM      8  C   LIG    1       -2.430  -8.156  -1.461  0.00  0.00    +0.070 A 
ATOM      9  C   LIG    1       -1.658  -7.374  -0.621  0.00  0.00    -0.130 A 
ATOM     10  C   LIG    1       -0.351  -7.732  -0.347  0.00  0.00    +0.050 A 
ATOM     11  C   LIG    1        0.184  -8.878  -0.903  0.00  0.00    -0.070 A 
BRANCH   6  13
ATOM     12  C   LIG    1        1.292 -11.101  -1.970  0.00  0.00    +0.250 C 
ATOM     13  O   LIG    1       -0.062 -10.787  -2.301  0.00  0.00    -0.320 OA
ENDBRANCH   6  13
ENDBRANCH   5   9
BRANCH   5  14
ATOM     14  C   LIG    1       -2.669  -6.418   1.432  0.00  0.00    -0.060 C 
ATOM     15  C   LIG    1       -4.168  -6.421   1.737  0.00  0.00    +0.020 C 
ATOM     16  C   LIG    1       -3.289  -5.270   2.231  0.00  0.00    +0.030 C 
ENDBRANCH   5  14
ENDBRANCH   1   5
BRANCH   3  17
ATOM     17  C   LIG    1       -0.580  -2.678  -0.006  0.00  0.00    +0.090 C 
BRANCH  17  18
ATOM     18  S   LIG    1       -1.404  -1.066   0.011  0.00  0.00    +0.160 S 
BRANCH  18  19
ATOM     19  C   LIG    1        0.002  -0.004   0.002  0.00  0.00    +0.120 A 
ATOM     20  N   LIG    1        1.260  -0.380  -0.012  0.00  0.00    -0.290 NA
ATOM     21  N   LIG    1        2.018   0.659  -0.014  0.00  0.00    -0.270 NA
ATOM     22  C   LIG    1        1.276   1.740  -0.001  0.00  0.00    +0.220 A 
ATOM     23  O   LIG    1       -0.016   1.342   0.009  0.00  0.00    -0.200 OA
BRANCH  22  24
ATOM     24  C   LIG    1        1.762   3.135   0.002  0.00  0.00    -0.040 A 
ATOM     25  C   LIG    1        0.852   4.194   0.010  0.00  0.00    +0.050 A 
ATOM     26  C   LIG    1        1.313   5.495   0.017  0.00  0.00    +0.010 A 
ATOM     27  C   LIG    1        2.673   5.750   0.006  0.00  0.00    -0.050 A 
ATOM     28  C   LIG    1        3.579   4.705  -0.008  0.00  0.00    +0.020 A 
ATOM     29  C   LIG    1        3.132   3.400  -0.010  0.00  0.00    +0.080 A 
BRANCH  27  30
ATOM     30  C   LIG    1        3.168   7.173   0.008  0.00  0.00    +0.020 C 
ATOM     31  C   LIG    1        2.667   7.886   1.265  0.00  0.00    +0.030 C 
ATOM     32  C   LIG    1        2.643   7.898  -1.233  0.00  0.00    +0.030 C 
ENDBRANCH  27  30
ENDBRANCH  22  24
ENDBRANCH  18  19
ENDBRANCH  17  18
ENDBRANCH   3  17
TORSDOF 9
