REMARK  Name = ZINCkj000005m5RC.1
REMARK                            x       y       z     vdW  Elec       q    Type
REMARK                         _______ _______ _______ _____ _____    ______ ____
ROOT
ATOM      1  O   LIG    1        2.390   5.152  -0.091  0.00  0.00    -0.510 OA
ATOM      2  C   LIG    1        2.426   3.941   0.000  0.00  0.00    +0.590 C 
ATOM      3  N   LIG    1        3.613   3.307   0.088  0.00  0.00    -0.620 N 
ATOM      4  C   LIG    1        3.809   1.845   0.098  0.00  0.00    +0.260 C 
ATOM      5  C   LIG    1        5.264   1.634  -0.405  0.00  0.00    +0.070 C 
ATOM      6  C   LIG    1        5.979   2.845   0.221  0.00  0.00    -0.100 C 
ATOM      7  C   LIG    1        6.441   2.536   1.650  0.00  0.00    +0.090 C 
ATOM      8  C   LIG    1        7.949   2.222   1.457  0.00  0.00    +0.280 C 
ATOM      9  N   LIG    1        8.364   3.168   0.388  0.00  0.00    -0.520 N 
ATOM     10  H   LIG    1        8.534   4.082   0.779  0.00  0.00    +0.430 HD
ATOM     11  H   LIG    1        9.194   2.827  -0.075  0.00  0.00    +0.440 HD
ATOM     12  C   LIG    1        7.232   3.223  -0.567  0.00  0.00    +0.290 C 
ATOM     13  C   LIG    1        4.929   3.960   0.196  0.00  0.00    +0.280 C 
ENDROOT
BRANCH   2  14
ATOM     14  C   LIG    1        1.171   3.163   0.014  0.00  0.00    -0.050 A 
ATOM     15  C   LIG    1        0.055   3.567  -0.744  0.00  0.00    -0.100 A 
ATOM     16  C   LIG    1       -0.217   4.682  -1.645  0.00  0.00    -0.030 A 
ATOM     17  C   LIG    1       -1.482   4.535  -2.078  0.00  0.00    +0.270 A 
ATOM     18  N   LIG    1       -2.037   3.414  -1.525  0.00  0.00    -0.580 N 
ATOM     19  H   LIG    1       -2.940   3.102  -1.688  0.00  0.00    +0.430 HD
ATOM     20  C   LIG    1       -1.125   2.795  -0.702  0.00  0.00    +0.290 A 
ATOM     21  N   LIG    1       -1.171   1.701   0.042  0.00  0.00    -0.470 NA
ATOM     22  C   LIG    1       -0.145   1.303   0.764  0.00  0.00    +0.300 A 
ATOM     23  C   LIG    1        1.049   2.001   0.780  0.00  0.00    -0.030 A 
ENDBRANCH   2  14
TORSDOF 1
