REMARK  Name = ZINCkj000005m5RC.0
REMARK                            x       y       z     vdW  Elec       q    Type
REMARK                         _______ _______ _______ _____ _____    ______ ____
ROOT
ATOM      1  O   LIG    1       -4.227   3.147  -0.944  0.00  0.00    -0.490 OA
ATOM      2  C   LIG    1       -3.114   3.024  -1.415  0.00  0.00    +0.570 C 
ATOM      3  N   LIG    1       -2.119   2.507  -0.667  0.00  0.00    -0.620 N 
ATOM      4  C   LIG    1       -2.216   2.142   0.760  0.00  0.00    +0.270 C 
ATOM      5  C   LIG    1       -0.759   2.201   1.288  0.00  0.00    +0.080 C 
ATOM      6  C   LIG    1        0.029   1.689   0.069  0.00  0.00    -0.100 C 
ATOM      7  C   LIG    1        1.469   2.217   0.080  0.00  0.00    +0.100 C 
ATOM      8  C   LIG    1        2.269   1.008   0.633  0.00  0.00    +0.280 C 
ATOM      9  N   LIG    1        1.574  -0.165   0.040  0.00  0.00    -0.520 N 
ATOM     10  H   LIG    1        1.880  -0.308  -0.911  0.00  0.00    +0.430 HD
ATOM     11  H   LIG    1        1.753  -0.991   0.591  0.00  0.00    +0.440 HD
ATOM     12  C   LIG    1        0.129   0.165   0.068  0.00  0.00    +0.280 C 
ATOM     13  C   LIG    1       -0.754   2.213  -1.137  0.00  0.00    +0.290 C 
ENDROOT
BRANCH   2  14
ATOM     14  C   LIG    1       -2.850   3.442  -2.814  0.00  0.00    -0.010 A 
ATOM     15  C   LIG    1       -3.823   4.124  -3.556  0.00  0.00    -0.100 A 
ATOM     16  C   LIG    1       -5.129   4.591  -3.323  0.00  0.00    -0.080 A 
ATOM     17  C   LIG    1       -5.536   5.197  -4.472  0.00  0.00    +0.260 A 
ATOM     18  N   LIG    1       -4.580   5.146  -5.400  0.00  0.00    -0.530 NA
ATOM     19  C   LIG    1       -3.510   4.522  -4.938  0.00  0.00    +0.260 A 
ATOM     20  N   LIG    1       -2.286   4.202  -5.451  0.00  0.00    -0.480 N 
ATOM     21  H   LIG    1       -2.067   4.455  -6.361  0.00  0.00    +0.430 HD
ATOM     22  C   LIG    1       -1.383   3.543  -4.712  0.00  0.00    +0.310 A 
ATOM     23  C   LIG    1       -1.625   3.159  -3.428  0.00  0.00    -0.070 A 
ENDBRANCH   2  14
TORSDOF 1
