REMARK  Name = ZINCvU00000009zg.0
REMARK                            x       y       z     vdW  Elec       q    Type
REMARK                         _______ _______ _______ _____ _____    ______ ____
ROOT
ATOM      1  O   LIG    1       -1.885   1.591  -0.813  0.00  0.00    -0.530 OA
ATOM      2  C   LIG    1       -1.187   2.136   0.019  0.00  0.00    +0.560 C 
ATOM      3  N   LIG    1       -0.407   1.397   0.833  0.00  0.00    -0.610 N 
ATOM      4  C   LIG    1        0.508   2.043   1.783  0.00  0.00    +0.260 C 
ATOM      5  C   LIG    1        0.239   1.486   3.185  0.00  0.00    +0.010 C 
ATOM      6  C   LIG    1        0.343  -0.040   3.151  0.00  0.00    +0.020 C 
ATOM      7  C   LIG    1       -0.712  -0.604   2.196  0.00  0.00    -0.020 C 
ATOM      8  C   LIG    1       -0.453  -0.071   0.784  0.00  0.00    +0.280 C 
ENDROOT
BRANCH   2   9
ATOM      9  C   LIG    1       -1.192   3.610   0.139  0.00  0.00    -0.120 A 
ATOM     10  C   LIG    1        0.011   4.317   0.143  0.00  0.00    +0.040 A 
ATOM     11  C   LIG    1       -0.002   5.692   0.251  0.00  0.00    +0.030 A 
ATOM     12  C   LIG    1       -1.203   6.370   0.364  0.00  0.00    -0.060 A 
ATOM     13  C   LIG    1       -2.399   5.674   0.365  0.00  0.00    +0.030 A 
ATOM     14  C   LIG    1       -2.401   4.299   0.254  0.00  0.00    +0.060 A 
BRANCH  12  15
ATOM     15  C   LIG    1       -1.209   7.872   0.487  0.00  0.00    +0.150 C 
BRANCH  15  16
ATOM     16  S   LIG    1       -1.129   8.336   2.239  0.00  0.00    +0.030 S 
BRANCH  16  17
ATOM     17  C   LIG    1       -1.145  10.097   2.183  0.00  0.00    +0.200 A 
ATOM     18  N   LIG    1       -1.102  10.895   3.224  0.00  0.00    -0.290 NA
ATOM     19  N   LIG    1       -1.135  12.208   2.729  0.00  0.00    -0.480 N 
ATOM     20  H   LIG    1       -1.116  13.026   3.251  0.00  0.00    +0.450 HD
ATOM     21  C   LIG    1       -1.197  12.110   1.391  0.00  0.00    +0.510 A 
ATOM     22  N   LIG    1       -1.198  10.840   1.073  0.00  0.00    -0.540 NA
ENDBRANCH  16  17
ENDBRANCH  15  16
ENDBRANCH  12  15
ENDBRANCH   2   9
BRANCH   7  23
ATOM     23  C   LIG    1       -0.628  -2.132   2.189  0.00  0.00    +0.100 C 
BRANCH  23  24
ATOM     24  C   LIG    1       -1.742  -2.692   1.342  0.00  0.00    -0.080 A 
ATOM     25  C   LIG    1       -2.893  -3.084   1.852  0.00  0.00    -0.020 A 
ATOM     26  S   LIG    1       -3.973  -3.683   0.608  0.00  0.00    +0.080 S 
ATOM     27  C   LIG    1       -2.792  -3.378  -0.659  0.00  0.00    -0.140 A 
ATOM     28  C   LIG    1       -2.865  -3.590  -2.039  0.00  0.00    +0.050 A 
ATOM     29  C   LIG    1       -1.797  -3.269  -2.845  0.00  0.00    +0.030 A 
ATOM     30  C   LIG    1       -0.642  -2.733  -2.292  0.00  0.00    +0.020 A 
ATOM     31  C   LIG    1       -0.551  -2.519  -0.951  0.00  0.00    +0.040 A 
ATOM     32  C   LIG    1       -1.633  -2.833  -0.101  0.00  0.00    -0.070 A 
ENDBRANCH  23  24
ENDBRANCH   7  23
TORSDOF 6
