REMARK  Name = ZINCrD000007453Y.0
REMARK                            x       y       z     vdW  Elec       q    Type
REMARK                         _______ _______ _______ _____ _____    ______ ____
ROOT
ATOM      1  C   LIG    1       -0.014   1.204   0.018  0.00  0.00    +0.460 C 
ATOM      2  O   LIG    1        0.002  -0.005   0.021  0.00  0.00    -0.490 OA
ENDROOT
BRANCH   1   4
ATOM      3  C   LIG    1       -1.430   2.815  -1.225  0.00  0.00    +0.100 C 
ATOM      4  C   LIG    1       -1.329   1.939   0.025  0.00  0.00    +0.280 C 
BRANCH   4   5
ATOM      5  N   LIG    1       -2.430   0.972   0.034  0.00  0.00    -0.510 N 
ATOM      6  C   LIG    1       -2.537   0.086  -0.999  0.00  0.00    +0.270 A 
ATOM      7  C   LIG    1       -3.516  -0.830  -1.064  0.00  0.00    -0.050 A 
ATOM      8  C   LIG    1       -4.514  -0.893   0.006  0.00  0.00    +0.010 A 
ATOM      9  C   LIG    1       -5.554  -1.823  -0.007  0.00  0.00    +0.000 A 
ATOM     10  C   LIG    1       -6.459  -1.840   1.017  0.00  0.00    +0.050 A 
ATOM     11  C   LIG    1       -6.358  -0.943   2.072  0.00  0.00    -0.010 A 
ATOM     12  C   LIG    1       -5.342  -0.013   2.112  0.00  0.00    +0.090 A 
ATOM     13  C   LIG    1       -4.407   0.022   1.078  0.00  0.00    -0.150 A 
ATOM     14  C   LIG    1       -3.299   0.984   1.064  0.00  0.00    +0.550 A 
ATOM     15  O   LIG    1       -3.168   1.786   1.971  0.00  0.00    -0.520 OA
ENDBRANCH   4   5
ENDBRANCH   1   4
BRANCH   1  16
ATOM     16  O   LIG    1        1.139   1.891   0.004  0.00  0.00    -0.320 OA
BRANCH  16  17
ATOM     17  C   LIG    1        2.367   1.117  -0.008  0.00  0.00    +0.270 C 
BRANCH  17  18
ATOM     18  C   LIG    1        3.550   2.051  -0.023  0.00  0.00    +0.520 C 
ATOM     19  N   LIG    1        4.802   1.553  -0.035  0.00  0.00    -0.670 N 
ATOM     20  H   LIG    1        4.944   0.596   0.033  0.00  0.00    +0.420 HD
ATOM     21  O   LIG    1        3.374   3.251  -0.023  0.00  0.00    -0.490 OA
BRANCH  19  22
ATOM     22  C   LIG    1        5.897   2.417  -0.147  0.00  0.00    +0.150 A 
ATOM     23  C   LIG    1        7.026   2.021  -0.851  0.00  0.00    -0.010 A 
ATOM     24  C   LIG    1        8.104   2.877  -0.965  0.00  0.00    +0.050 A 
ATOM     25  C   LIG    1        8.064   4.124  -0.368  0.00  0.00    +0.020 A 
ATOM     26  C   LIG    1        6.943   4.520   0.340  0.00  0.00    -0.020 A 
ATOM     27 CL   LIG    1        6.897   6.086   1.087  0.00  0.00    -0.060 Cl
ATOM     28  C   LIG    1        5.859   3.669   0.452  0.00  0.00    +0.040 A 
ENDBRANCH  19  22
ENDBRANCH  17  18
ENDBRANCH  16  17
ENDBRANCH   1  16
TORSDOF 6
