REMARK  Name = ZINCvU0000000Ds8.0
REMARK                            x       y       z     vdW  Elec       q    Type
REMARK                         _______ _______ _______ _____ _____    ______ ____
ROOT
ATOM      1  C   LIG    1       -4.746   2.532  -0.127  0.00  0.00    +0.010 A 
ATOM      2  C   LIG    1       -5.408   3.745   0.061  0.00  0.00    +0.040 A 
ATOM      3  C   LIG    1       -6.775   3.764   0.252  0.00  0.00    +0.020 A 
ATOM      4  C   LIG    1       -7.492   2.583   0.257  0.00  0.00    +0.000 A 
ATOM      5  C   LIG    1       -6.842   1.369   0.070  0.00  0.00    +0.140 A 
ATOM      6  C   LIG    1       -5.470   1.341  -0.127  0.00  0.00    +0.070 A 
ENDROOT
BRANCH   1  13
ATOM      7  C   LIG    1        2.389   3.939  -1.001  0.00  0.00    +0.150 C 
ATOM      8  C   LIG    1        1.092   3.180  -0.882  0.00  0.00    +0.180 A 
ATOM      9  C   LIG    1        1.104   1.823  -0.992  0.00  0.00    -0.040 A 
ATOM     10  C   LIG    1       -0.076   1.097  -0.886  0.00  0.00    +0.210 A 
ATOM     11  C   LIG    1       -1.272   1.786  -0.672  0.00  0.00    -0.010 A 
ATOM     12  N   LIG    1       -2.554   1.417  -0.518  0.00  0.00    -0.510 NA
ATOM     13  C   LIG    1       -3.278   2.510  -0.331  0.00  0.00    +0.300 A 
ATOM     14  N   LIG    1       -2.492   3.589  -0.354  0.00  0.00    -0.550 NA
ATOM     15  C   LIG    1       -1.241   3.200  -0.558  0.00  0.00    +0.230 A 
ATOM     16  N   LIG    1       -0.048   3.859  -0.671  0.00  0.00    -0.480 N 
ATOM     17  H   LIG    1       -0.025   4.826  -0.597  0.00  0.00    +0.420 HD
ENDBRANCH   1  13
BRANCH   5  18
ATOM     18  N   LIG    1       -7.572   0.176   0.076  0.00  0.00    -0.670 N 
ATOM     19  H   LIG    1       -8.479   0.161  -0.266  0.00  0.00    +0.410 HD
ATOM     20  C   LIG    1       -7.014  -0.953   0.558  0.00  0.00    +0.560 C 
ATOM     21  O   LIG    1       -5.914  -0.915   1.075  0.00  0.00    -0.500 OA
BRANCH  20  22
ATOM     22  C   LIG    1       -7.739  -2.234   0.459  0.00  0.00    -0.140 A 
ATOM     23  C   LIG    1       -7.162  -3.405   0.958  0.00  0.00    +0.150 A 
ATOM     24  C   LIG    1       -7.842  -4.600   0.863  0.00  0.00    -0.040 A 
ATOM     25  C   LIG    1       -9.099  -4.642   0.273  0.00  0.00    +0.140 A 
ATOM     26  C   LIG    1       -9.677  -3.479  -0.224  0.00  0.00    -0.050 A 
ATOM     27 CL   LIG    1      -11.248  -3.537  -0.960  0.00  0.00    -0.030 Cl
ATOM     28  C   LIG    1       -9.006  -2.279  -0.130  0.00  0.00    +0.110 A 
BRANCH  25  29
ATOM     29  O   LIG    1       -9.765  -5.821   0.183  0.00  0.00    -0.300 OA
BRANCH  29  30
ATOM     30  C   LIG    1       -9.113  -6.977   0.714  0.00  0.00    +0.600 C 
ATOM     31  F   LIG    1       -7.901  -7.177   0.046  0.00  0.00    -0.160 F 
ATOM     32  F   LIG    1       -9.934  -8.096   0.539  0.00  0.00    -0.120 F 
ATOM     33  F   LIG    1       -8.868  -6.788   2.078  0.00  0.00    -0.160 F 
ENDBRANCH  29  30
ENDBRANCH  25  29
ENDBRANCH  20  22
ENDBRANCH   5  18
TORSDOF 5
