REMARK  Name = ZINCrH000004pVqV.0
REMARK                            x       y       z     vdW  Elec       q    Type
REMARK                         _______ _______ _______ _____ _____    ______ ____
ROOT
ATOM      1  N   LIG    1        3.274   6.210  -0.556  0.00  0.00    -0.680 N 
ATOM      2  H   LIG    1        4.118   5.774  -0.750  0.00  0.00    +0.410 HD
ATOM      3  C   LIG    1        3.183   7.554  -0.607  0.00  0.00    +0.710 C 
ATOM      4  N   LIG    1        4.237   8.286  -1.017  0.00  0.00    -0.740 N 
ATOM      5  H   LIG    1        5.061   7.846  -1.277  0.00  0.00    +0.400 HD
ATOM      6  O   LIG    1        2.149   8.106  -0.282  0.00  0.00    -0.570 OA
ENDROOT
BRANCH   1  13
ATOM      7  C   LIG    1       -3.030   2.682   2.221  0.00  0.00    +0.100 C 
ATOM      8  C   LIG    1       -1.635   3.300   2.112  0.00  0.00    +0.190 C 
ATOM      9  O   LIG    1       -1.165   3.180   0.763  0.00  0.00    -0.300 OA
ATOM     10  C   LIG    1       -0.071   3.919   0.431  0.00  0.00    +0.060 A 
ATOM     11  C   LIG    1        0.844   3.445  -0.491  0.00  0.00    +0.060 A 
ATOM     12  C   LIG    1        1.952   4.205  -0.818  0.00  0.00    +0.000 A 
ATOM     13  C   LIG    1        2.149   5.444  -0.222  0.00  0.00    +0.170 A 
ATOM     14  C   LIG    1        1.232   5.924   0.704  0.00  0.00    +0.030 A 
ATOM     15  C   LIG    1        0.123   5.163   1.031  0.00  0.00    +0.110 A 
ATOM     16  N   LIG    1       -0.815   5.628   1.964  0.00  0.00    -0.660 N 
ATOM     17  H   LIG    1       -0.828   6.563   2.224  0.00  0.00    +0.420 HD
ATOM     18  C   LIG    1       -1.699   4.756   2.495  0.00  0.00    +0.490 C 
ATOM     19  O   LIG    1       -2.538   5.143   3.281  0.00  0.00    -0.500 OA
ENDBRANCH   1  13
BRANCH   4  20
ATOM     20  C   LIG    1        4.138   9.747  -1.073  0.00  0.00    +0.340 C 
BRANCH  20  21
ATOM     21  C   LIG    1        5.442  10.321  -1.561  0.00  0.00    -0.150 A 
ATOM     22  C   LIG    1        6.346  10.849  -0.658  0.00  0.00    +0.080 A 
ATOM     23  C   LIG    1        7.545  11.371  -1.106  0.00  0.00    +0.000 A 
ATOM     24  C   LIG    1        7.838  11.375  -2.457  0.00  0.00    -0.010 A 
ATOM     25  C   LIG    1        6.934  10.852  -3.361  0.00  0.00    -0.010 A 
ATOM     26  C   LIG    1        5.734  10.324  -2.914  0.00  0.00    +0.120 A 
ATOM     27  F   LIG    1        4.850   9.812  -3.798  0.00  0.00    -0.130 F 
BRANCH  24  28
ATOM     28  C   LIG    1        9.144  11.949  -2.943  0.00  0.00    -0.010 C 
ATOM     29  C   LIG    1       10.186  12.327  -1.888  0.00  0.00    +0.030 C 
ATOM     30  C   LIG    1        9.425  13.422  -2.638  0.00  0.00    +0.040 C 
ENDBRANCH  24  28
ENDBRANCH  20  21
ENDBRANCH   4  20
TORSDOF 4
