REMARK  Name = ZINC9u0000000C4A.0
REMARK                            x       y       z     vdW  Elec       q    Type
REMARK                         _______ _______ _______ _____ _____    ______ ____
ROOT
ATOM      1  C   LIG    1       -0.750   3.109   1.275  0.00  0.00    +0.030 C 
ENDROOT
BRANCH   1   2
ATOM      2  C   LIG    1       -0.729   1.579   1.267  0.00  0.00    -0.020 C 
ATOM      3  C   LIG    1       -0.013   1.086   0.008  0.00  0.00    +0.010 C 
BRANCH   2   5
ATOM      4  C   LIG    1       -0.075  -0.454   2.563  0.00  0.00    +0.010 C 
ATOM      5  C   LIG    1        0.011   1.072   2.506  0.00  0.00    +0.000 C 
ENDBRANCH   2   5
ENDBRANCH   1   2
BRANCH   1   6
ATOM      6  C   LIG    1       -1.595   3.614   0.104  0.00  0.00    +0.020 C 
BRANCH   6   7
ATOM      7  C   LIG    1       -1.615   5.121   0.113  0.00  0.00    +0.350 C 
ATOM      8  O   LIG    1       -1.016   5.728   0.967  0.00  0.00    -0.460 OA
ATOM      9  C   LIG    1       -2.384   5.870  -0.945  0.00  0.00    +0.050 C 
ENDBRANCH   6   7
ENDBRANCH   1   6
TORSDOF 4
