REMARK  Name = ZINCrH000004nkrz.0
REMARK                            x       y       z     vdW  Elec       q    Type
REMARK                         _______ _______ _______ _____ _____    ______ ____
ROOT
ATOM      1  N   LIG    1       -3.572  -0.982  -0.190  0.00  0.00    -0.620 N 
ATOM      2  C   LIG    1       -2.412  -0.303  -0.090  0.00  0.00    +0.700 C 
ATOM      3  N   LIG    1       -2.425   1.041   0.019  0.00  0.00    -0.680 N 
ATOM      4  H   LIG    1       -3.268   1.512   0.108  0.00  0.00    +0.410 HD
ATOM      5  O   LIG    1       -1.354  -0.902  -0.099  0.00  0.00    -0.560 OA
ATOM      6  C   LIG    1       -4.847  -0.260  -0.180  0.00  0.00    +0.270 C 
ENDROOT
BRANCH   3   7
ATOM      7  C   LIG    1       -1.222   1.756   0.005  0.00  0.00    +0.160 A 
ATOM      8  C   LIG    1       -0.103   1.218  -0.613  0.00  0.00    +0.070 A 
ATOM      9  C   LIG    1        1.090   1.935  -0.630  0.00  0.00    -0.000 A 
ATOM     10  C   LIG    1        1.155   3.187  -0.021  0.00  0.00    +0.050 A 
ATOM     11  C   LIG    1        0.037   3.714   0.596  0.00  0.00    +0.030 A 
ATOM     12  C   LIG    1       -1.147   3.002   0.614  0.00  0.00    -0.100 A 
ATOM     13  C   LIG    1       -2.363   3.583   1.289  0.00  0.00    +0.090 C 
BRANCH   9  14
ATOM     14  C   LIG    1        2.290   1.368  -1.294  0.00  0.00    +0.270 A 
ATOM     15  N   LIG    1        2.353   0.200  -1.893  0.00  0.00    -0.300 NA
ATOM     16  N   LIG    1        3.664   0.067  -2.381  0.00  0.00    -0.480 N 
ATOM     17  H   LIG    1        4.026  -0.687  -2.873  0.00  0.00    +0.440 HD
ATOM     18  C   LIG    1        4.319   1.186  -2.026  0.00  0.00    +0.290 A 
ATOM     19  C   LIG    1        5.763   1.497  -2.327  0.00  0.00    +0.190 C 
ATOM     20  N   LIG    1        3.490   1.959  -1.376  0.00  0.00    -0.530 NA
ENDBRANCH   9  14
ENDBRANCH   3   7
BRANCH   1  21
ATOM     21  C   LIG    1       -3.558  -2.442  -0.308  0.00  0.00    +0.360 C 
BRANCH  21  26
ATOM     22  C   LIG    1       -4.870  -3.915   2.914  0.00  0.00    +0.120 A 
ATOM     23  C   LIG    1       -3.690  -4.190   3.591  0.00  0.00    -0.070 A 
ATOM     24  C   LIG    1       -2.474  -3.898   3.003  0.00  0.00    +0.050 A 
ATOM     25  C   LIG    1       -2.433  -3.338   1.740  0.00  0.00    +0.000 A 
ATOM     26  C   LIG    1       -3.607  -3.058   1.066  0.00  0.00    -0.070 A 
ATOM     27  C   LIG    1       -4.825  -3.348   1.649  0.00  0.00    -0.010 A 
BRANCH  22  29
ATOM     28  C   LIG    1       -6.037  -4.785   4.794  0.00  0.00    +0.250 C 
ATOM     29  O   LIG    1       -6.067  -4.202   3.490  0.00  0.00    -0.320 OA
ENDBRANCH  22  29
ENDBRANCH  21  26
ENDBRANCH   1  21
TORSDOF 5
