REMARK  Name = ZINCpe000000U3IX.0
REMARK                            x       y       z     vdW  Elec       q    Type
REMARK                         _______ _______ _______ _____ _____    ______ ____
ROOT
ATOM      1  C   LIG    1       -4.540  -0.847   0.006  0.00  0.00    +0.310 C 
ENDROOT
BRANCH   1   2
ATOM      2  C   LIG    1       -4.755   0.644   0.022  0.00  0.00    -0.120 A 
ATOM      3  C   LIG    1       -6.038   1.157   0.037  0.00  0.00    +0.050 A 
ATOM      4  C   LIG    1       -6.236   2.526   0.045  0.00  0.00    -0.020 A 
ATOM      5  C   LIG    1       -5.152   3.384   0.045  0.00  0.00    +0.050 A 
ATOM      6  C   LIG    1       -3.868   2.876   0.036  0.00  0.00    -0.070 A 
ATOM      7  C   LIG    1       -3.666   1.503   0.028  0.00  0.00    +0.140 A 
BRANCH   7   8
ATOM      8  O   LIG    1       -2.403   1.001   0.019  0.00  0.00    -0.280 OA
BRANCH   8   9
ATOM      9  C   LIG    1       -1.330   1.944   0.019  0.00  0.00    +0.230 C 
BRANCH   9  10
ATOM     10  C   LIG    1       -0.014   1.209   0.009  0.00  0.00    +0.510 C 
ATOM     11  N   LIG    1        1.143   1.898   0.001  0.00  0.00    -0.730 N 
ATOM     12  H   LIG    1        1.130   2.868   0.007  0.00  0.00    +0.400 HD
ATOM     13  C   LIG    1        2.422   1.183  -0.015  0.00  0.00    +0.290 C 
ATOM     14  O   LIG    1        0.002  -0.004   0.002  0.00  0.00    -0.510 OA
ENDBRANCH   9  10
ENDBRANCH   8   9
ENDBRANCH   7   8
ENDBRANCH   1   2
BRANCH   1  15
ATOM     15  N   LIG    1       -5.711  -1.504  -0.580  0.00  0.00    -0.720 N 
ATOM     16  H   LIG    1       -6.577  -1.067  -0.552  0.00  0.00    +0.400 HD
ATOM     17  C   LIG    1       -5.585  -2.714  -1.160  0.00  0.00    +0.530 C 
ATOM     18  O   LIG    1       -4.503  -3.260  -1.195  0.00  0.00    -0.520 OA
BRANCH  17  19
ATOM     19  C   LIG    1       -6.790  -3.389  -1.763  0.00  0.00    -0.010 C 
ATOM     20  C   LIG    1       -7.803  -3.796  -0.668  0.00  0.00    +0.080 C 
ATOM     21  C   LIG    1       -8.353  -5.122  -1.146  0.00  0.00    +0.520 C 
ATOM     22  N   LIG    1       -7.558  -5.636  -2.100  0.00  0.00    -0.620 N 
ATOM     23  C   LIG    1       -7.804  -6.907  -2.785  0.00  0.00    +0.300 C 
ATOM     24  O   LIG    1       -9.365  -5.645  -0.729  0.00  0.00    -0.530 OA
ATOM     25  C   LIG    1       -6.411  -4.759  -2.367  0.00  0.00    +0.300 C 
ENDBRANCH  17  19
ENDBRANCH   1  15
BRANCH   1  27
ATOM     26  C   LIG    1       -3.996  -2.840   1.412  0.00  0.00    +0.020 C 
ATOM     27  C   LIG    1       -4.338  -1.349   1.438  0.00  0.00    +0.010 C 
ENDBRANCH   1  27
TORSDOF 7
