REMARK  Name = ZINCpk000000n1Ky.0
REMARK                            x       y       z     vdW  Elec       q    Type
REMARK                         _______ _______ _______ _____ _____    ______ ____
ROOT
ATOM      1  C   LIG    1       -2.952   1.170   1.464  0.00  0.00    +0.210 C 
ENDROOT
BRANCH   1   2
ATOM      2  O   LIG    1       -3.074   2.439   2.110  0.00  0.00    -0.540 OA
ATOM      3  H   LIG    1       -3.707   3.035   1.688  0.00  0.00    +0.380 HD
ENDBRANCH   1   2
BRANCH   1   4
ATOM      4  C   LIG    1       -4.310   0.464   1.468  0.00  0.00    +0.180 C 
BRANCH   4   5
ATOM      5  O   LIG    1       -4.689   0.168   2.814  0.00  0.00    -0.300 OA
BRANCH   5   9
ATOM      6  C   LIG    1       -8.299  -1.748   3.364  0.00  0.00    -0.220 A 
ATOM      7  C   LIG    1       -7.504  -1.415   4.468  0.00  0.00    +0.120 A 
ATOM      8  C   LIG    1       -6.304  -0.779   4.280  0.00  0.00    -0.020 A 
ATOM      9  C   LIG    1       -5.876  -0.462   2.995  0.00  0.00    +0.160 A 
ATOM     10  C   LIG    1       -6.664  -0.785   1.895  0.00  0.00    -0.100 A 
ATOM     11  C   LIG    1       -7.863  -1.427   2.072  0.00  0.00    +0.110 A 
BRANCH   6  13
ATOM     12  C   LIG    1      -10.437  -2.786   2.369  0.00  0.00    +0.070 C 
ATOM     13  C   LIG    1       -9.584  -2.430   3.560  0.00  0.00    +0.400 C 
ATOM     14  O   LIG    1       -9.959  -2.707   4.679  0.00  0.00    -0.460 OA
ENDBRANCH   6  13
ENDBRANCH   5   9
ENDBRANCH   4   5
ENDBRANCH   1   4
BRANCH   1  15
ATOM     15  C   LIG    1       -2.488   1.374   0.021  0.00  0.00    +0.300 C 
BRANCH  15  16
ATOM     16  N   LIG    1       -1.137   1.941   0.018  0.00  0.00    -0.570 N 
ATOM     17  C   LIG    1       -0.014   1.211   0.009  0.00  0.00    +0.700 C 
ATOM     18  N   LIG    1        1.096   1.976   0.002  0.00  0.00    -0.720 N 
ATOM     19  H   LIG    1        2.015   1.668  -0.008  0.00  0.00    +0.440 HD
ATOM     20  C   LIG    1        0.635   3.366   0.014  0.00  0.00    +0.120 C 
ATOM     21  C   LIG    1        1.124   4.123  -1.228  0.00  0.00    +0.050 C 
ATOM     22  C   LIG    1        1.382   5.563  -0.711  0.00  0.00    +0.040 C 
ATOM     23  C   LIG    1        1.956   5.322   0.708  0.00  0.00    +0.030 C 
ATOM     24  C   LIG    1        1.152   4.117   1.243  0.00  0.00    +0.050 C 
ATOM     25  O   LIG    1        0.002  -0.004   0.002  0.00  0.00    -0.540 OA
ATOM     26  C   LIG    1       -0.869   3.265   0.028  0.00  0.00    +0.540 C 
ATOM     27  O   LIG    1       -1.668   4.177   0.040  0.00  0.00    -0.450 OA
ENDBRANCH  15  16
ENDBRANCH   1  15
TORSDOF 7
