REMARK  Name = ZINCpk00000KfLwo.0
REMARK                            x       y       z     vdW  Elec       q    Type
REMARK                         _______ _______ _______ _____ _____    ______ ____
ROOT
ATOM      1  C   LIG    1       -2.881  -0.771   3.067  0.00  0.00    +0.210 C 
ENDROOT
BRANCH   1   2
ATOM      2  N   LIG    1       -2.131  -1.975   3.449  0.00  0.00    -0.520 NA
ATOM      3  C   LIG    1       -2.476  -2.400   4.811  0.00  0.00    +0.180 C 
ATOM      4  C   LIG    1       -1.574  -3.564   5.227  0.00  0.00    +0.030 C 
ATOM      5  C   LIG    1       -1.762  -4.725   4.247  0.00  0.00    +0.270 C 
ATOM      6  C   LIG    1       -1.444  -4.243   2.829  0.00  0.00    +0.030 C 
ATOM      7  C   LIG    1       -2.349  -3.059   2.482  0.00  0.00    +0.180 C 
BRANCH   5   8
ATOM      8  N   LIG    1       -0.859  -5.821   4.606  0.00  0.00    -0.630 N 
ATOM      9  C   LIG    1       -1.275  -7.184   4.971  0.00  0.00    +0.250 C 
ATOM     10  C   LIG    1        0.054  -7.914   5.245  0.00  0.00    +0.250 C 
ATOM     11  N   LIG    1        1.077  -6.883   5.014  0.00  0.00    -0.750 N 
ATOM     12  H   LIG    1        2.034  -7.011   5.104  0.00  0.00    +0.430 HD
ATOM     13  C   LIG    1        0.477  -5.740   4.659  0.00  0.00    +0.700 C 
ATOM     14  O   LIG    1        1.090  -4.720   4.407  0.00  0.00    -0.570 OA
ENDBRANCH   5   8
ENDBRANCH   1   2
BRANCH   1  16
ATOM     15  N   LIG    1       -2.961   0.796   1.155  0.00  0.00    -0.620 N 
ATOM     16  C   LIG    1       -2.345  -0.237   1.764  0.00  0.00    +0.510 C 
ATOM     17  O   LIG    1       -1.360  -0.736   1.263  0.00  0.00    -0.510 OA
ATOM     18  C   LIG    1       -4.208   1.333   1.705  0.00  0.00    +0.280 C 
BRANCH  15  19
ATOM     19  C   LIG    1       -2.383   1.381  -0.058  0.00  0.00    +0.350 C 
BRANCH  19  26
ATOM     20  C   LIG    1       -1.057   2.919  -2.113  0.00  0.00    +0.090 C 
ATOM     21  C   LIG    1       -0.777   3.205  -0.660  0.00  0.00    -0.080 A 
ATOM     22  C   LIG    1        0.109   4.206  -0.310  0.00  0.00    +0.000 A 
ATOM     23  C   LIG    1        0.365   4.468   1.023  0.00  0.00    +0.000 A 
ATOM     24  C   LIG    1       -0.265   3.728   2.006  0.00  0.00    +0.000 A 
ATOM     25  C   LIG    1       -1.152   2.727   1.656  0.00  0.00    +0.020 A 
ATOM     26  C   LIG    1       -1.412   2.469   0.324  0.00  0.00    -0.100 A 
ENDBRANCH  19  26
ENDBRANCH  15  19
ENDBRANCH   1  16
TORSDOF 5
