REMARK  Name = ZINCkj000005k1h6.0
REMARK                            x       y       z     vdW  Elec       q    Type
REMARK                         _______ _______ _______ _____ _____    ______ ____
ROOT
ATOM      1  N   LIG    1       -1.191   1.867   0.018  0.00  0.00    -0.720 N 
ATOM      2  H   LIG    1       -1.204   2.837   0.023  0.00  0.00    +0.410 HD
ATOM      3  C   LIG    1       -0.014   1.209   0.009  0.00  0.00    +0.510 C 
ATOM      4  O   LIG    1        0.002  -0.004   0.002  0.00  0.00    -0.540 OA
ENDROOT
BRANCH   1   5
ATOM      5  C   LIG    1       -2.449   1.117   0.020  0.00  0.00    +0.250 C 
BRANCH   5   7
ATOM      6  C   LIG    1       -3.562   2.983  -1.214  0.00  0.00    +0.070 C 
ATOM      7  C   LIG    1       -3.626   2.095   0.031  0.00  0.00    +0.170 C 
BRANCH   7   8
ATOM      8  C   LIG    1       -4.920   1.324   0.033  0.00  0.00    -0.130 A 
ATOM      9  C   LIG    1       -4.988   0.085  -0.577  0.00  0.00    +0.010 A 
ATOM     10  C   LIG    1       -6.174  -0.624  -0.571  0.00  0.00    +0.010 A 
ATOM     11  C   LIG    1       -7.296  -0.090   0.036  0.00  0.00    +0.020 A 
ATOM     12  C   LIG    1       -7.229   1.151   0.641  0.00  0.00    +0.010 A 
ATOM     13  C   LIG    1       -6.042   1.858   0.639  0.00  0.00    +0.030 A 
ENDBRANCH   7   8
BRANCH   7  14
ATOM     14  O   LIG    1       -3.555   2.911   1.202  0.00  0.00    -0.550 OA
ATOM     15  H   LIG    1       -3.590   2.414   2.030  0.00  0.00    +0.380 HD
ENDBRANCH   7  14
ENDBRANCH   5   7
ENDBRANCH   1   5
BRANCH   3  16
ATOM     16  C   LIG    1        1.280   1.980   0.001  0.00  0.00    +0.070 C 
BRANCH  16  17
ATOM     17  C   LIG    1        2.457   1.002  -0.016  0.00  0.00    +0.060 C 
ATOM     18  C   LIG    1        2.512   0.223   1.278  0.00  0.00    +0.090 C 
ATOM     19  C   LIG    1        3.732   0.159   1.736  0.00  0.00    -0.100 C 
ATOM     20  C   LIG    1        4.695   0.884   0.824  0.00  0.00    +0.210 C 
ATOM     21  C   LIG    1        3.797   1.771  -0.069  0.00  0.00    +0.070 C 
BRANCH  20  22
ATOM     22  N   LIG    1        5.616   1.716   1.610  0.00  0.00    -0.630 N 
ATOM     23  H   LIG    1        5.087   2.379   2.156  0.00  0.00    +0.430 HD
ATOM     24  H   LIG    1        6.236   2.212   0.987  0.00  0.00    +0.440 HD
ATOM     25  H   LIG    1        6.157   1.128   2.226  0.00  0.00    +0.440 HD
ENDBRANCH  20  22
ENDBRANCH  16  17
ENDBRANCH   3  16
TORSDOF 7
