REMARK  Name = ZINCqH0000005aFt.0
REMARK                            x       y       z     vdW  Elec       q    Type
REMARK                         _______ _______ _______ _____ _____    ______ ____
ROOT
ATOM      1  C   LIG    1        1.103  -0.704  -0.661  0.00  0.00    +0.550 C 
ATOM      2  N   LIG    1        0.629  -1.968  -1.237  0.00  0.00    -0.750 N 
ATOM      3  H   LIG    1        0.906  -2.239  -2.126  0.00  0.00    +0.410 HD
ATOM      4  C   LIG    1       -0.224  -2.768  -0.486  0.00  0.00    +0.240 A 
ATOM      5  C   LIG    1       -0.253  -4.144  -0.636  0.00  0.00    -0.060 A 
ATOM      6  C   LIG    1       -1.129  -4.896   0.123  0.00  0.00    +0.080 A 
ATOM      7  C   LIG    1       -1.979  -4.285   1.031  0.00  0.00    -0.040 A 
ATOM      8  C   LIG    1       -1.958  -2.915   1.197  0.00  0.00    +0.110 A 
ATOM      9  C   LIG    1       -1.075  -2.145   0.444  0.00  0.00    -0.200 A 
ATOM     10  C   LIG    1       -0.991  -0.683   0.610  0.00  0.00    +0.580 C 
ATOM     11  O   LIG    1       -1.813  -0.093   1.286  0.00  0.00    -0.530 OA
ATOM     12  N   LIG    1        0.002  -0.004   0.002  0.00  0.00    -0.600 N 
ENDROOT
BRANCH   1  16
ATOM     13  C   LIG    1        4.178  -1.526   2.191  0.00  0.00    +0.220 A 
ATOM     14  C   LIG    1        3.986  -2.377   1.110  0.00  0.00    -0.080 A 
ATOM     15  C   LIG    1        2.991  -2.108   0.191  0.00  0.00    +0.080 A 
ATOM     16  C   LIG    1        2.187  -0.994   0.345  0.00  0.00    -0.180 A 
ATOM     17  C   LIG    1        2.380  -0.141   1.417  0.00  0.00    +0.070 A 
ATOM     18  C   LIG    1        3.369  -0.407   2.343  0.00  0.00    -0.080 A 
BRANCH  13  20
ATOM     19  C   LIG    1        6.035  -2.975   2.962  0.00  0.00    +0.280 C 
ATOM     20  N   LIG    1        5.183  -1.795   3.124  0.00  0.00    -0.630 N 
BRANCH  20  21
ATOM     21  C   LIG    1        5.384  -0.896   4.263  0.00  0.00    +0.310 C 
BRANCH  21  22
ATOM     22  C   LIG    1        4.523  -1.362   5.439  0.00  0.00    +0.170 C 
BRANCH  22  23
ATOM     23  C   LIG    1        4.726  -0.459   6.583  0.00  0.00    +0.200 C 
ATOM     24  N   LIG    1        4.882   0.238   7.467  0.00  0.00    -0.430 NA
ENDBRANCH  22  23
ENDBRANCH  21  22
ENDBRANCH  20  21
ENDBRANCH  13  20
ENDBRANCH   1  16
BRANCH  12  25
ATOM     25  C   LIG    1       -0.018   1.461   0.010  0.00  0.00    +0.190 C 
ATOM     26  C   LIG    1       -1.329   2.152  -0.369  0.00  0.00    +0.060 C 
ATOM     27  C   LIG    1       -0.145   2.173  -1.338  0.00  0.00    +0.030 C 
ENDBRANCH  12  25
TORSDOF 6
