REMARK  Name = ZINCqH0000038RGj.0
REMARK                            x       y       z     vdW  Elec       q    Type
REMARK                         _______ _______ _______ _____ _____    ______ ____
ROOT
ATOM      1  C   LIG    1       -2.159   4.287   0.490  0.00  0.00    +0.550 C 
ATOM      2  N   LIG    1       -3.428   3.907   0.242  0.00  0.00    -0.720 N 
ATOM      3  H   LIG    1       -3.623   2.985   0.014  0.00  0.00    +0.410 HD
ATOM      4  O   LIG    1       -1.915   5.443   0.776  0.00  0.00    -0.480 OA
ENDROOT
BRANCH   1  11
ATOM      5  C   LIG    1        3.250   0.272   0.312  0.00  0.00    +0.350 C 
ATOM      6  N   LIG    1        1.796   0.321   0.135  0.00  0.00    -0.540 N 
ATOM      7  C   LIG    1        1.009  -0.719  -0.197  0.00  0.00    +0.680 A 
ATOM      8  N   LIG    1       -0.272  -0.312  -0.274  0.00  0.00    -0.540 N 
ATOM      9  C   LIG    1       -0.317   1.050   0.019  0.00  0.00    +0.100 A 
ATOM     10  C   LIG    1       -1.346   1.969   0.092  0.00  0.00    +0.080 A 
ATOM     11  C   LIG    1       -1.065   3.299   0.416  0.00  0.00    -0.110 A 
ATOM     12  C   LIG    1        0.252   3.692   0.674  0.00  0.00    -0.030 A 
ATOM     13  C   LIG    1        1.275   2.771   0.605  0.00  0.00    +0.070 A 
ATOM     14 BR   LIG    1        0.631   5.491   1.118  0.00  0.00    +0.010 Br
ATOM     15  C   LIG    1       -1.422  -1.156  -0.610  0.00  0.00    +0.350 C 
ATOM     16  O   LIG    1        1.396  -1.855  -0.395  0.00  0.00    -0.540 OA
ATOM     17  C   LIG    1        0.999   1.449   0.279  0.00  0.00    +0.130 A 
ENDBRANCH   1  11
BRANCH   2  18
ATOM     18  C   LIG    1       -4.514   4.888   0.316  0.00  0.00    +0.250 C 
BRANCH  18  19
ATOM     19  C   LIG    1       -4.990   5.014   1.765  0.00  0.00    +0.430 C 
ATOM     20  F   LIG    1       -5.452   3.772   2.213  0.00  0.00    -0.180 F 
ATOM     21  F   LIG    1       -6.027   5.950   1.836  0.00  0.00    -0.180 F 
ATOM     22  F   LIG    1       -3.926   5.434   2.571  0.00  0.00    -0.170 F 
ENDBRANCH  18  19
BRANCH  18  23
ATOM     23  C   LIG    1       -5.677   4.429  -0.565  0.00  0.00    +0.070 C 
BRANCH  23  24
ATOM     24  C   LIG    1       -5.250   4.467  -2.034  0.00  0.00    -0.060 C 
ATOM     25  C   LIG    1       -4.721   5.862  -2.375  0.00  0.00    +0.030 C 
ATOM     26  C   LIG    1       -6.453   4.146  -2.923  0.00  0.00    +0.040 C 
ATOM     27  C   LIG    1       -4.149   3.432  -2.272  0.00  0.00    +0.020 C 
ENDBRANCH  23  24
ENDBRANCH  18  23
ENDBRANCH   2  18
TORSDOF 5
