REMARK  Name = ZINCqH0000007iqP.0
REMARK                            x       y       z     vdW  Elec       q    Type
REMARK                         _______ _______ _______ _____ _____    ______ ____
ROOT
ATOM      1  C   LIG    1        2.385   1.414   0.001  0.00  0.00    +0.120 A 
ATOM      2  C   LIG    1        2.393   0.042  -0.186  0.00  0.00    -0.040 A 
ATOM      3  C   LIG    1        1.205  -0.665  -0.183  0.00  0.00    +0.030 A 
ATOM      4  C   LIG    1        0.001  -0.002   0.007  0.00  0.00    +0.120 A 
ATOM      5  C   LIG    1       -0.013   1.373   0.195  0.00  0.00    +0.070 A 
ATOM      6  C   LIG    1        1.178   2.083   0.193  0.00  0.00    +0.120 A 
ENDROOT
BRANCH   6   7
ATOM      7  N   LIG    1        1.168   3.471   0.381  0.00  0.00    -0.550 N 
ATOM      8  C   LIG    1        1.268   3.976   1.745  0.00  0.00    +0.270 C 
ATOM      9  C   LIG    1        1.711   5.440   1.743  0.00  0.00    +0.040 C 
ATOM     10  C   LIG    1        0.809   6.224   0.782  0.00  0.00    +0.030 C 
ATOM     11  C   LIG    1        1.093   5.749  -0.645  0.00  0.00    +0.070 C 
ATOM     12  C   LIG    1        1.072   4.248  -0.698  0.00  0.00    +0.520 C 
ATOM     13  O   LIG    1        0.958   3.714  -1.782  0.00  0.00    -0.540 OA
ENDBRANCH   6   7
BRANCH   4  14
ATOM     14  N   LIG    1       -1.202  -0.721   0.009  0.00  0.00    -0.670 N 
ATOM     15  H   LIG    1       -1.225  -1.626   0.356  0.00  0.00    +0.410 HD
ATOM     16  C   LIG    1       -2.326  -0.154  -0.471  0.00  0.00    +0.510 C 
ATOM     17  O   LIG    1       -2.279   0.941  -0.991  0.00  0.00    -0.510 OA
BRANCH  16  18
ATOM     18  C   LIG    1       -3.642  -0.880  -0.361  0.00  0.00    +0.070 C 
BRANCH  18  19
ATOM     19  C   LIG    1       -4.750  -0.024  -0.977  0.00  0.00    +0.090 C 
BRANCH  19  20
ATOM     20  C   LIG    1       -6.066  -0.750  -0.867  0.00  0.00    -0.090 A 
ATOM     21  C   LIG    1       -6.478  -1.593  -1.883  0.00  0.00    +0.000 A 
ATOM     22  C   LIG    1       -7.683  -2.262  -1.779  0.00  0.00    +0.000 A 
ATOM     23  C   LIG    1       -8.481  -2.081  -0.665  0.00  0.00    +0.000 A 
ATOM     24  C   LIG    1       -8.072  -1.234   0.348  0.00  0.00    +0.000 A 
ATOM     25  C   LIG    1       -6.864  -0.569   0.247  0.00  0.00    +0.000 A 
ENDBRANCH  19  20
ENDBRANCH  18  19
ENDBRANCH  16  18
ENDBRANCH   4  14
BRANCH   1  27
ATOM     26  C   LIG    1        4.754   1.358  -0.205  0.00  0.00    +0.250 C 
ATOM     27  O   LIG    1        3.555   2.108  -0.003  0.00  0.00    -0.310 OA
ENDBRANCH   1  27
TORSDOF 6
