REMARK  Name = ZINCvU00000004Md.0
REMARK                            x       y       z     vdW  Elec       q    Type
REMARK                         _______ _______ _______ _____ _____    ______ ____
ROOT
ATOM      1  S   LIG    1        5.688  -1.142   2.288  0.00  0.00    +0.150 S 
ENDROOT
BRANCH   1   5
ATOM      2  C   LIG    1        9.091   0.655   2.758  0.00  0.00    +0.160 A 
ATOM      3  N   LIG    1        8.368   1.594   2.223  0.00  0.00    -0.240 NA
ATOM      4  N   LIG    1        7.183   1.148   1.994  0.00  0.00    -0.280 NA
ATOM      5  C   LIG    1        7.106  -0.101   2.387  0.00  0.00    +0.130 A 
ATOM      6  O   LIG    1        8.313  -0.440   2.877  0.00  0.00    -0.200 OA
BRANCH   2   7
ATOM      7  C   LIG    1       10.535   0.770   3.172  0.00  0.00    +0.380 C 
BRANCH   7   8
ATOM      8  O   LIG    1       10.608   1.211   4.530  0.00  0.00    -0.310 OA
BRANCH   8  14
ATOM      9  C   LIG    1       15.454   0.971   4.003  0.00  0.00    +0.090 C 
ATOM     10  C   LIG    1       14.233   1.260   4.837  0.00  0.00    -0.050 A 
ATOM     11  C   LIG    1       14.374   1.685   6.145  0.00  0.00    -0.020 A 
ATOM     12  C   LIG    1       13.255   1.950   6.913  0.00  0.00    +0.050 A 
ATOM     13  C   LIG    1       11.993   1.792   6.374  0.00  0.00    -0.110 A 
ATOM     14  C   LIG    1       11.849   1.367   5.062  0.00  0.00    +0.130 A 
ATOM     15  C   LIG    1       10.774   2.081   7.212  0.00  0.00    +0.100 C 
ATOM     16  C   LIG    1       12.973   1.096   4.295  0.00  0.00    -0.080 A 
ENDBRANCH   8  14
ENDBRANCH   7   8
ENDBRANCH   2   7
ENDBRANCH   1   5
BRANCH   1  17
ATOM     17  C   LIG    1        4.506   0.006   1.540  0.00  0.00    +0.050 C 
BRANCH  17  18
ATOM     18  C   LIG    1        3.149  -0.645   1.467  0.00  0.00    +0.550 C 
ATOM     19  N   LIG    1        2.043   0.113   1.334  0.00  0.00    -0.600 N 
ATOM     20  C   LIG    1        0.714  -0.508   1.262  0.00  0.00    +0.280 C 
ATOM     21  C   LIG    1        0.002  -0.004   0.002  0.00  0.00    +0.010 C 
ATOM     22  C   LIG    1       -0.019   1.526   0.010  0.00  0.00    +0.020 C 
ATOM     23  C   LIG    1        1.417   2.058  -0.000  0.00  0.00    +0.020 C 
ATOM     24  C   LIG    1        2.144   1.577   1.259  0.00  0.00    +0.270 C 
ATOM     25  O   LIG    1        3.053  -1.853   1.528  0.00  0.00    -0.520 OA
ENDBRANCH  17  18
BRANCH  17  26
ATOM     26  C   LIG    1        4.966   0.366   0.150  0.00  0.00    -0.100 A 
ATOM     27  C   LIG    1        5.126  -0.622  -0.802  0.00  0.00    +0.040 A 
ATOM     28  C   LIG    1        5.544  -0.292  -2.078  0.00  0.00    +0.010 A 
ATOM     29  C   LIG    1        5.809   1.026  -2.398  0.00  0.00    +0.020 A 
ATOM     30  C   LIG    1        5.654   2.015  -1.444  0.00  0.00    +0.010 A 
ATOM     31  C   LIG    1        5.232   1.685  -0.170  0.00  0.00    +0.060 A 
ENDBRANCH  17  26
ENDBRANCH   1  17
TORSDOF 7
