REMARK  Name = ZINCrD000000DbKQ.2
REMARK                            x       y       z     vdW  Elec       q    Type
REMARK                         _______ _______ _______ _____ _____    ______ ____
ROOT
ATOM      1  N   LIG    1        1.389   1.989  -0.001  0.00  0.00    -0.500 NA
ATOM      2  C   LIG    1        2.176   0.880   0.598  0.00  0.00    +0.170 C 
ATOM      3  C   LIG    1        1.500  -0.388   0.018  0.00  0.00    +0.030 C 
ATOM      4  C   LIG    1        0.002  -0.004   0.002  0.00  0.00    +0.020 C 
ATOM      5  C   LIG    1       -0.019   1.536   0.011  0.00  0.00    +0.130 C 
ENDROOT
BRANCH   1   6
ATOM      6  C   LIG    1        1.550   3.226   0.775  0.00  0.00    +0.160 C 
BRANCH   6   7
ATOM      7  C   LIG    1        3.040   3.528   0.951  0.00  0.00    +0.310 C 
BRANCH   7  18
ATOM      8  O   LIG    1        3.203   6.019  -0.132  0.00  0.00    -0.500 OA
ATOM      9  C   LIG    1        3.270   5.951   1.081  0.00  0.00    +0.550 A 
ATOM     10  C   LIG    1        3.426   7.158   1.907  0.00  0.00    -0.200 A 
ATOM     11  C   LIG    1        3.503   8.430   1.345  0.00  0.00    +0.100 A 
ATOM     12  C   LIG    1        3.655   9.527   2.166  0.00  0.00    -0.010 A 
ATOM     13  C   LIG    1        3.730   9.373   3.543  0.00  0.00    +0.070 A 
ATOM     14  C   LIG    1        3.655   8.124   4.119  0.00  0.00    +0.030 A 
ATOM     15  C   LIG    1        3.502   6.997   3.308  0.00  0.00    +0.150 A 
ATOM     16  N   LIG    1        3.425   5.748   3.833  0.00  0.00    -0.520 NA
ATOM     17  C   LIG    1        3.283   4.701   3.079  0.00  0.00    +0.570 A 
ATOM     18  N   LIG    1        3.200   4.762   1.724  0.00  0.00    -0.550 N 
ENDBRANCH   7  18
ENDBRANCH   6   7
ENDBRANCH   1   6
BRANCH   5  19
ATOM     19  C   LIG    1       -0.743   2.054  -1.234  0.00  0.00    +0.100 C 
BRANCH  19  20
ATOM     20  C   LIG    1       -0.834   3.557  -1.172  0.00  0.00    -0.090 A 
ATOM     21  C   LIG    1       -1.971   4.160  -0.670  0.00  0.00    +0.010 A 
ATOM     22  C   LIG    1       -2.053   5.541  -0.608  0.00  0.00    +0.090 A 
ATOM     23  C   LIG    1       -1.000   6.317  -1.061  0.00  0.00    +0.010 A 
ATOM     24  C   LIG    1        0.136   5.714  -1.568  0.00  0.00    +0.030 A 
ATOM     25  F   LIG    1       -3.162   6.131  -0.112  0.00  0.00    -0.140 F 
ATOM     26  C   LIG    1        0.219   4.334  -1.625  0.00  0.00    +0.110 A 
ATOM     27  F   LIG    1        1.329   3.744  -2.121  0.00  0.00    -0.110 F 
ENDBRANCH  19  20
ENDBRANCH   5  19
TORSDOF 5
