REMARK  Name = ZINCvU0000000BqF.0
REMARK                            x       y       z     vdW  Elec       q    Type
REMARK                         _______ _______ _______ _____ _____    ______ ____
ROOT
ATOM      1  N   LIG    1        6.715   0.664  -2.555  0.00  0.00    -0.480 N 
ATOM      2  C   LIG    1        8.056   0.735  -2.392  0.00  0.00    +0.560 A 
ATOM      3  C   LIG    1        8.576   0.723  -1.018  0.00  0.00    -0.200 A 
ATOM      4  C   LIG    1        9.942   0.788  -0.748  0.00  0.00    +0.100 A 
ATOM      5  C   LIG    1       10.378   0.774   0.558  0.00  0.00    +0.000 A 
ATOM      6  C   LIG    1        9.469   0.695   1.606  0.00  0.00    +0.070 A 
ATOM      7  C   LIG    1        8.116   0.629   1.363  0.00  0.00    +0.030 A 
ATOM      8  C   LIG    1        7.648   0.642   0.046  0.00  0.00    +0.160 A 
ATOM      9  N   LIG    1        6.325   0.580  -0.235  0.00  0.00    -0.520 NA
ATOM     10  O   LIG    1        8.806   0.803  -3.349  0.00  0.00    -0.490 OA
ATOM     11  C   LIG    1        5.886   0.593  -1.469  0.00  0.00    +0.380 A 
ENDROOT
BRANCH   1  17
ATOM     12  C   LIG    1        5.239  -1.798  -6.556  0.00  0.00    +0.120 C 
ATOM     13  C   LIG    1        5.453  -0.517  -5.791  0.00  0.00    -0.030 A 
ATOM     14  C   LIG    1        5.114   0.708  -6.350  0.00  0.00    -0.010 A 
ATOM     15  C   LIG    1        5.322   1.863  -5.622  0.00  0.00    +0.290 A 
ATOM     16  N   LIG    1        5.837   1.815  -4.409  0.00  0.00    -0.470 NA
ATOM     17  C   LIG    1        6.173   0.667  -3.842  0.00  0.00    +0.310 A 
ATOM     18  C   LIG    1        5.996  -0.534  -4.518  0.00  0.00    +0.010 A 
ENDBRANCH   1  17
BRANCH  11  19
ATOM     19  S   LIG    1        4.147   0.508  -1.743  0.00  0.00    +0.020 S 
BRANCH  19  20
ATOM     20  C   LIG    1        3.563   0.426  -0.032  0.00  0.00    +0.220 C 
BRANCH  20  21
ATOM     21  C   LIG    1        2.058   0.345  -0.018  0.00  0.00    -0.010 A 
ATOM     22  C   LIG    1        1.210   1.387   0.021  0.00  0.00    -0.000 A 
ATOM     23  O   LIG    1       -0.043   0.887   0.019  0.00  0.00    -0.180 OA
ATOM     24  C   LIG    1        0.053  -0.455  -0.021  0.00  0.00    +0.270 A 
ATOM     25  C   LIG    1        1.589   2.846   0.059  0.00  0.00    +0.210 C 
ATOM     26  N   LIG    1        1.327  -0.781  -0.044  0.00  0.00    -0.450 NA
BRANCH  24  27
ATOM     27  C   LIG    1       -1.075  -1.397  -0.037  0.00  0.00    -0.150 A 
ATOM     28  C   LIG    1       -2.391  -1.050  -0.013  0.00  0.00    +0.060 A 
ATOM     29  C   LIG    1       -3.263  -2.116  -0.036  0.00  0.00    +0.010 A 
ATOM     30  C   LIG    1       -2.686  -3.322  -0.079  0.00  0.00    -0.040 A 
ATOM     31  S   LIG    1       -0.936  -3.149  -0.098  0.00  0.00    +0.210 S 
ENDBRANCH  24  27
ENDBRANCH  20  21
ENDBRANCH  19  20
ENDBRANCH  11  19
TORSDOF 5
