REMARK  Name = ZINCrH000004uzO4.0
REMARK                            x       y       z     vdW  Elec       q    Type
REMARK                         _______ _______ _______ _____ _____    ______ ____
ROOT
ATOM      1  O   LIG    1       -4.432   1.394  -1.079  0.00  0.00    -0.570 OA
ATOM      2  C   LIG    1       -3.315   1.467  -1.554  0.00  0.00    +0.720 C 
ATOM      3  N   LIG    1       -2.242   1.544  -0.742  0.00  0.00    -0.630 N 
ATOM      4  C   LIG    1       -0.838   1.637  -1.182  0.00  0.00    +0.240 C 
ATOM      5  C   LIG    1       -0.013   1.086   0.008  0.00  0.00    +0.040 C 
ATOM      6  C   LIG    1       -0.816   1.624   1.221  0.00  0.00    +0.050 C 
ATOM      7  C   LIG    1       -2.277   1.550   0.727  0.00  0.00    +0.300 C 
ATOM      8  N   LIG    1       -3.151   1.470  -2.891  0.00  0.00    -0.740 N 
ATOM      9  H   LIG    1       -2.260   1.528  -3.270  0.00  0.00    +0.400 HD
ENDROOT
BRANCH   7  10
ATOM     10  C   LIG    1       -3.049   2.748   1.216  0.00  0.00    -0.080 A 
ATOM     11  C   LIG    1       -3.262   3.823   0.374  0.00  0.00    +0.030 A 
ATOM     12  C   LIG    1       -3.970   4.924   0.820  0.00  0.00    +0.020 A 
ATOM     13  C   LIG    1       -4.466   4.954   2.109  0.00  0.00    +0.020 A 
ATOM     14  C   LIG    1       -4.255   3.879   2.960  0.00  0.00    +0.050 A 
ATOM     15  O   LIG    1       -4.742   3.926   4.230  0.00  0.00    -0.310 OA
ATOM     16  C   LIG    1       -4.846   2.675   4.925  0.00  0.00    +0.220 C 
ATOM     17  C   LIG    1       -3.530   1.913   4.728  0.00  0.00    +0.220 C 
ATOM     18  O   LIG    1       -3.341   1.699   3.325  0.00  0.00    -0.300 OA
ATOM     19  C   LIG    1       -3.549   2.769   2.510  0.00  0.00    +0.060 A 
ENDBRANCH   7  10
BRANCH   8  20
ATOM     20  C   LIG    1       -4.318   1.387  -3.773  0.00  0.00    +0.350 C 
BRANCH  20  21
ATOM     21  C   LIG    1       -3.864   1.410  -5.210  0.00  0.00    -0.120 A 
ATOM     22  C   LIG    1       -3.938   2.581  -5.940  0.00  0.00    +0.050 A 
ATOM     23  C   LIG    1       -3.516   2.603  -7.258  0.00  0.00    +0.090 A 
ATOM     24  C   LIG    1       -3.031   1.449  -7.849  0.00  0.00    +0.030 A 
ATOM     25  C   LIG    1       -2.962   0.276  -7.121  0.00  0.00    +0.020 A 
ATOM     26  F   LIG    1       -3.583   3.749  -7.970  0.00  0.00    -0.130 F 
ATOM     27  C   LIG    1       -3.378   0.255  -5.801  0.00  0.00    +0.110 A 
ATOM     28  F   LIG    1       -3.311  -0.891  -5.089  0.00  0.00    -0.130 F 
ENDBRANCH  20  21
ENDBRANCH   8  20
TORSDOF 3
