REMARK  Name = ZINCrD0000070Xnt.0
REMARK                            x       y       z     vdW  Elec       q    Type
REMARK                         _______ _______ _______ _____ _____    ______ ____
ROOT
ATOM      1  C   LIG    1       -8.771   6.285   3.602  0.00  0.00    +0.210 A 
ATOM      2  C   LIG    1       -7.673   5.427   3.662  0.00  0.00    -0.020 A 
ATOM      3  C   LIG    1       -7.218   4.806   2.536  0.00  0.00    +0.110 A 
ATOM      4  C   LIG    1       -7.857   5.032   1.311  0.00  0.00    -0.170 A 
ATOM      5  C   LIG    1       -7.390   4.379   0.086  0.00  0.00    +0.030 A 
ATOM      6  C   LIG    1       -8.048   4.643  -1.073  0.00  0.00    -0.050 A 
ATOM      7  C   LIG    1       -9.156   5.516  -1.067  0.00  0.00    +0.510 A 
ATOM      8  O   LIG    1       -9.579   6.112   0.059  0.00  0.00    -0.270 OA
ATOM      9  O   LIG    1       -9.740   5.739  -2.112  0.00  0.00    -0.450 OA
ATOM     10  C   LIG    1       -8.965   5.897   1.243  0.00  0.00    +0.180 A 
ATOM     11  C   LIG    1       -9.415   6.520   2.396  0.00  0.00    +0.020 A 
ENDROOT
BRANCH   1  14
ATOM     12  C   LIG    1      -11.017   7.938   6.124  0.00  0.00    +0.120 C 
ATOM     13  C   LIG    1      -10.539   7.155   4.928  0.00  0.00    +0.510 C 
ATOM     14  N   LIG    1       -9.224   6.913   4.763  0.00  0.00    -0.680 N 
ATOM     15  H   LIG    1       -8.592   7.174   5.451  0.00  0.00    +0.420 HD
ATOM     16  O   LIG    1      -11.338   6.744   4.114  0.00  0.00    -0.510 OA
ENDBRANCH   1  14
BRANCH   5  17
ATOM     17  C   LIG    1       -6.208   3.445   0.109  0.00  0.00    +0.190 C 
BRANCH  17  18
ATOM     18  S   LIG    1       -4.682   4.407   0.261  0.00  0.00    +0.030 S 
BRANCH  18  19
ATOM     19  C   LIG    1       -3.497   3.102   0.263  0.00  0.00    +0.410 A 
ATOM     20  N   LIG    1       -3.919   1.859   0.167  0.00  0.00    -0.590 NA
ATOM     21  C   LIG    1       -3.064   0.831   0.164  0.00  0.00    +0.550 A 
ATOM     22  C   LIG    1       -1.614   1.101   0.265  0.00  0.00    -0.220 A 
ATOM     23  C   LIG    1       -1.217   2.422   0.371  0.00  0.00    +0.060 A 
ATOM     24  S   LIG    1        0.534   2.510   0.488  0.00  0.00    +0.180 S 
ATOM     25  C   LIG    1        0.692   0.765   0.400  0.00  0.00    -0.040 A 
ATOM     26  C   LIG    1       -0.489   0.186   0.292  0.00  0.00    +0.100 A 
ATOM     27  O   LIG    1       -3.475  -0.315   0.073  0.00  0.00    -0.480 OA
ATOM     28  N   LIG    1       -2.180   3.412   0.364  0.00  0.00    -0.580 N 
ATOM     29  H   LIG    1       -1.911   4.342   0.434  0.00  0.00    +0.430 HD
ENDBRANCH  18  19
ENDBRANCH  17  18
ENDBRANCH   5  17
TORSDOF 4
