REMARK  Name = ZINCpk00000xUBEI.0
REMARK                            x       y       z     vdW  Elec       q    Type
REMARK                         _______ _______ _______ _____ _____    ______ ____
ROOT
ATOM      1  N   LIG    1        1.707  -5.029  -1.194  0.00  0.00    -0.480 N 
ATOM      2  C   LIG    1        0.253  -4.763  -1.108  0.00  0.00    +0.200 C 
ATOM      3  C   LIG    1       -0.148  -4.102   0.187  0.00  0.00    +0.050 C 
ATOM      4  C   LIG    1       -0.141  -2.569  -0.009  0.00  0.00    +0.200 C 
ATOM      5  N   LIG    1        1.164  -2.058  -0.020  0.00  0.00    -0.470 N 
ATOM      6  C   LIG    1        2.018  -2.576  -1.107  0.00  0.00    +0.200 C 
ATOM      7  C   LIG    1        2.546  -3.924  -0.686  0.00  0.00    +0.260 C 
ENDROOT
BRANCH   1  11
ATOM      8  C   LIG    1        2.759  -6.060  -5.034  0.00  0.00    -0.070 A 
ATOM      9  C   LIG    1        3.754  -6.014  -4.067  0.00  0.00    +0.090 A 
ATOM     10  C   LIG    1        3.404  -5.663  -2.775  0.00  0.00    -0.050 A 
ATOM     11  C   LIG    1        2.073  -5.379  -2.489  0.00  0.00    +0.310 A 
ATOM     12  N   LIG    1        1.153  -5.434  -3.439  0.00  0.00    -0.520 NA
ATOM     13  C   LIG    1        1.458  -5.761  -4.680  0.00  0.00    +0.290 A 
ENDBRANCH   1  11
BRANCH   5  14
ATOM     14  C   LIG    1        1.154  -0.672  -0.013  0.00  0.00    +0.380 A 
ATOM     15  C   LIG    1        2.349   0.042  -0.020  0.00  0.00    -0.110 A 
ATOM     16  C   LIG    1        2.285   1.432  -0.012  0.00  0.00    +0.370 A 
ATOM     17  N   LIG    1        1.093   2.025   0.003  0.00  0.00    -0.570 NA
ATOM     18  C   LIG    1       -0.016   1.313   0.009  0.00  0.00    +0.550 A 
ATOM     19  N   LIG    1        0.002  -0.004   0.002  0.00  0.00    -0.570 NA
BRANCH  16  20
ATOM     20  N   LIG    1        3.447   2.189  -0.019  0.00  0.00    -0.470 N 
ATOM     21  C   LIG    1        4.315   1.833   1.113  0.00  0.00    +0.180 C 
ATOM     22  C   LIG    1        5.609   2.648   1.032  0.00  0.00    +0.230 C 
ATOM     23  O   LIG    1        5.288   4.041   1.012  0.00  0.00    -0.380 OA
ATOM     24  C   LIG    1        4.445   4.423  -0.078  0.00  0.00    +0.230 C 
ATOM     25  C   LIG    1        3.139   3.626  -0.009  0.00  0.00    +0.190 C 
ENDBRANCH  16  20
ENDBRANCH   5  14
TORSDOF 3
