REMARK  Name = ZINCpk000000mZg3.0
REMARK                            x       y       z     vdW  Elec       q    Type
REMARK                         _______ _______ _______ _____ _____    ______ ____
ROOT
ATOM      1  N   LIG    1       -3.690   1.116   0.033  0.00  0.00    -0.610 N 
ATOM      2  C   LIG    1       -2.412   0.691   0.029  0.00  0.00    +0.510 C 
ATOM      3  O   LIG    1       -2.168  -0.497   0.028  0.00  0.00    -0.530 OA
ATOM      4  C   LIG    1       -3.985   2.551   0.034  0.00  0.00    +0.300 C 
ENDROOT
BRANCH   1   5
ATOM      5  C   LIG    1       -4.786   0.144   0.035  0.00  0.00    +0.350 C 
BRANCH   5  10
ATOM      6  C   LIG    1       -6.465   0.243   3.420  0.00  0.00    +0.140 A 
ATOM      7  C   LIG    1       -5.836  -0.811   4.069  0.00  0.00    +0.030 A 
ATOM      8  C   LIG    1       -4.872  -1.550   3.410  0.00  0.00    +0.030 A 
ATOM      9  C   LIG    1       -4.537  -1.243   2.104  0.00  0.00    +0.020 A 
ATOM     10  C   LIG    1       -5.158  -0.190   1.457  0.00  0.00    -0.100 A 
ATOM     11  C   LIG    1       -6.122   0.552   2.110  0.00  0.00    -0.010 A 
BRANCH   6  14
ATOM     12  C   LIG    1       -9.389   1.178   5.598  0.00  0.00    +0.110 C 
ATOM     13  C   LIG    1       -8.272   0.393   4.961  0.00  0.00    +0.510 C 
ATOM     14  N   LIG    1       -7.441   0.993   4.085  0.00  0.00    -0.680 N 
ATOM     15  H   LIG    1       -7.521   1.945   3.916  0.00  0.00    +0.410 HD
ATOM     16  O   LIG    1       -8.119  -0.778   5.236  0.00  0.00    -0.530 OA
ENDBRANCH   6  14
ENDBRANCH   5  10
ENDBRANCH   1   5
BRANCH   2  17
ATOM     17  C   LIG    1       -1.284   1.691   0.027  0.00  0.00    +0.300 C 
BRANCH  17  18
ATOM     18  N   LIG    1       -0.002   0.982   0.023  0.00  0.00    -0.710 N 
ATOM     19  H   LIG    1        0.016   0.012   0.023  0.00  0.00    +0.410 HD
ATOM     20  C   LIG    1        1.152   1.677   0.015  0.00  0.00    +0.560 C 
ATOM     21  O   LIG    1        1.130   2.892   0.015  0.00  0.00    -0.530 OA
BRANCH  20  22
ATOM     22  C   LIG    1        2.449   0.961   0.005  0.00  0.00    -0.090 A 
ATOM     23  C   LIG    1        2.497  -0.437   0.010  0.00  0.00    +0.000 A 
ATOM     24  C   LIG    1        3.728  -1.064  -0.004  0.00  0.00    +0.260 A 
ATOM     25  N   LIG    1        4.845  -0.364  -0.012  0.00  0.00    -0.470 NA
ATOM     26  C   LIG    1        4.844   0.954  -0.012  0.00  0.00    +0.270 A 
ATOM     27  C   LIG    1        3.658   1.663  -0.004  0.00  0.00    +0.040 A 
ENDBRANCH  20  22
ENDBRANCH  17  18
ENDBRANCH   2  17
TORSDOF 6
