REMARK  Name = ZINCvU00000009oB.0
REMARK                            x       y       z     vdW  Elec       q    Type
REMARK                         _______ _______ _______ _____ _____    ______ ____
ROOT
ATOM      1  N   LIG    1        2.453  -1.230  -0.028  0.00  0.00    -0.620 N 
ATOM      2  H   LIG    1        3.422  -1.184  -0.037  0.00  0.00    +0.420 HD
ATOM      3  C   LIG    1        1.835  -2.427  -0.028  0.00  0.00    +0.530 C 
ATOM      4  O   LIG    1        0.623  -2.484  -0.017  0.00  0.00    -0.480 OA
ENDROOT
BRANCH   1  12
ATOM      5  C   LIG    1       -2.098   4.961  -0.133  0.00  0.00    +0.030 C 
ATOM      6  C   LIG    1       -0.908   4.031  -0.383  0.00  0.00    -0.010 C 
ATOM      7  C   LIG    1        0.290   4.497   0.450  0.00  0.00    +0.030 C 
ATOM      8  C   LIG    1        1.538   3.731   0.007  0.00  0.00    +0.100 C 
ATOM      9  C   LIG    1        1.224   2.243   0.002  0.00  0.00    -0.040 A 
ATOM     10  C   LIG    1       -0.022   1.752   0.012  0.00  0.00    -0.240 A 
ATOM     11  S   LIG    1        0.002  -0.004   0.002  0.00  0.00    +0.320 S 
ATOM     12  C   LIG    1        1.704  -0.062  -0.015  0.00  0.00    +0.050 A 
ATOM     13  C   LIG    1        2.230   1.198  -0.013  0.00  0.00    -0.100 A 
ATOM     14  C   LIG    1       -1.277   2.603   0.034  0.00  0.00    +0.120 C 
BRANCH  13  15
ATOM     15  C   LIG    1        3.638   1.463  -0.026  0.00  0.00    +0.270 C 
ATOM     16  N   LIG    1        4.754   1.672  -0.036  0.00  0.00    -0.410 NA
ENDBRANCH  13  15
ENDBRANCH   1  12
BRANCH   3  17
ATOM     17  C   LIG    1        2.649  -3.696  -0.043  0.00  0.00    +0.130 C 
BRANCH  17  18
ATOM     18  S   LIG    1        1.536  -5.128  -0.040  0.00  0.00    +0.110 S 
BRANCH  18  19
ATOM     19  C   LIG    1        2.648  -6.494  -0.057  0.00  0.00    +0.130 A 
ATOM     20  N   LIG    1        3.961  -6.430  -0.075  0.00  0.00    -0.240 NA
ATOM     21  N   LIG    1        4.466  -7.613  -0.082  0.00  0.00    -0.240 NA
ATOM     22  C   LIG    1        3.498  -8.510  -0.077  0.00  0.00    +0.210 A 
ATOM     23  C   LIG    1        3.480  -9.920  -0.084  0.00  0.00    +0.010 A 
ATOM     24  C   LIG    1        2.285 -10.569  -0.076  0.00  0.00    +0.120 A 
ATOM     25  C   LIG    1        1.087  -9.831  -0.060  0.00  0.00    -0.190 A 
ATOM     26  C   LIG    1        1.115  -8.484  -0.053  0.00  0.00    +0.340 A 
ATOM     27 CL   LIG    1        4.966 -10.817  -0.103  0.00  0.00    +0.010 Cl
ATOM     28  N   LIG    1        2.307  -7.814  -0.061  0.00  0.00    -0.380 N 
BRANCH  25  29
ATOM     29  C   LIG    1       -0.237 -10.552  -0.051  0.00  0.00    +0.530 C 
ATOM     30  F   LIG    1       -1.213  -9.729   0.520  0.00  0.00    -0.170 F 
ATOM     31  F   LIG    1       -0.122 -11.729   0.698  0.00  0.00    -0.160 F 
ATOM     32  F   LIG    1       -0.604 -10.869  -1.363  0.00  0.00    -0.160 F 
ENDBRANCH  25  29
ENDBRANCH  18  19
ENDBRANCH  17  18
ENDBRANCH   3  17
TORSDOF 6
