REMARK  Name = ZINCbw0000001gNH.0
REMARK                            x       y       z     vdW  Elec       q    Type
REMARK                         _______ _______ _______ _____ _____    ______ ____
ROOT
ATOM      1  C   LIG    1       -2.549   1.238   0.031  0.00  0.00    +0.130 A 
ATOM      2  C   LIG    1       -1.253   1.767   0.018  0.00  0.00    -0.240 A 
ATOM      3  C   LIG    1       -0.013   1.076   0.008  0.00  0.00    +0.110 A 
ATOM      4  C   LIG    1        1.152   1.767   0.001  0.00  0.00    -0.040 A 
ATOM      5  C   LIG    1        1.168   3.162   0.008  0.00  0.00    +0.120 A 
ATOM      6  C   LIG    1        0.024   3.884   0.024  0.00  0.00    -0.100 A 
ATOM      7 BR   LIG    1        0.102   5.773   0.034  0.00  0.00    -0.030 Br
ATOM      8  C   LIG    1       -1.242   3.225   0.031  0.00  0.00    +0.200 A 
ATOM      9  N   LIG    1       -2.442   3.786   0.046  0.00  0.00    -0.500 NA
ATOM     10  S   LIG    1       -3.620   2.576   0.049  0.00  0.00    +0.330 S 
ENDROOT
BRANCH   1  11
ATOM     11  N   LIG    1       -2.897  -0.103   0.026  0.00  0.00    -0.800 N 
ATOM     12  H   LIG    1       -2.205  -0.784   0.016  0.00  0.00    +0.410 HD
ATOM     13  H   LIG    1       -3.832  -0.362   0.034  0.00  0.00    +0.420 HD
ENDBRANCH   1  11
TORSDOF 1
