REMARK  Name = ZINCrD0000075koZ.0
REMARK                            x       y       z     vdW  Elec       q    Type
REMARK                         _______ _______ _______ _____ _____    ______ ____
ROOT
ATOM      1  N   LIG    1        1.139   2.192   0.003  0.00  0.00    -0.670 N 
ATOM      2  H   LIG    1        1.980   1.712  -0.060  0.00  0.00    +0.420 HD
ATOM      3  C   LIG    1       -0.011   1.515   0.185  0.00  0.00    +0.520 C 
ATOM      4  O   LIG    1       -1.049   2.118   0.357  0.00  0.00    -0.490 OA
ENDROOT
BRANCH   1   8
ATOM      5  C   LIG    1        1.087   6.348  -0.287  0.00  0.00    -0.160 A 
ATOM      6  C   LIG    1        0.018   5.597  -0.786  0.00  0.00    +0.110 A 
ATOM      7  C   LIG    1        0.039   4.224  -0.689  0.00  0.00    +0.010 A 
ATOM      8  C   LIG    1        1.122   3.583  -0.095  0.00  0.00    +0.180 A 
ATOM      9  C   LIG    1        2.185   4.328   0.407  0.00  0.00    -0.010 A 
ATOM     10  C   LIG    1        2.173   5.701   0.308  0.00  0.00    +0.070 A 
BRANCH   5  14
ATOM     11  N   LIG    1        2.098   8.542   0.092  0.00  0.00    -0.850 N 
ATOM     12  H   LIG    1        2.086   9.510   0.025  0.00  0.00    +0.410 HD
ATOM     13  H   LIG    1        2.853   8.095   0.505  0.00  0.00    +0.400 HD
ATOM     14  C   LIG    1        1.067   7.820  -0.390  0.00  0.00    +0.560 C 
ATOM     15  O   LIG    1        0.121   8.381  -0.907  0.00  0.00    -0.540 OA
ENDBRANCH   5  14
ENDBRANCH   1   8
BRANCH   3  16
ATOM     16  C   LIG    1       -0.009   0.008   0.170  0.00  0.00    +0.270 C 
BRANCH  16  17
ATOM     17  O   LIG    1       -1.338  -0.472   0.384  0.00  0.00    -0.330 OA
BRANCH  17  18
ATOM     18  C   LIG    1       -1.511  -1.810   0.399  0.00  0.00    +0.540 C 
ATOM     19  O   LIG    1       -0.558  -2.549   0.234  0.00  0.00    -0.480 OA
BRANCH  18  20
ATOM     20  C   LIG    1       -2.803  -2.356   0.606  0.00  0.00    -0.280 A 
ATOM     21  C   LIG    1       -3.109  -3.701   0.637  0.00  0.00    +0.050 A 
ATOM     22  C   LIG    1       -4.455  -3.941   0.861  0.00  0.00    +0.000 A 
ATOM     23  C   LIG    1       -5.209  -2.848   0.996  0.00  0.00    -0.040 A 
ATOM     24  S   LIG    1       -4.275  -1.428   0.857  0.00  0.00    +0.280 S 
BRANCH  21  25
ATOM     25  C   LIG    1       -2.105  -4.775   0.454  0.00  0.00    -0.050 A 
ATOM     26  C   LIG    1       -1.230  -4.737  -0.632  0.00  0.00    +0.070 A 
ATOM     27  C   LIG    1       -0.293  -5.737  -0.793  0.00  0.00    -0.010 A 
ATOM     28  C   LIG    1       -0.228  -6.781   0.112  0.00  0.00    +0.010 A 
ATOM     29  C   LIG    1       -1.097  -6.827   1.188  0.00  0.00    -0.010 A 
ATOM     30  C   LIG    1       -2.034  -5.830   1.363  0.00  0.00    +0.030 A 
ENDBRANCH  21  25
ENDBRANCH  18  20
ENDBRANCH  17  18
ENDBRANCH  16  17
ENDBRANCH   3  16
TORSDOF 7
