REMARK  Name = ZINCc70000002u1W.0
REMARK                            x       y       z     vdW  Elec       q    Type
REMARK                         _______ _______ _______ _____ _____    ______ ____
ROOT
ATOM      1  C   LIG    1        0.002  -0.004   0.002  0.00  0.00    +0.270 C 
ENDROOT
BRANCH   1   2
ATOM      2  C   LIG    1       -0.018   1.503   0.010  0.00  0.00    +0.430 C 
ATOM      3  O   LIG    1       -1.073   2.093   0.018  0.00  0.00    -0.500 OA
BRANCH   2   4
ATOM      4  O   LIG    1        1.135   2.190   0.003  0.00  0.00    -0.360 OA
BRANCH   4   6
ATOM      5  C   LIG    1        2.445   4.242   0.002  0.00  0.00    +0.070 C 
ATOM      6  C   LIG    1        1.039   3.639   0.012  0.00  0.00    +0.200 C 
ENDBRANCH   4   6
ENDBRANCH   2   4
ENDBRANCH   1   2
BRANCH   1   7
ATOM      7  C   LIG    1        0.631  -0.513   1.301  0.00  0.00    -0.050 C 
ATOM      8  C   LIG    1       -0.259  -0.127   2.484  0.00  0.00    +0.070 C 
BRANCH   7   9
ATOM      9  C   LIG    1        0.764  -2.013   1.241  0.00  0.00    +0.360 C 
ATOM     10  O   LIG    1        0.031  -2.656   0.528  0.00  0.00    -0.430 OA
ATOM     11  C   LIG    1        1.811  -2.710   2.070  0.00  0.00    +0.070 C 
ENDBRANCH   7   9
ENDBRANCH   1   7
BRANCH   1  12
ATOM     12  O   LIG    1       -1.335  -0.498  -0.105  0.00  0.00    -0.510 OA
ATOM     13  H   LIG    1       -1.914  -0.225   0.619  0.00  0.00    +0.380 HD
ENDBRANCH   1  12
TORSDOF 6
