REMARK  Name = ZINCqH0000035GTK.0
REMARK                            x       y       z     vdW  Elec       q    Type
REMARK                         _______ _______ _______ _____ _____    ______ ____
ROOT
ATOM      1  N   LIG    1        1.596   6.364  -0.130  0.00  0.00    -0.730 N 
ATOM      2  H   LIG    1        1.997   5.981   0.665  0.00  0.00    +0.400 HD
ATOM      3  C   LIG    1        2.316   7.186  -0.920  0.00  0.00    +0.550 C 
ATOM      4  O   LIG    1        1.813   7.666  -1.917  0.00  0.00    -0.490 OA
ENDROOT
BRANCH   3   5
ATOM      5  C   LIG    1        3.714   7.502  -0.574  0.00  0.00    -0.110 A 
ATOM      6  C   LIG    1        4.293   6.963   0.565  0.00  0.00    +0.070 A 
ATOM      7  C   LIG    1        5.611   7.252   0.896  0.00  0.00    +0.010 A 
ATOM      8  C   LIG    1        6.367   8.078   0.119  0.00  0.00    +0.080 A 
ATOM      9  C   LIG    1        5.818   8.650  -1.041  0.00  0.00    -0.110 A 
ATOM     10  C   LIG    1        6.575   9.507  -1.861  0.00  0.00    +0.080 A 
ATOM     11  C   LIG    1        5.978  10.029  -2.974  0.00  0.00    -0.030 A 
ATOM     12  C   LIG    1        4.657   9.707  -3.268  0.00  0.00    +0.300 A 
ATOM     13  N   LIG    1        3.954   8.907  -2.500  0.00  0.00    -0.440 NA
ATOM     14  C   LIG    1        4.478   8.365  -1.400  0.00  0.00    +0.160 A 
ENDBRANCH   3   5
BRANCH   1  15
ATOM     15  C   LIG    1        0.207   6.051  -0.474  0.00  0.00    +0.330 C 
BRANCH  15  18
ATOM     16  C   LIG    1       -0.787   2.893   1.346  0.00  0.00    +0.120 A 
ATOM     17  C   LIG    1       -0.254   3.750   0.398  0.00  0.00    -0.020 A 
ATOM     18  C   LIG    1       -0.368   5.119   0.562  0.00  0.00    -0.090 A 
ATOM     19  C   LIG    1       -1.003   5.634   1.677  0.00  0.00    +0.030 A 
ATOM     20  C   LIG    1       -1.532   4.783   2.630  0.00  0.00    -0.010 A 
ATOM     21  C   LIG    1       -1.427   3.412   2.469  0.00  0.00    +0.080 A 
BRANCH  16  23
ATOM     22  C   LIG    1       -0.013   1.086   0.008  0.00  0.00    +0.240 C 
ATOM     23  O   LIG    1       -0.682   1.547   1.184  0.00  0.00    -0.310 OA
ENDBRANCH  16  23
BRANCH  21  24
ATOM     24  O   LIG    1       -1.946   2.574   3.405  0.00  0.00    -0.310 OA
BRANCH  24  25
ATOM     25  C   LIG    1       -2.588   3.177   4.530  0.00  0.00    +0.590 C 
ATOM     26  F   LIG    1       -3.661   3.960   4.091  0.00  0.00    -0.200 F 
ATOM     27  F   LIG    1       -1.671   3.982   5.214  0.00  0.00    -0.200 F 
ENDBRANCH  24  25
ENDBRANCH  21  24
ENDBRANCH  15  18
ENDBRANCH   1  15
TORSDOF 6
