REMARK  Name = ZINCqH0000006E0G.0
REMARK                            x       y       z     vdW  Elec       q    Type
REMARK                         _______ _______ _______ _____ _____    ______ ____
ROOT
ATOM      1  C   LIG    1        0.193   6.047  -0.446  0.00  0.00    +0.110 A 
ATOM      2  N   LIG    1        0.145   7.348  -0.397  0.00  0.00    -0.450 NA
ATOM      3  C   LIG    1        0.705   8.003  -1.388  0.00  0.00    +0.030 A 
ATOM      4  C   LIG    1        1.254   7.252  -2.347  0.00  0.00    -0.010 A 
ATOM      5  S   LIG    1        1.029   5.558  -1.917  0.00  0.00    +0.110 S 
ENDROOT
BRANCH   1   8
ATOM      6  C   LIG    1       -0.787   2.893   1.346  0.00  0.00    +0.110 A 
ATOM      7  C   LIG    1       -0.260   3.747   0.397  0.00  0.00    -0.040 A 
ATOM      8  C   LIG    1       -0.370   5.129   0.567  0.00  0.00    +0.000 A 
ATOM      9  C   LIG    1       -1.013   5.641   1.694  0.00  0.00    +0.050 A 
ATOM     10  C   LIG    1       -1.537   4.783   2.639  0.00  0.00    +0.040 A 
ATOM     11  C   LIG    1       -1.433   3.410   2.467  0.00  0.00    +0.100 A 
BRANCH   6  13
ATOM     12  C   LIG    1       -0.013   1.086   0.008  0.00  0.00    +0.250 C 
ATOM     13  O   LIG    1       -0.682   1.547   1.184  0.00  0.00    -0.300 OA
ENDBRANCH   6  13
BRANCH  11  14
ATOM     14  O   LIG    1       -1.956   2.569   3.398  0.00  0.00    -0.480 OA
ATOM     15  H   LIG    1       -1.341   2.332   4.105  0.00  0.00    +0.390 HD
ENDBRANCH  11  14
ENDBRANCH   1   8
BRANCH   3  16
ATOM     16  C   LIG    1        0.721   9.509  -1.443  0.00  0.00    +0.410 C 
BRANCH  16  17
ATOM     17  N   LIG    1       -0.531   9.989  -2.033  0.00  0.00    -0.490 N 
ATOM     18  C   LIG    1       -1.594  10.254  -1.229  0.00  0.00    +0.360 A 
ATOM     19  C   LIG    1       -2.761  10.699  -1.751  0.00  0.00    -0.090 A 
ATOM     20  C   LIG    1       -2.881  10.890  -3.135  0.00  0.00    +0.210 A 
ATOM     21  C   LIG    1       -1.813  10.623  -3.940  0.00  0.00    -0.330 A 
ATOM     22  C   LIG    1       -0.614  10.168  -3.365  0.00  0.00    +0.540 A 
ATOM     23  O   LIG    1        0.351   9.931  -4.073  0.00  0.00    -0.530 OA
BRANCH  21  24
ATOM     24  C   LIG    1       -1.915  10.821  -5.431  0.00  0.00    +0.530 C 
ATOM     25  F   LIG    1       -1.681   9.604  -6.080  0.00  0.00    -0.170 F 
ATOM     26  F   LIG    1       -0.964  11.760  -5.843  0.00  0.00    -0.170 F 
ATOM     27  F   LIG    1       -3.196  11.282  -5.753  0.00  0.00    -0.180 F 
ENDBRANCH  21  24
ENDBRANCH  16  17
ENDBRANCH   3  16
TORSDOF 6
