REMARK  Name = ZINCpe00000MJJRJ.0
REMARK                            x       y       z     vdW  Elec       q    Type
REMARK                         _______ _______ _______ _____ _____    ______ ____
ROOT
ATOM      1  C   LIG    1       -1.880   2.309  -0.724  0.00  0.00    +0.160 C 
ATOM      2  C   LIG    1       -1.552   2.804   0.708  0.00  0.00    +0.070 C 
ATOM      3  C   LIG    1       -0.753   1.593   1.264  0.00  0.00    -0.030 C 
ATOM      4  C   LIG    1       -0.013   1.086   0.008  0.00  0.00    +0.220 C 
ATOM      5  O   LIG    1       -0.722   1.569  -1.139  0.00  0.00    -0.370 OA
ENDROOT
BRANCH   3   6
ATOM      6  C   LIG    1        0.225   2.034   2.322  0.00  0.00    +0.530 C 
ATOM      7  N   LIG    1        1.095   1.148   2.847  0.00  0.00    -0.730 N 
ATOM      8  H   LIG    1        1.091   0.227   2.543  0.00  0.00    +0.400 HD
ATOM      9  O   LIG    1        0.230   3.185   2.702  0.00  0.00    -0.520 OA
BRANCH   7  10
ATOM     10  C   LIG    1        2.046   1.576   3.875  0.00  0.00    +0.390 C 
BRANCH  10  11
ATOM     11  C   LIG    1        2.899   0.405   4.290  0.00  0.00    -0.010 A 
ATOM     12  N   LIG    1        2.608  -0.491   5.188  0.00  0.00    -0.350 NA
ATOM     13  O   LIG    1        3.489  -1.312   5.299  0.00  0.00    +0.110 OA
ATOM     14  C   LIG    1        4.512  -1.053   4.472  0.00  0.00    +0.170 A 
ATOM     15  C   LIG    1        4.175   0.066   3.786  0.00  0.00    -0.040 A 
ENDBRANCH  10  11
ENDBRANCH   7  10
ENDBRANCH   3   6
BRANCH   1  16
ATOM     16  C   LIG    1       -2.112   3.499  -1.657  0.00  0.00    +0.290 C 
BRANCH  16  18
ATOM     17  C   LIG    1       -2.723   3.887  -3.984  0.00  0.00    +0.500 C 
ATOM     18  N   LIG    1       -2.471   3.011  -2.991  0.00  0.00    -0.720 N 
ATOM     19  H   LIG    1       -2.528   2.058  -3.159  0.00  0.00    +0.400 HD
ATOM     20  O   LIG    1       -2.653   5.079  -3.773  0.00  0.00    -0.510 OA
BRANCH  17  22
ATOM     21  C   LIG    1       -1.956   2.520  -5.905  0.00  0.00    +0.070 C 
ATOM     22  C   LIG    1       -3.092   3.385  -5.356  0.00  0.00    +0.240 C 
BRANCH  22  23
ATOM     23  N   LIG    1       -3.315   4.524  -6.249  0.00  0.00    -0.440 N 
ATOM     24  C   LIG    1       -2.395   5.482  -6.559  0.00  0.00    +0.160 A 
ATOM     25  C   LIG    1       -2.968   6.357  -7.411  0.00  0.00    -0.080 A 
ATOM     26  C   LIG    1       -4.293   5.929  -7.627  0.00  0.00    -0.050 A 
ATOM     27  C   LIG    1       -4.477   4.805  -6.904  0.00  0.00    +0.140 A 
ENDBRANCH  22  23
ENDBRANCH  17  22
ENDBRANCH  16  18
ENDBRANCH   1  16
TORSDOF 7
