REMARK  Name = ZINCpe000000Xahu.0
REMARK                            x       y       z     vdW  Elec       q    Type
REMARK                         _______ _______ _______ _____ _____    ______ ____
ROOT
ATOM      1  C   LIG    1       -0.714  -0.713   0.898  0.00  0.00    +0.510 C 
ATOM      2  N   LIG    1        0.006  -0.006   0.005  0.00  0.00    -0.610 N 
ATOM      3  C   LIG    1       -0.009   1.466   0.016  0.00  0.00    +0.250 C 
ATOM      4  C   LIG    1        1.441   1.963   0.006  0.00  0.00    +0.230 C 
ATOM      5  O   LIG    1        2.144   1.343  -1.073  0.00  0.00    -0.360 OA
ATOM      6  C   LIG    1        2.241  -0.082  -0.965  0.00  0.00    +0.110 C 
ATOM      7  C   LIG    1        2.907  -0.448   0.358  0.00  0.00    +0.040 C 
ATOM      8  C   LIG    1        4.208  -1.250   0.159  0.00  0.00    -0.300 C 
ATOM      9  S   LIG    1        4.747  -0.745  -1.524  0.00  0.00    +2.380 S 
ATOM     10  O   LIG    1        5.422  -1.823  -2.158  0.00  0.00    -0.930 OA
ATOM     11  O   LIG    1        5.346   0.542  -1.472  0.00  0.00    -0.910 OA
ATOM     12  C   LIG    1        3.035  -0.611  -2.180  0.00  0.00    -0.260 C 
ATOM     13  C   LIG    1        0.829  -0.683  -1.009  0.00  0.00    +0.300 C 
ATOM     14  O   LIG    1       -0.759  -1.922   0.820  0.00  0.00    -0.510 OA
ENDROOT
BRANCH   1  16
ATOM     15  C   LIG    1       -2.635  -0.868   2.459  0.00  0.00    +0.100 C 
ATOM     16  C   LIG    1       -1.463  -0.001   1.995  0.00  0.00    +0.270 C 
BRANCH  16  17
ATOM     17  N   LIG    1       -0.561   0.245   3.123  0.00  0.00    -0.350 N 
ATOM     18  C   LIG    1       -0.280  -0.622   4.118  0.00  0.00    +0.270 A 
ATOM     19  C   LIG    1        0.593  -0.018   4.958  0.00  0.00    -0.060 A 
ATOM     20  C   LIG    1        0.854   1.263   4.458  0.00  0.00    -0.010 A 
ATOM     21  N   LIG    1        0.167   1.419   3.355  0.00  0.00    -0.240 NA
BRANCH  20  22
ATOM     22  C   LIG    1        1.772   2.283   5.079  0.00  0.00    +0.560 C 
ATOM     23  F   LIG    1        1.793   2.108   6.467  0.00  0.00    -0.160 F 
ATOM     24  F   LIG    1        1.312   3.569   4.778  0.00  0.00    -0.170 F 
ATOM     25  F   LIG    1        3.065   2.119   4.569  0.00  0.00    -0.170 F 
ENDBRANCH  20  22
ENDBRANCH  16  17
ENDBRANCH   1  16
TORSDOF 3
