REMARK  Name = ZINCqH0000005sYL.0
REMARK                            x       y       z     vdW  Elec       q    Type
REMARK                         _______ _______ _______ _____ _____    ______ ____
ROOT
ATOM      1  C   LIG    1        2.934   7.386   0.012  0.00  0.00    +0.560 C 
ATOM      2  N   LIG    1        1.640   7.011   0.023  0.00  0.00    -0.620 N 
ATOM      3  H   LIG    1        0.940   7.683   0.033  0.00  0.00    +0.420 HD
ATOM      4  O   LIG    1        3.811   6.544  -0.001  0.00  0.00    -0.470 OA
ENDROOT
BRANCH   2   5
ATOM      5  C   LIG    1        1.309   5.667   0.019  0.00  0.00    +0.310 A 
ATOM      6  N   LIG    1        0.106   5.206   0.029  0.00  0.00    -0.500 NA
ATOM      7  C   LIG    1       -0.057   3.869   0.024  0.00  0.00    +0.110 A 
ATOM      8  C   LIG    1       -1.256   3.125   0.031  0.00  0.00    -0.040 A 
ATOM      9  C   LIG    1       -1.223   1.753   0.017  0.00  0.00    +0.040 A 
ATOM     10  C   LIG    1       -0.013   1.076   0.008  0.00  0.00    +0.030 A 
ATOM     11  C   LIG    1        1.171   1.781   0.000  0.00  0.00    -0.040 A 
ATOM     12  C   LIG    1        2.485   1.043  -0.016  0.00  0.00    +0.110 C 
ATOM     13  C   LIG    1       -2.581   3.841   0.048  0.00  0.00    +0.100 C 
ATOM     14  C   LIG    1        1.156   3.173   0.008  0.00  0.00    -0.210 A 
ATOM     15  S   LIG    1        2.470   4.347   0.001  0.00  0.00    +0.180 S 
ENDBRANCH   2   5
BRANCH   1  20
ATOM     16  C   LIG    1        2.620  11.128   0.034  0.00  0.00    -0.690 A 
ATOM     17  C   LIG    1        3.950  11.510   0.023  0.00  0.00    +0.190 A 
ATOM     18  C   LIG    1        4.951  10.556   0.009  0.00  0.00    +0.020 A 
ATOM     19  C   LIG    1        4.629   9.213   0.005  0.00  0.00    +0.070 A 
ATOM     20  C   LIG    1        3.288   8.820   0.016  0.00  0.00    -0.150 A 
ATOM     21 CL   LIG    1        5.886   8.016  -0.014  0.00  0.00    -0.000 Cl
ATOM     22  C   LIG    1        2.284   9.790   0.025  0.00  0.00    +0.180 A 
BRANCH  16  23
ATOM     23  S   LIG    1        1.354  12.353   0.052  0.00  0.00    +2.700 S 
ATOM     24  O   LIG    1        1.940  13.527   0.597  0.00  0.00    -0.950 OA
ATOM     25  O   LIG    1        0.202  11.731   0.605  0.00  0.00    -0.940 OA
BRANCH  23  27
ATOM     26  C   LIG    1        0.391  11.673  -2.382  0.00  0.00    +0.300 C 
ATOM     27  N   LIG    1        0.987  12.701  -1.525  0.00  0.00    -1.120 NA
ATOM     28  H   LIG    1        1.165  13.586  -1.880  0.00  0.00    +0.420 HD
ENDBRANCH  23  27
ENDBRANCH  16  23
ENDBRANCH   1  20
TORSDOF 4
