REMARK  Name = ZINCkj000005g1Pe.0
REMARK                            x       y       z     vdW  Elec       q    Type
REMARK                         _______ _______ _______ _____ _____    ______ ____
ROOT
ATOM      1  C   LIG    1        1.383   3.500  -0.050  0.00  0.00    +0.180 C 
ATOM      2  C   LIG    1        0.664   4.062   1.178  0.00  0.00    +0.020 C 
ENDROOT
BRANCH   1   6
ATOM      3  N   LIG    1        0.729  -0.490   1.182  0.00  0.00    -0.390 N 
ATOM      4  C   LIG    1        0.002  -0.004   0.002  0.00  0.00    +0.280 C 
ATOM      5  C   LIG    1       -0.019   1.526   0.010  0.00  0.00    +0.210 C 
ATOM      6  N   LIG    1        1.361   2.032   0.000  0.00  0.00    -0.530 NA
ATOM      7  C   LIG    1        2.109   1.533   1.163  0.00  0.00    +0.220 C 
ATOM      8  C   LIG    1        2.112   0.003   1.145  0.00  0.00    +0.270 C 
ATOM      9  H   LIG    1        0.275  -0.155   2.018  0.00  0.00    +0.420 HD
BRANCH   3  11
ATOM     10  C   LIG    1        1.381  -2.467   2.473  0.00  0.00    +0.080 C 
ATOM     11  C   LIG    1        0.734  -1.960   1.183  0.00  0.00    +0.250 C 
ENDBRANCH   3  11
ENDBRANCH   1   6
BRANCH   1  12
ATOM     12  C   LIG    1        2.833   3.988  -0.059  0.00  0.00    +0.280 C 
BRANCH  12  13
ATOM     13  N   LIG    1        3.554   3.355  -1.166  0.00  0.00    -0.710 N 
ATOM     14  H   LIG    1        3.095   2.733  -1.752  0.00  0.00    +0.410 HD
BRANCH  13  15
ATOM     15  C   LIG    1        4.891   3.645  -1.377  0.00  0.00    +0.440 A 
ATOM     16  N   LIG    1        5.515   4.494  -0.576  0.00  0.00    -0.540 NA
ATOM     17  C   LIG    1        6.788   4.798  -0.741  0.00  0.00    +0.350 A 
ATOM     18  C   LIG    1        7.531   4.239  -1.764  0.00  0.00    -0.080 A 
ATOM     19  C   LIG    1        6.931   3.344  -2.633  0.00  0.00    +0.170 A 
ATOM     20  C   LIG    1        5.581   3.031  -2.437  0.00  0.00    -0.160 A 
BRANCH  20  21
ATOM     21  C   LIG    1        4.913   2.107  -3.304  0.00  0.00    +0.260 C 
ATOM     22  N   LIG    1        4.384   1.374  -3.991  0.00  0.00    -0.420 NA
ENDBRANCH  20  21
ENDBRANCH  13  15
ENDBRANCH  12  13
ENDBRANCH   1  12
TORSDOF 6
