REMARK  Name = ZINCrD00000F5LvI.1
REMARK                            x       y       z     vdW  Elec       q    Type
REMARK                         _______ _______ _______ _____ _____    ______ ____
ROOT
ATOM      1  C   LIG    1        5.840   7.700   0.755  0.00  0.00    +0.010 C 
ATOM      2  C   LIG    1        4.468   8.337   0.988  0.00  0.00    +0.050 C 
ATOM      3  C   LIG    1        3.496   7.854  -0.094  0.00  0.00    +0.280 C 
ATOM      4  N   LIG    1        3.486   6.385  -0.100  0.00  0.00    -0.610 N 
ATOM      5  C   LIG    1        4.764   5.671  -0.220  0.00  0.00    +0.280 C 
ATOM      6  C   LIG    1        2.327   5.706   0.009  0.00  0.00    +0.550 C 
ATOM      7  O   LIG    1        2.339   4.492   0.100  0.00  0.00    -0.540 OA
ATOM      8  C   LIG    1        5.721   6.178   0.857  0.00  0.00    +0.030 C 
ENDROOT
BRANCH   1  10
ATOM      9  O   LIG    1        6.436   8.986   2.642  0.00  0.00    -0.460 OA
ATOM     10  C   LIG    1        6.807   8.199   1.797  0.00  0.00    +0.510 C 
ATOM     11  N   LIG    1        8.085   7.770   1.790  0.00  0.00    -0.630 N 
ATOM     12  H   LIG    1        8.382   7.141   1.115  0.00  0.00    +0.430 HD
BRANCH  11  13
ATOM     13  C   LIG    1        8.978   8.230   2.752  0.00  0.00    +0.220 A 
ATOM     14  N   LIG    1        8.702   9.075   3.700  0.00  0.00    -0.270 NA
ATOM     15  N   LIG    1        9.630   9.386   4.497  0.00  0.00    -0.230 NA
ATOM     16  C   LIG    1       10.784   8.837   4.285  0.00  0.00    +0.040 A 
ATOM     17  S   LIG    1       10.627   7.784   2.879  0.00  0.00    +0.120 S 
BRANCH  16  18
ATOM     18  C   LIG    1       12.036   9.058   5.095  0.00  0.00    +0.030 C 
ATOM     19  C   LIG    1       11.905   9.856   6.394  0.00  0.00    +0.070 C 
ATOM     20  C   LIG    1       12.582  10.485   5.175  0.00  0.00    +0.060 C 
ENDBRANCH  16  18
ENDBRANCH  11  13
ENDBRANCH   1  10
BRANCH   6  21
ATOM     21  C   LIG    1        1.053   6.428   0.020  0.00  0.00    -0.090 C 
ATOM     22  C   LIG    1       -0.109   5.745   0.028  0.00  0.00    +0.130 C 
BRANCH  22  23
ATOM     23  C   LIG    1       -1.389   6.471   0.038  0.00  0.00    -0.080 A 
ATOM     24  C   LIG    1       -2.597   5.765   0.046  0.00  0.00    +0.040 A 
ATOM     25  C   LIG    1       -3.792   6.452   0.056  0.00  0.00    +0.010 A 
ATOM     26  C   LIG    1       -3.799   7.836   0.058  0.00  0.00    +0.020 A 
ATOM     27  C   LIG    1       -2.608   8.541   0.050  0.00  0.00    +0.010 A 
ATOM     28  C   LIG    1       -1.405   7.869   0.040  0.00  0.00    +0.030 A 
ENDBRANCH  22  23
ENDBRANCH   6  21
TORSDOF 5
