REMARK  Name = ZINCpk00000y6ybT.0
REMARK                            x       y       z     vdW  Elec       q    Type
REMARK                         _______ _______ _______ _____ _____    ______ ____
ROOT
ATOM      1  N   LIG    1       -5.483  -1.390   3.033  0.00  0.00    -0.540 NA
ATOM      2  C   LIG    1       -5.135  -2.490   2.107  0.00  0.00    +0.160 C 
ATOM      3  C   LIG    1       -3.827  -2.245   1.334  0.00  0.00    +0.020 C 
ATOM      4  C   LIG    1       -3.695  -0.830   0.837  0.00  0.00    +0.030 C 
ATOM      5  C   LIG    1       -2.946   0.005   1.899  0.00  0.00    +0.250 C 
ATOM      6  C   LIG    1       -3.816   0.361   3.015  0.00  0.00    +0.030 C 
ATOM      7  C   LIG    1       -4.354  -0.871   3.765  0.00  0.00    +0.200 C 
ENDROOT
BRANCH   1   8
ATOM      8  C   LIG    1       -6.563  -1.792   3.945  0.00  0.00    +0.320 C 
BRANCH   8  13
ATOM      9  N   LIG    1       -8.161  -3.287   2.635  0.00  0.00    -0.300 N 
ATOM     10  N   LIG    1       -9.288  -3.119   2.029  0.00  0.00    -0.090 NA
ATOM     11  N   LIG    1       -9.642  -1.887   2.145  0.00  0.00    -0.080 NA
ATOM     12  N   LIG    1       -8.755  -1.249   2.827  0.00  0.00    -0.290 NA
ATOM     13  C   LIG    1       -7.806  -2.095   3.149  0.00  0.00    +0.190 A 
BRANCH   9  15
ATOM     14  C   LIG    1       -8.265  -5.589   3.456  0.00  0.00    +0.070 C 
ATOM     15  C   LIG    1       -7.409  -4.540   2.743  0.00  0.00    +0.240 C 
ATOM     16  C   LIG    1       -7.049  -5.041   1.343  0.00  0.00    +0.070 C 
ENDBRANCH   9  15
ENDBRANCH   8  13
ENDBRANCH   1   8
BRANCH   5  17
ATOM     17  N   LIG    1       -2.442   1.231   1.276  0.00  0.00    -0.990 NA
BRANCH  17  18
ATOM     18  S   LIG    1       -0.823   1.576   1.316  0.00  0.00    +2.610 S 
ATOM     19  O   LIG    1       -0.764   2.992   1.221  0.00  0.00    -0.950 OA
ATOM     20  O   LIG    1       -0.350   0.898   2.472  0.00  0.00    -0.960 OA
ATOM     21  C   LIG    1       -0.160   0.808  -0.188  0.00  0.00    -0.290 C 
ENDBRANCH  17  18
BRANCH  17  22
ATOM     22  C   LIG    1       -3.371   2.152   0.616  0.00  0.00    +0.260 C 
ATOM     23  C   LIG    1       -2.775   2.849  -0.618  0.00  0.00    -0.010 C 
ATOM     24  C   LIG    1       -3.495   4.125  -0.146  0.00  0.00    +0.030 C 
ATOM     25  C   LIG    1       -3.433   3.541   1.275  0.00  0.00    +0.020 C 
ENDBRANCH  17  22
ENDBRANCH   5  17
TORSDOF 6
