REMARK  Name = ZINCrH000004uRXW.1
REMARK                            x       y       z     vdW  Elec       q    Type
REMARK                         _______ _______ _______ _____ _____    ______ ____
ROOT
ATOM      1  C   LIG    1       -2.507   3.895   0.045  0.00  0.00    -0.070 A 
ATOM      2  C   LIG    1       -3.662   3.127   0.051  0.00  0.00    +0.020 A 
ATOM      3  C   LIG    1       -3.560   1.728   0.042  0.00  0.00    +0.200 A 
ATOM      4  N   LIG    1       -2.399   1.108   0.019  0.00  0.00    -0.450 NA
ATOM      5  C   LIG    1       -1.239   1.766   0.002  0.00  0.00    +0.130 A 
ATOM      6  C   LIG    1       -0.013   1.076  -0.023  0.00  0.00    +0.050 A 
ATOM      7  C   LIG    1        1.154   1.776  -0.045  0.00  0.00    +0.030 A 
ATOM      8  C   LIG    1        1.159   3.168  -0.039  0.00  0.00    +0.020 A 
ATOM      9  C   LIG    1       -0.010   3.870  -0.010  0.00  0.00    +0.060 A 
ATOM     10  C   LIG    1       -1.228   3.184   0.014  0.00  0.00    -0.070 A 
ENDROOT
BRANCH   3  11
ATOM     11  C   LIG    1       -4.803   0.919   0.060  0.00  0.00    -0.060 A 
ATOM     12  C   LIG    1       -6.046   1.548   0.090  0.00  0.00    +0.020 A 
ATOM     13  C   LIG    1       -7.200   0.791   0.102  0.00  0.00    +0.010 A 
ATOM     14  C   LIG    1       -7.123  -0.591   0.094  0.00  0.00    +0.030 A 
ATOM     15  C   LIG    1       -5.892  -1.220   0.070  0.00  0.00    +0.010 A 
ATOM     16  C   LIG    1       -4.732  -0.473   0.053  0.00  0.00    +0.070 A 
ENDBRANCH   3  11
BRANCH   1  18
ATOM     17  O   LIG    1       -1.541   6.021   0.153  0.00  0.00    -0.520 OA
ATOM     18  C   LIG    1       -2.565   5.373   0.053  0.00  0.00    +0.570 C 
ATOM     19  N   LIG    1       -3.753   6.001  -0.050  0.00  0.00    -0.720 N 
ATOM     20  H   LIG    1       -4.569   5.484  -0.130  0.00  0.00    +0.400 HD
BRANCH  19  21
ATOM     21  C   LIG    1       -3.810   7.465  -0.043  0.00  0.00    +0.220 C 
ATOM     22  C   LIG    1       -3.843   7.969   1.403  0.00  0.00    +0.210 C 
ATOM     23  N   LIG    1       -5.079   8.732   1.625  0.00  0.00    -0.530 NA
ATOM     24  C   LIG    1       -5.133   9.914   0.753  0.00  0.00    +0.210 C 
ATOM     25  C   LIG    1       -5.135   9.465  -0.714  0.00  0.00    -0.010 C 
ATOM     26  C   LIG    1       -6.264   7.884   1.435  0.00  0.00    +0.210 C 
ATOM     27  C   LIG    1       -6.300   7.377  -0.009  0.00  0.00    -0.020 C 
ATOM     28  C   LIG    1       -5.081   7.933  -0.762  0.00  0.00    -0.010 C 
ENDBRANCH  19  21
ENDBRANCH   1  18
TORSDOF 3
