REMARK  Name = ZINCrg00001JduY5.0
REMARK                            x       y       z     vdW  Elec       q    Type
REMARK                         _______ _______ _______ _____ _____    ______ ____
ROOT
ATOM      1  C   LIG    1        3.658   1.919   0.680  0.00  0.00    +0.160 A 
ATOM      2  C   LIG    1        3.725   3.196   1.105  0.00  0.00    -0.010 A 
ATOM      3  S   LIG    1        5.415   3.583   1.424  0.00  0.00    +0.120 S 
ATOM      4  C   LIG    1        5.879   1.956   0.935  0.00  0.00    +0.090 A 
ATOM      5  N   LIG    1        4.815   1.287   0.597  0.00  0.00    -0.470 NA
ENDROOT
BRANCH   1   9
ATOM      6  C   LIG    1       -1.230   2.165  -0.050  0.00  0.00    +0.340 C 
ATOM      7  N   LIG    1        0.017   1.397  -0.024  0.00  0.00    -0.560 N 
ATOM      8  C   LIG    1        1.170   2.012   0.304  0.00  0.00    +0.580 A 
ATOM      9  C   LIG    1        2.373   1.269   0.323  0.00  0.00    -0.320 A 
ATOM     10  C   LIG    1        2.328  -0.081   0.002  0.00  0.00    +0.520 A 
ATOM     11  N   LIG    1        1.122  -0.650  -0.324  0.00  0.00    -0.540 N 
ATOM     12  C   LIG    1        1.059  -2.073  -0.666  0.00  0.00    +0.340 C 
ATOM     13  O   LIG    1        1.177   3.199   0.582  0.00  0.00    -0.520 OA
ATOM     14  C   LIG    1       -0.002   0.088  -0.332  0.00  0.00    +0.710 A 
ATOM     15  O   LIG    1       -1.058  -0.439  -0.624  0.00  0.00    -0.530 OA
BRANCH  10  16
ATOM     16  N   LIG    1        3.472  -0.835   0.009  0.00  0.00    -0.820 N 
ATOM     17  H   LIG    1        4.337  -0.404  -0.070  0.00  0.00    +0.440 HD
ATOM     18  H   LIG    1        3.416  -1.800   0.094  0.00  0.00    +0.400 HD
ENDBRANCH  10  16
ENDBRANCH   1   9
BRANCH   4  19
ATOM     19  C   LIG    1        7.261   1.432   0.913  0.00  0.00    +0.010 A 
ATOM     20  C   LIG    1        7.505   0.117   0.511  0.00  0.00    +0.090 A 
ATOM     21  C   LIG    1        8.795  -0.366   0.486  0.00  0.00    +0.070 A 
ATOM     22  C   LIG    1        9.851   0.449   0.872  0.00  0.00    +0.060 A 
ATOM     23  C   LIG    1        9.613   1.755   1.278  0.00  0.00    +0.040 A 
ATOM     24  C   LIG    1        8.325   2.248   1.300  0.00  0.00    +0.070 A 
BRANCH  22  25
ATOM     25  O   LIG    1       11.121  -0.033   0.852  0.00  0.00    -0.660 OA
BRANCH  25  26
ATOM     26  S   LIG    1       11.556  -0.687   2.156  0.00  0.00    +2.740 S 
ATOM     27  F   LIG    1       12.003   0.493   3.155  0.00  0.00    -0.480 F 
ATOM     28  O   LIG    1       12.730  -1.430   1.860  0.00  0.00    -0.910 OA
ATOM     29  O   LIG    1       10.389  -1.270   2.720  0.00  0.00    -0.940 OA
ENDBRANCH  25  26
ENDBRANCH  22  25
ENDBRANCH   4  19
TORSDOF 5
