REMARK  Name = ZINCqH00000321N7.0
REMARK                            x       y       z     vdW  Elec       q    Type
REMARK                         _______ _______ _______ _____ _____    ______ ____
ROOT
ATOM      1  C   LIG    1       -6.008  -0.033   2.949  0.00  0.00    +0.600 C 
ATOM      2  N   LIG    1       -5.539  -1.135   3.567  0.00  0.00    -0.610 N 
ATOM      3  C   LIG    1       -6.459  -2.076   4.221  0.00  0.00    +0.260 C 
ATOM      4  C   LIG    1       -6.196  -3.485   3.678  0.00  0.00    +0.030 C 
ATOM      5  C   LIG    1       -4.715  -3.827   3.856  0.00  0.00    +0.030 C 
ATOM      6  C   LIG    1       -3.861  -2.836   3.062  0.00  0.00    +0.050 C 
ATOM      7  C   LIG    1       -4.098  -1.421   3.597  0.00  0.00    +0.360 C 
ATOM      8  O   LIG    1       -5.252   0.673   2.309  0.00  0.00    -0.500 OA
ENDROOT
BRANCH   1  13
ATOM      9  C   LIG    1       -9.445   1.174   2.717  0.00  0.00    +0.050 A 
ATOM     10  N   LIG    1       -9.480   0.380   3.757  0.00  0.00    -0.260 NA
ATOM     11  N   LIG    1       -8.325  -0.137   3.979  0.00  0.00    -0.390 N 
ATOM     12  H   LIG    1       -8.118  -0.754   4.698  0.00  0.00    +0.450 HD
ATOM     13  C   LIG    1       -7.434   0.316   3.048  0.00  0.00    -0.040 A 
ATOM     14  C   LIG    1       -8.139   1.173   2.221  0.00  0.00    +0.020 A 
BRANCH   9  16
ATOM     15  C   LIG    1      -11.098   1.286   0.872  0.00  0.00    +0.050 C 
ATOM     16  C   LIG    1      -10.606   1.955   2.157  0.00  0.00    +0.020 C 
ATOM     17  C   LIG    1      -10.157   3.384   1.848  0.00  0.00    +0.050 C 
ATOM     18  C   LIG    1      -11.741   1.987   3.183  0.00  0.00    +0.040 C 
ENDBRANCH   9  16
ENDBRANCH   1  13
BRANCH   7  19
ATOM     19  C   LIG    1       -3.367  -0.425   2.733  0.00  0.00    +0.170 A 
ATOM     20  N   LIG    1       -3.414  -0.352   1.433  0.00  0.00    -0.250 NA
ATOM     21  N   LIG    1       -2.672   0.620   1.034  0.00  0.00    -0.270 NA
ATOM     22  C   LIG    1       -2.119   1.194   2.064  0.00  0.00    +0.180 A 
ATOM     23  O   LIG    1       -2.548   0.550   3.163  0.00  0.00    -0.220 OA
BRANCH  22  24
ATOM     24  C   LIG    1       -1.177   2.370   2.031  0.00  0.00    +0.070 C 
ATOM     25  C   LIG    1        0.113   2.103   1.238  0.00  0.00    +0.050 C 
ATOM     26  C   LIG    1       -0.638   2.606  -0.006  0.00  0.00    +0.030 C 
ATOM     27  C   LIG    1       -1.528   3.412   0.954  0.00  0.00    +0.060 C 
ENDBRANCH  22  24
ENDBRANCH   7  19
TORSDOF 4
