REMARK  Name = ZINCpk000000nyfJ.0
REMARK                            x       y       z     vdW  Elec       q    Type
REMARK                         _______ _______ _______ _____ _____    ______ ____
ROOT
ATOM      1  C   LIG    1        1.608  -7.025   1.106  0.00  0.00    +0.280 A 
ATOM      2  C   LIG    1        2.447  -7.858   0.376  0.00  0.00    -0.080 A 
ATOM      3  C   LIG    1        2.863  -9.060   0.911  0.00  0.00    +0.090 A 
ATOM      4  C   LIG    1        2.450  -9.445   2.177  0.00  0.00    -0.060 A 
ATOM      5  C   LIG    1        1.617  -8.632   2.915  0.00  0.00    +0.090 A 
ATOM      6  C   LIG    1        1.192  -7.410   2.390  0.00  0.00    -0.220 A 
ENDROOT
BRANCH   6   7
ATOM      7  C   LIG    1        0.306  -6.532   3.177  0.00  0.00    +0.570 C 
ATOM      8  N   LIG    1        0.000  -6.851   4.450  0.00  0.00    -0.730 N 
ATOM      9  H   LIG    1        0.362  -7.658   4.848  0.00  0.00    +0.400 HD
ATOM     10  O   LIG    1       -0.148  -5.521   2.677  0.00  0.00    -0.550 OA
BRANCH   8  11
ATOM     11  C   LIG    1       -0.880  -5.979   5.232  0.00  0.00    +0.290 C 
BRANCH  11  12
ATOM     12  C   LIG    1       -1.065  -6.565   6.633  0.00  0.00    +0.040 C 
BRANCH  12  13
ATOM     13  C   LIG    1       -1.970  -5.668   7.438  0.00  0.00    +0.520 C 
ATOM     14  O   LIG    1       -2.423  -4.660   6.939  0.00  0.00    -0.540 OA
ATOM     15  N   LIG    1       -2.276  -5.987   8.711  0.00  0.00    -0.860 N 
ATOM     16  H   LIG    1       -2.859  -5.410   9.229  0.00  0.00    +0.400 HD
ATOM     17  H   LIG    1       -1.914  -6.794   9.109  0.00  0.00    +0.400 HD
ENDBRANCH  12  13
ENDBRANCH  11  12
ENDBRANCH   8  11
ENDBRANCH   6   7
BRANCH   1  18
ATOM     18  N   LIG    1        1.188  -5.814   0.570  0.00  0.00    -0.730 N 
ATOM     19  H   LIG    1        0.539  -5.273   1.044  0.00  0.00    +0.420 HD
BRANCH  18  20
ATOM     20  C   LIG    1        1.727  -5.355  -0.714  0.00  0.00    +0.430 C 
BRANCH  20  24
ATOM     21  C   LIG    1        0.711  -1.958  -1.274  0.00  0.00    +0.180 A 
ATOM     22  N   LIG    1       -0.219  -2.637  -1.876  0.00  0.00    -0.370 NA
ATOM     23  O   LIG    1       -0.006  -3.826  -1.770  0.00  0.00    +0.090 OA
ATOM     24  C   LIG    1        1.114  -4.025  -1.068  0.00  0.00    +0.160 A 
ATOM     25  N   LIG    1        1.581  -2.841  -0.752  0.00  0.00    -0.450 NA
BRANCH  21  26
ATOM     26  C   LIG    1        0.801  -0.457  -1.182  0.00  0.00    +0.160 C 
BRANCH  26  28
ATOM     27  C   LIG    1        0.047   1.553   0.096  0.00  0.00    +0.030 C 
ATOM     28  C   LIG    1        0.063   0.024   0.069  0.00  0.00    -0.020 C 
ATOM     29  C   LIG    1        0.777  -0.502   1.316  0.00  0.00    +0.020 C 
ENDBRANCH  26  28
ENDBRANCH  21  26
ENDBRANCH  20  24
ENDBRANCH  18  20
ENDBRANCH   1  18
TORSDOF 9
