REMARK  Name = ZINCpk000000bjsh.1
REMARK                            x       y       z     vdW  Elec       q    Type
REMARK                         _______ _______ _______ _____ _____    ______ ____
ROOT
ATOM      1  C   LIG    1        2.921   0.806  -1.464  0.00  0.00    +0.280 C 
ENDROOT
BRANCH   1   7
ATOM      2  N   LIG    1        6.424   0.195  -4.955  0.00  0.00    -0.520 NA
ATOM      3  C   LIG    1        7.095   0.082  -3.653  0.00  0.00    +0.170 C 
ATOM      4  C   LIG    1        6.217  -0.733  -2.698  0.00  0.00    +0.300 C 
ATOM      5  N   LIG    1        4.879  -0.122  -2.657  0.00  0.00    -0.600 N 
ATOM      6  C   LIG    1        4.196   0.143  -3.933  0.00  0.00    +0.260 C 
ATOM      7  C   LIG    1        4.293   0.181  -1.482  0.00  0.00    +0.510 C 
ATOM      8  O   LIG    1        4.868  -0.049  -0.440  0.00  0.00    -0.510 OA
ATOM      9  C   LIG    1        5.157   0.929  -4.840  0.00  0.00    +0.180 C 
BRANCH   2  11
ATOM     10  C   LIG    1        8.566  -0.030  -6.119  0.00  0.00    +0.050 C 
ATOM     11  C   LIG    1        7.306   0.820  -5.950  0.00  0.00    +0.100 C 
ATOM     12  C   LIG    1        7.696   2.221  -5.476  0.00  0.00    +0.010 C 
ATOM     13  C   LIG    1        6.573   0.919  -7.289  0.00  0.00    +0.050 C 
ENDBRANCH   2  11
ENDBRANCH   1   7
BRANCH   1  14
ATOM     14  N   LIG    1        1.966  -0.093  -2.115  0.00  0.00    -0.300 N 
ATOM     15  C   LIG    1        1.979  -1.439  -2.074  0.00  0.00    +0.390 A 
ATOM     16  N   LIG    1        0.956  -1.847  -2.784  0.00  0.00    -0.300 NA
ATOM     17  N   LIG    1        0.345  -0.806  -3.237  0.00  0.00    -0.070 NA
ATOM     18  N   LIG    1        0.950   0.255  -2.830  0.00  0.00    -0.080 NA
ENDBRANCH   1  14
BRANCH   1  19
ATOM     19  C   LIG    1        2.490   1.048  -0.016  0.00  0.00    +0.130 C 
BRANCH  19  20
ATOM     20  C   LIG    1        1.175   1.783   0.000  0.00  0.00    -0.100 A 
ATOM     21  C   LIG    1       -0.013   1.076   0.008  0.00  0.00    +0.010 A 
ATOM     22  C   LIG    1       -1.219   1.751   0.017  0.00  0.00    +0.010 A 
ATOM     23  C   LIG    1       -1.238   3.133   0.030  0.00  0.00    +0.010 A 
ATOM     24  C   LIG    1       -0.050   3.840   0.022  0.00  0.00    +0.000 A 
ATOM     25  C   LIG    1        1.156   3.165   0.008  0.00  0.00    +0.010 A 
ENDBRANCH  19  20
ENDBRANCH   1  19
TORSDOF 5
