REMARK  Name = ZINCtV000002zDzL.0
REMARK                            x       y       z     vdW  Elec       q    Type
REMARK                         _______ _______ _______ _____ _____    ______ ____
ROOT
ATOM      1  C   LIG    1       -4.939   2.471   1.153  0.00  0.00    +0.220 C 
ATOM      2  N   LIG    1       -4.593   3.894   1.270  0.00  0.00    -0.490 N 
ATOM      3  C   LIG    1       -5.198   4.636   0.269  0.00  0.00    +0.130 A 
ATOM      4  C   LIG    1       -6.457   5.191   0.456  0.00  0.00    +0.030 A 
ATOM      5  C   LIG    1       -7.054   5.902  -0.565  0.00  0.00    +0.050 A 
ATOM      6  C   LIG    1       -6.411   6.069  -1.781  0.00  0.00    +0.000 A 
ATOM      7  C   LIG    1       -5.154   5.535  -1.982  0.00  0.00    +0.090 A 
ATOM      8  C   LIG    1       -4.535   4.827  -0.955  0.00  0.00    -0.180 A 
ATOM      9  C   LIG    1       -3.169   4.291  -1.111  0.00  0.00    +0.570 C 
ATOM     10  N   LIG    1       -2.538   3.853   0.002  0.00  0.00    -0.590 N 
ATOM     11  O   LIG    1       -2.631   4.240  -2.201  0.00  0.00    -0.500 OA
ATOM     12  C   LIG    1       -3.143   4.079   1.315  0.00  0.00    +0.480 C 
ENDROOT
BRANCH  10  13
ATOM     13  C   LIG    1       -1.308   3.192  -0.101  0.00  0.00    +0.140 A 
ATOM     14  C   LIG    1       -1.259   1.805  -0.071  0.00  0.00    +0.030 A 
ATOM     15  C   LIG    1       -0.044   1.156  -0.167  0.00  0.00    +0.030 A 
ATOM     16  C   LIG    1        1.123   1.886  -0.303  0.00  0.00    +0.040 A 
ATOM     17  C   LIG    1        1.078   3.268  -0.339  0.00  0.00    +0.030 A 
ATOM     18  C   LIG    1       -0.134   3.924  -0.238  0.00  0.00    -0.020 A 
ATOM     19 CL   LIG    1       -0.190   5.658  -0.282  0.00  0.00    -0.050 Cl
ENDBRANCH  10  13
BRANCH  12  20
ATOM     20  C   LIG    1       -2.838   5.485   1.763  0.00  0.00    -0.110 A 
ATOM     21  C   LIG    1       -2.595   6.471   0.826  0.00  0.00    +0.080 A 
ATOM     22  C   LIG    1       -2.316   7.761   1.236  0.00  0.00    -0.040 A 
ATOM     23  C   LIG    1       -2.280   8.065   2.587  0.00  0.00    +0.120 A 
ATOM     24  C   LIG    1       -2.523   7.076   3.525  0.00  0.00    -0.020 A 
ATOM     25  F   LIG    1       -2.007   9.326   2.989  0.00  0.00    -0.140 F 
ATOM     26  C   LIG    1       -2.808   5.788   3.112  0.00  0.00    +0.020 A 
BRANCH  26  27
ATOM     27  C   LIG    1       -3.079   4.713   4.132  0.00  0.00    -0.010 C 
ATOM     28  C   LIG    1       -3.352   5.157   5.571  0.00  0.00    +0.030 C 
ATOM     29  C   LIG    1       -2.024   4.485   5.216  0.00  0.00    +0.030 C 
ENDBRANCH  26  27
ENDBRANCH  12  20
TORSDOF 3
