REMARK  Name = ZINCqH0000004zcX.0
REMARK                            x       y       z     vdW  Elec       q    Type
REMARK                         _______ _______ _______ _____ _____    ______ ____
ROOT
ATOM      1  C   LIG    1        4.793  -0.460  -0.055  0.00  0.00    +0.570 C 
ATOM      2  N   LIG    1        3.502  -0.844   0.004  0.00  0.00    -0.540 N 
ATOM      3  C   LIG    1        3.042  -2.235   0.054  0.00  0.00    +0.290 C 
ATOM      4  C   LIG    1        1.508  -2.150   0.112  0.00  0.00    +0.100 C 
ATOM      5  C   LIG    1        1.208  -0.668   0.089  0.00  0.00    -0.120 A 
ATOM      6  C   LIG    1        0.008   0.014   0.121  0.00  0.00    +0.060 A 
ATOM      7  C   LIG    1       -0.007   1.397   0.090  0.00  0.00    -0.010 A 
ATOM      8  C   LIG    1        1.184   2.096   0.028  0.00  0.00    +0.040 A 
ATOM      9  C   LIG    1        2.385   1.420  -0.004  0.00  0.00    +0.010 A 
ATOM     10  C   LIG    1        2.408   0.024   0.027  0.00  0.00    +0.140 A 
ATOM     11  O   LIG    1        5.071   0.715  -0.191  0.00  0.00    -0.500 OA
ENDROOT
BRANCH   1  14
ATOM     12  C   LIG    1        6.566  -3.760   0.137  0.00  0.00    +0.180 A 
ATOM     13  C   LIG    1        5.569  -2.850   0.044  0.00  0.00    -0.080 A 
ATOM     14  C   LIG    1        5.874  -1.471   0.047  0.00  0.00    -0.030 A 
ATOM     15  C   LIG    1        7.197  -1.079   0.140  0.00  0.00    +0.000 A 
ATOM     16  C   LIG    1        8.197  -2.066   0.241  0.00  0.00    +0.520 A 
ATOM     17  O   LIG    1        9.370  -1.739   0.330  0.00  0.00    -0.540 OA
ATOM     18  N   LIG    1        7.862  -3.370   0.234  0.00  0.00    -0.600 N 
ATOM     19  H   LIG    1        8.558  -4.042   0.301  0.00  0.00    +0.420 HD
BRANCH  12  21
ATOM     20  C   LIG    1        6.469  -5.802  -1.266  0.00  0.00    +0.040 C 
ATOM     21  C   LIG    1        6.231  -5.229   0.133  0.00  0.00    +0.090 C 
ENDBRANCH  12  21
ENDBRANCH   1  14
BRANCH   4  22
ATOM     22  C   LIG    1        0.995  -2.771   1.385  0.00  0.00    -0.080 A 
ATOM     23  C   LIG    1        1.448  -2.314   2.608  0.00  0.00    +0.010 A 
ATOM     24  C   LIG    1        0.974  -2.881   3.777  0.00  0.00    +0.000 A 
ATOM     25  C   LIG    1        0.054  -3.911   3.721  0.00  0.00    +0.000 A 
ATOM     26  C   LIG    1       -0.396  -4.371   2.498  0.00  0.00    +0.000 A 
ATOM     27  C   LIG    1        0.075  -3.801   1.330  0.00  0.00    +0.010 A 
ENDBRANCH   4  22
TORSDOF 3
