REMARK  Name = ZINCrg00000fRkAl.0
REMARK                            x       y       z     vdW  Elec       q    Type
REMARK                         _______ _______ _______ _____ _____    ______ ____
ROOT
ATOM      1  C   LIG    1        0.002  -0.004   0.002  0.00  0.00    +0.290 C 
ENDROOT
BRANCH   1   2
ATOM      2  C   LIG    1       -0.019   1.526   0.010  0.00  0.00    +0.000 C 
ATOM      3  C   LIG    1       -0.735   2.019   1.269  0.00  0.00    +0.050 C 
ATOM      4  C   LIG    1       -0.759   2.033  -1.229  0.00  0.00    +0.030 C 
ENDBRANCH   1   2
BRANCH   1   5
ATOM      5  C   LIG    1       -1.407  -0.525  -0.111  0.00  0.00    +0.470 C 
ATOM      6  O   LIG    1       -1.722  -1.219  -1.049  0.00  0.00    -0.490 OA
BRANCH   5   7
ATOM      7  O   LIG    1       -2.314  -0.218   0.830  0.00  0.00    -0.320 OA
BRANCH   7   8
ATOM      8  C   LIG    1       -3.652  -0.754   0.656  0.00  0.00    +0.270 C 
BRANCH   8  14
ATOM      9  N   LIG    1       -7.889  -0.669   2.925  0.00  0.00    -0.740 N 
ATOM     10  H   LIG    1       -8.258  -1.230   2.225  0.00  0.00    +0.400 HD
ATOM     11  C   LIG    1       -6.597  -0.289   2.875  0.00  0.00    +0.690 C 
ATOM     12  N   LIG    1       -5.817  -0.688   1.851  0.00  0.00    -0.690 N 
ATOM     13  H   LIG    1       -6.185  -1.249   1.151  0.00  0.00    +0.410 HD
ATOM     14  C   LIG    1       -4.525  -0.308   1.801  0.00  0.00    +0.520 C 
ATOM     15  O   LIG    1       -4.064   0.393   2.677  0.00  0.00    -0.440 OA
ATOM     16  O   LIG    1       -6.136   0.414   3.753  0.00  0.00    -0.520 OA
BRANCH   9  18
ATOM     17  C   LIG    1      -10.148  -0.800   3.855  0.00  0.00    +0.030 C 
ATOM     18  C   LIG    1       -8.738  -0.235   4.038  0.00  0.00    +0.270 C 
ENDBRANCH   9  18
ENDBRANCH   8  14
ENDBRANCH   7   8
ENDBRANCH   5   7
ENDBRANCH   1   5
BRANCH   1  19
ATOM     19  N   LIG    1        0.790  -0.475  -1.139  0.00  0.00    -1.100 NA
ATOM     20  H   LIG    1        0.374  -0.569  -2.011  0.00  0.00    +0.430 HD
BRANCH  19  21
ATOM     21  S   LIG    1        2.391  -0.849  -0.943  0.00  0.00    +2.700 S 
ATOM     22  O   LIG    1        2.975   0.243  -0.245  0.00  0.00    -0.940 OA
ATOM     23  O   LIG    1        2.856  -1.301  -2.207  0.00  0.00    -0.940 OA
BRANCH  21  24
ATOM     24  C   LIG    1        2.474  -2.234   0.143  0.00  0.00    -0.680 A 
ATOM     25  C   LIG    1        2.570  -2.038   1.508  0.00  0.00    +0.140 A 
ATOM     26  C   LIG    1        2.630  -3.124   2.360  0.00  0.00    +0.020 A 
ATOM     27  C   LIG    1        2.606  -4.409   1.846  0.00  0.00    +0.020 A 
ATOM     28  C   LIG    1        2.516  -4.604   0.479  0.00  0.00    +0.020 A 
ATOM     29 CL   LIG    1        2.689  -5.774   2.915  0.00  0.00    -0.050 Cl
ATOM     30  C   LIG    1        2.450  -3.517  -0.372  0.00  0.00    +0.150 A 
ENDBRANCH  21  24
ENDBRANCH  19  21
ENDBRANCH   1  19
TORSDOF 9
