REMARK  Name = ZINCqH0000038G0X.0
REMARK                            x       y       z     vdW  Elec       q    Type
REMARK                         _______ _______ _______ _____ _____    ______ ____
ROOT
ATOM      1  N   LIG    1        3.634   1.769  -0.024  0.00  0.00    -0.670 N 
ATOM      2  H   LIG    1        3.609   2.737   0.031  0.00  0.00    +0.410 HD
ATOM      3  C   LIG    1        2.490   1.074  -0.186  0.00  0.00    +0.560 C 
ATOM      4  O   LIG    1        2.529  -0.130  -0.351  0.00  0.00    -0.510 OA
ENDROOT
BRANCH   1  10
ATOM      5  C   LIG    1       10.750   0.247  -0.677  0.00  0.00    +0.230 C 
ATOM      6  C   LIG    1        9.268   0.302  -0.412  0.00  0.00    +0.250 A 
ATOM      7  N   LIG    1        8.491   1.290  -0.742  0.00  0.00    -0.480 NA
ATOM      8  C   LIG    1        7.221   0.999  -0.350  0.00  0.00    +0.040 A 
ATOM      9  C   LIG    1        6.004   1.676  -0.442  0.00  0.00    +0.050 A 
ATOM     10  C   LIG    1        4.857   1.094   0.066  0.00  0.00    +0.150 A 
ATOM     11  C   LIG    1        4.915  -0.159   0.672  0.00  0.00    +0.060 A 
ATOM     12  C   LIG    1        6.112  -0.836   0.761  0.00  0.00    +0.070 A 
ATOM     13  C   LIG    1        7.270  -0.265   0.256  0.00  0.00    -0.010 A 
ATOM     14  O   LIG    1        8.561  -0.662   0.197  0.00  0.00    -0.210 OA
ENDBRANCH   1  10
BRANCH   3  15
ATOM     15  C   LIG    1        1.190   1.776  -0.164  0.00  0.00    -0.130 A 
ATOM     16  C   LIG    1        0.004   1.059  -0.332  0.00  0.00    +0.090 A 
ATOM     17  C   LIG    1       -1.207   1.721  -0.316  0.00  0.00    +0.040 A 
ATOM     18  C   LIG    1       -1.248   3.090  -0.123  0.00  0.00    -0.050 A 
ATOM     19  C   LIG    1       -0.076   3.807   0.044  0.00  0.00    +0.040 A 
ATOM     20  C   LIG    1        1.142   3.158   0.025  0.00  0.00    +0.050 A 
BRANCH  18  21
ATOM     21  C   LIG    1       -2.574   3.805  -0.101  0.00  0.00    +0.140 C 
BRANCH  21  22
ATOM     22  S   LIG    1       -3.008   4.327  -1.783  0.00  0.00    +0.040 S 
BRANCH  22  23
ATOM     23  C   LIG    1       -4.561   5.130  -1.560  0.00  0.00    +0.200 A 
ATOM     24  N   LIG    1       -5.191   5.272  -0.418  0.00  0.00    -0.320 NA
ATOM     25  N   LIG    1       -6.379   5.968  -0.695  0.00  0.00    -0.480 N 
ATOM     26  H   LIG    1       -7.061   6.228  -0.056  0.00  0.00    +0.450 HD
ATOM     27  C   LIG    1       -6.387   6.198  -2.018  0.00  0.00    +0.510 A 
ATOM     28  N   LIG    1       -5.293   5.692  -2.528  0.00  0.00    -0.520 NA
ENDBRANCH  22  23
ENDBRANCH  21  22
ENDBRANCH  18  21
ENDBRANCH   3  15
TORSDOF 5
