REMARK  Name = ZINCvU0000000I6p.0
REMARK                            x       y       z     vdW  Elec       q    Type
REMARK                         _______ _______ _______ _____ _____    ______ ____
ROOT
ATOM      1  C   LIG    1        1.630  -2.376  -1.444  0.00  0.00    +0.040 C 
ATOM      2  C   LIG    1        1.649  -1.856  -0.005  0.00  0.00    +0.320 C 
ENDROOT
BRANCH   2   3
ATOM      3  C   LIG    1        1.275  -0.396   0.006  0.00  0.00    +0.060 A 
ATOM      4  C   LIG    1        0.001   0.009   0.029  0.00  0.00    -0.060 A 
ATOM      5  S   LIG    1       -0.016   1.772   0.035  0.00  0.00    +0.100 S 
ATOM      6  C   LIG    1        1.745   1.784   0.005  0.00  0.00    +0.130 A 
ATOM      7  N   LIG    1        2.179   0.556  -0.006  0.00  0.00    -0.470 NA
BRANCH   6   8
ATOM      8  C   LIG    1        2.594   2.994  -0.005  0.00  0.00    -0.070 A 
ATOM      9  C   LIG    1        3.985   2.873  -0.024  0.00  0.00    +0.110 A 
ATOM     10  C   LIG    1        4.773   4.004  -0.038  0.00  0.00    -0.070 A 
ATOM     11  C   LIG    1        4.186   5.262  -0.023  0.00  0.00    +0.150 A 
ATOM     12  C   LIG    1        2.803   5.387   0.001  0.00  0.00    -0.010 A 
ATOM     13  C   LIG    1        2.008   4.261   0.010  0.00  0.00    +0.080 A 
BRANCH  11  14
ATOM     14  O   LIG    1        4.966   6.374  -0.032  0.00  0.00    -0.310 OA
BRANCH  14  15
ATOM     15  C   LIG    1        6.381   6.174  -0.057  0.00  0.00    +0.230 C 
BRANCH  15  16
ATOM     16  C   LIG    1        7.088   7.530  -0.063  0.00  0.00    -0.040 C 
ATOM     17  C   LIG    1        7.926   7.885  -1.293  0.00  0.00    +0.020 C 
ATOM     18  C   LIG    1        8.616   7.531   0.028  0.00  0.00    +0.030 C 
ENDBRANCH  15  16
ENDBRANCH  14  15
ENDBRANCH  11  14
ENDBRANCH   6   8
ENDBRANCH   2   3
BRANCH   2  19
ATOM     19  N   LIG    1        2.993  -2.019   0.555  0.00  0.00    -0.720 N 
ATOM     20  H   LIG    1        3.624  -1.283   0.526  0.00  0.00    +0.410 HD
ATOM     21  C   LIG    1        3.353  -3.193   1.112  0.00  0.00    +0.510 C 
ATOM     22  O   LIG    1        2.564  -4.114   1.149  0.00  0.00    -0.520 OA
BRANCH  21  23
ATOM     23  C   LIG    1        4.735  -3.361   1.688  0.00  0.00    +0.100 C 
BRANCH  23  24
ATOM     24  C   LIG    1        4.844  -4.731   2.361  0.00  0.00    +0.010 C 
ATOM     25  C   LIG    1        6.293  -5.181   2.613  0.00  0.00    +0.050 C 
ATOM     26  C   LIG    1        6.258  -5.812   1.212  0.00  0.00    +0.000 C 
ATOM     27  C   LIG    1        4.732  -5.910   1.380  0.00  0.00    +0.060 C 
BRANCH  24  28
ATOM     28  C   LIG    1        3.950  -4.864   3.567  0.00  0.00    +0.040 A 
ATOM     29  N   LIG    1        2.986  -5.722   3.733  0.00  0.00    -0.340 NA
ATOM     30  O   LIG    1        2.449  -5.587   4.808  0.00  0.00    +0.100 OA
ATOM     31  C   LIG    1        2.998  -4.585   5.510  0.00  0.00    +0.150 A 
ATOM     32  C   LIG    1        3.989  -4.076   4.741  0.00  0.00    -0.070 A 
ENDBRANCH  24  28
ENDBRANCH  23  24
ENDBRANCH  21  23
ENDBRANCH   2  19
TORSDOF 9
