REMARK  Name = ZINCrg000000sxCF.0
REMARK                            x       y       z     vdW  Elec       q    Type
REMARK                         _______ _______ _______ _____ _____    ______ ____
ROOT
ATOM      1  C   LIG    1        7.331  -0.448  -0.081  0.00  0.00    +0.230 C 
ENDROOT
BRANCH   1   2
ATOM      2  C   LIG    1        6.603   0.811  -0.476  0.00  0.00    +0.520 C 
ATOM      3  N   LIG    1        5.395   1.086   0.055  0.00  0.00    -0.730 N 
ATOM      4  H   LIG    1        4.994   0.472   0.690  0.00  0.00    +0.410 HD
ATOM      5  O   LIG    1        7.105   1.578  -1.270  0.00  0.00    -0.530 OA
BRANCH   3   6
ATOM      6  C   LIG    1        4.688   2.310  -0.329  0.00  0.00    +0.300 C 
BRANCH   6   7
ATOM      7  C   LIG    1        3.350   2.379   0.411  0.00  0.00    +0.170 C 
ATOM      8  C   LIG    1        2.578   3.663   0.027  0.00  0.00    +0.100 C 
ATOM      9  C   LIG    1        1.142   3.174   0.016  0.00  0.00    -0.170 A 
ATOM     10  C   LIG    1       -0.062   3.842   0.027  0.00  0.00    +0.060 A 
ATOM     11  C   LIG    1       -1.248   3.129   0.031  0.00  0.00    -0.020 A 
ATOM     12  C   LIG    1       -1.218   1.747   0.017  0.00  0.00    +0.050 A 
ATOM     13  C   LIG    1       -0.013   1.076   0.008  0.00  0.00    -0.010 A 
ATOM     14  C   LIG    1        1.185   1.786   0.000  0.00  0.00    +0.100 A 
ATOM     15  O   LIG    1        2.469   1.333  -0.032  0.00  0.00    -0.300 OA
ENDBRANCH   6   7
ENDBRANCH   3   6
ENDBRANCH   1   2
BRANCH   1  16
ATOM     16  N   LIG    1        8.615  -0.515  -0.791  0.00  0.00    -0.630 NA
ATOM     17  H   LIG    1        8.480  -0.456  -1.790  0.00  0.00    +0.360 HD
BRANCH  16  18
ATOM     18  C   LIG    1        9.354  -1.732  -0.431  0.00  0.00    +0.210 C 
ATOM     19  C   LIG    1        9.636  -1.734   1.075  0.00  0.00    +0.060 C 
ATOM     20  C   LIG    1       10.473  -2.966   1.428  0.00  0.00    +0.210 C 
ATOM     21  O   LIG    1       11.682  -2.953   0.666  0.00  0.00    -0.370 OA
ATOM     22  C   LIG    1       11.481  -2.999  -0.748  0.00  0.00    +0.220 C 
ATOM     23  C   LIG    1       10.684  -1.768  -1.189  0.00  0.00    +0.050 C 
BRANCH  18  28
ATOM     24  C   LIG    1        5.682  -5.114  -0.831  0.00  0.00    +0.200 C 
ATOM     25  C   LIG    1        6.992  -4.382  -0.971  0.00  0.00    +0.170 A 
ATOM     26  N   LIG    1        8.022  -4.774  -1.658  0.00  0.00    -0.380 NA
ATOM     27  O   LIG    1        8.918  -3.959  -1.574  0.00  0.00    +0.080 OA
ATOM     28  C   LIG    1        8.535  -2.945  -0.793  0.00  0.00    +0.150 A 
ATOM     29  N   LIG    1        7.308  -3.202  -0.407  0.00  0.00    -0.480 NA
ENDBRANCH  18  28
ENDBRANCH  16  18
ENDBRANCH   1  16
TORSDOF 6
