REMARK  Name = ZINCrH00000No4I2.0
REMARK                            x       y       z     vdW  Elec       q    Type
REMARK                         _______ _______ _______ _____ _____    ______ ____
ROOT
ATOM      1  C   LIG    1       -5.210   3.683   2.889  0.00  0.00    +0.170 C 
ATOM      2  N   LIG    1       -5.200   3.352   1.657  0.00  0.00    -0.230 NA
ATOM      3  N   LIG    1       -4.679   2.177   1.114  0.00  0.00    -0.480 N 
ATOM      4  C   LIG    1       -3.972   1.308   1.935  0.00  0.00    +0.330 C 
ATOM      5  S   LIG    1       -4.597   1.126   3.585  0.00  0.00    -0.050 S 
ATOM      6  N   LIG    1       -2.918   0.663   1.518  0.00  0.00    -0.470 NA
ATOM      7  C   LIG    1       -4.876   1.863  -0.303  0.00  0.00    +0.340 C 
ATOM      8  C   LIG    1       -4.642   2.890   4.030  0.00  0.00    +0.060 C 
ATOM      9  C   LIG    1       -5.522   3.079   5.267  0.00  0.00    +0.110 C 
ENDROOT
BRANCH   1  14
ATOM     10  C   LIG    1       -6.181   7.069   3.902  0.00  0.00    -0.200 A 
ATOM     11  C   LIG    1       -7.386   6.537   3.488  0.00  0.00    +0.100 A 
ATOM     12  N   LIG    1       -7.173   5.271   3.081  0.00  0.00    -0.520 N 
ATOM     13  H   LIG    1       -7.853   4.668   2.740  0.00  0.00    +0.420 HD
ATOM     14  C   LIG    1       -5.839   4.966   3.224  0.00  0.00    +0.060 A 
ATOM     15  C   LIG    1       -8.713   7.252   3.492  0.00  0.00    +0.160 C 
ATOM     16  C   LIG    1       -5.202   6.057   3.734  0.00  0.00    -0.070 A 
ATOM     17  C   LIG    1       -3.734   6.169   4.057  0.00  0.00    +0.120 C 
BRANCH  10  18
ATOM     18  C   LIG    1       -5.957   8.427   4.423  0.00  0.00    +0.550 C 
ATOM     19  O   LIG    1       -6.048   8.642   5.616  0.00  0.00    -0.500 OA
BRANCH  18  21
ATOM     20  C   LIG    1       -5.442  10.744   4.163  0.00  0.00    +0.250 C 
ATOM     21  O   LIG    1       -5.650   9.431   3.578  0.00  0.00    -0.350 OA
ENDBRANCH  18  21
ENDBRANCH  10  18
ENDBRANCH   1  14
BRANCH   6  22
ATOM     22  C   LIG    1       -2.356   0.955   0.197  0.00  0.00    +0.250 C 
BRANCH  22  23
ATOM     23  C   LIG    1       -1.032   0.250   0.047  0.00  0.00    -0.070 A 
ATOM     24  C   LIG    1       -0.987  -1.031  -0.472  0.00  0.00    +0.020 A 
ATOM     25  C   LIG    1        0.228  -1.676  -0.615  0.00  0.00    +0.000 A 
ATOM     26  C   LIG    1        1.396  -1.042  -0.234  0.00  0.00    +0.000 A 
ATOM     27  C   LIG    1        1.349   0.236   0.290  0.00  0.00    +0.000 A 
ATOM     28  C   LIG    1        0.135   0.881   0.432  0.00  0.00    +0.020 A 
ENDBRANCH  22  23
ENDBRANCH   6  22
TORSDOF 5
