REMARK  Name = ZINCpk00000eaUTD.0
REMARK                            x       y       z     vdW  Elec       q    Type
REMARK                         _______ _______ _______ _____ _____    ______ ____
ROOT
ATOM      1  S   LIG    1        1.771   2.142  -0.163  0.00  0.00    +2.700 S 
ATOM      2  O   LIG    1        1.450   3.192  -1.065  0.00  0.00    -0.950 OA
ATOM      3  O   LIG    1        2.994   1.419  -0.216  0.00  0.00    -0.940 OA
ENDROOT
BRANCH   1   9
ATOM      4  C   LIG    1        0.367   5.954   3.125  0.00  0.00    +0.090 C 
ATOM      5  C   LIG    1        1.004   4.604   2.918  0.00  0.00    -0.110 A 
ATOM      6  C   LIG    1        1.508   3.904   3.998  0.00  0.00    +0.080 A 
ATOM      7  C   LIG    1        2.092   2.665   3.807  0.00  0.00    -0.110 A 
ATOM      8  C   LIG    1        2.172   2.127   2.537  0.00  0.00    +0.020 A 
ATOM      9  C   LIG    1        1.669   2.827   1.456  0.00  0.00    -0.680 A 
ATOM     10  C   LIG    1        2.809   0.777   2.329  0.00  0.00    +0.110 C 
ATOM     11  C   LIG    1        2.641   1.902   4.985  0.00  0.00    +0.090 C 
ATOM     12  C   LIG    1        1.089   4.068   1.646  0.00  0.00    +0.020 A 
ATOM     13  C   LIG    1        0.546   4.834   0.468  0.00  0.00    +0.120 C 
ENDBRANCH   1   9
BRANCH   1  14
ATOM     14  N   LIG    1        0.559   1.022  -0.299  0.00  0.00    -1.110 NA
ATOM     15  H   LIG    1        0.776   0.083  -0.413  0.00  0.00    +0.430 HD
BRANCH  14  16
ATOM     16  C   LIG    1       -0.841   1.449  -0.254  0.00  0.00    +0.370 C 
BRANCH  16  17
ATOM     17  C   LIG    1       -1.722   0.338  -0.764  0.00  0.00    +0.460 C 
ATOM     18  O   LIG    1       -1.231  -0.704  -1.129  0.00  0.00    -0.480 OA
BRANCH  17  19
ATOM     19  O   LIG    1       -3.053   0.506  -0.814  0.00  0.00    -0.330 OA
BRANCH  19  20
ATOM     20  C   LIG    1       -3.840  -0.607  -1.317  0.00  0.00    +0.160 C 
ATOM     21  C   LIG    1       -5.122  -0.091  -2.006  0.00  0.00    +0.070 C 
ATOM     22  C   LIG    1       -6.249  -0.714  -1.155  0.00  0.00    +0.210 C 
ATOM     23  O   LIG    1       -5.608  -1.104   0.096  0.00  0.00    -0.340 OA
ATOM     24  C   LIG    1       -6.832  -1.940  -1.859  0.00  0.00    +0.050 C 
ATOM     25  C   LIG    1       -4.339  -1.462  -0.171  0.00  0.00    +0.470 C 
ATOM     26  O   LIG    1       -3.707  -2.317   0.404  0.00  0.00    -0.420 OA
ENDBRANCH  19  20
ENDBRANCH  17  19
ENDBRANCH  16  17
ENDBRANCH  14  16
ENDBRANCH   1  14
TORSDOF 6
