REMARK  Name = ZINCrD00000F5LrQ.0
REMARK                            x       y       z     vdW  Elec       q    Type
REMARK                         _______ _______ _______ _____ _____    ______ ____
ROOT
ATOM      1  N   LIG    1        2.478   4.049  -0.013  0.00  0.00    -0.670 N 
ATOM      2  H   LIG    1        2.502   5.016  -0.088  0.00  0.00    +0.410 HD
ATOM      3  C   LIG    1        3.627   3.352   0.087  0.00  0.00    +0.720 C 
ATOM      4  N   LIG    1        4.803   4.002   0.181  0.00  0.00    -0.620 N 
ATOM      5  C   LIG    1        6.072   3.260   0.173  0.00  0.00    +0.300 C 
ATOM      6  C   LIG    1        6.889   3.658   1.400  0.00  0.00    +0.040 C 
ATOM      7  C   LIG    1        7.051   5.179   1.431  0.00  0.00    +0.100 C 
ATOM      8  C   LIG    1        5.673   5.839   1.531  0.00  0.00    +0.050 C 
ATOM      9  C   LIG    1        4.842   5.466   0.300  0.00  0.00    +0.270 C 
ATOM     10  O   LIG    1        3.602   2.136   0.093  0.00  0.00    -0.560 OA
ENDROOT
BRANCH   7  11
ATOM     11  C   LIG    1        7.883   5.572   2.624  0.00  0.00    +0.180 A 
ATOM     12  N   LIG    1        7.600   5.345   3.883  0.00  0.00    -0.290 NA
ATOM     13  N   LIG    1        8.540   5.815   4.632  0.00  0.00    -0.290 NA
ATOM     14  C   LIG    1        9.449   6.363   3.884  0.00  0.00    +0.180 A 
ATOM     15  C   LIG    1       10.734   7.042   4.326  0.00  0.00    +0.160 C 
ATOM     16  C   LIG    1       11.896   6.189   3.793  0.00  0.00    +0.040 C 
ATOM     17  C   LIG    1       12.139   6.464   2.329  0.00  0.00    -0.030 C 
ATOM     18  C   LIG    1       11.116   5.922   1.361  0.00  0.00    +0.030 C 
ATOM     19  C   LIG    1        9.808   6.723   1.433  0.00  0.00    +0.300 C 
ATOM     20  C   LIG    1       13.501   5.874   1.957  0.00  0.00    +0.030 C 
ATOM     21  N   LIG    1        9.059   6.228   2.603  0.00  0.00    -0.470 N 
ENDBRANCH   7  11
BRANCH   1  27
ATOM     22  C   LIG    1       -0.112  -0.079  -0.702  0.00  0.00    +0.100 C 
ATOM     23  C   LIG    1       -0.016   1.382  -0.345  0.00  0.00    -0.030 A 
ATOM     24  C   LIG    1       -1.150   2.103   0.005  0.00  0.00    -0.060 A 
ATOM     25  C   LIG    1       -1.027   3.439   0.333  0.00  0.00    +0.290 A 
ATOM     26  N   LIG    1        0.151   4.034   0.317  0.00  0.00    -0.520 NA
ATOM     27  C   LIG    1        1.254   3.380  -0.010  0.00  0.00    +0.370 A 
ATOM     28  C   LIG    1        1.205   2.034  -0.351  0.00  0.00    -0.020 A 
ENDBRANCH   1  27
TORSDOF 2
