REMARK  Name = ZINCpk00000y6usz.0
REMARK                            x       y       z     vdW  Elec       q    Type
REMARK                         _______ _______ _______ _____ _____    ______ ____
ROOT
ATOM      1  C   LIG    1       -2.577   7.040  -1.756  0.00  0.00    +0.570 C 
ATOM      2  N   LIG    1       -1.915   6.578  -0.677  0.00  0.00    -0.600 N 
ATOM      3  C   LIG    1       -2.102   7.201   0.640  0.00  0.00    +0.260 C 
ATOM      4  C   LIG    1       -2.486   6.114   1.649  0.00  0.00    +0.020 C 
ATOM      5  C   LIG    1       -1.433   5.004   1.623  0.00  0.00    +0.030 C 
ATOM      6  C   LIG    1       -1.388   4.374   0.229  0.00  0.00    +0.080 C 
ATOM      7  C   LIG    1       -0.992   5.441  -0.797  0.00  0.00    +0.300 C 
ATOM      8  O   LIG    1       -2.359   6.565  -2.853  0.00  0.00    -0.520 OA
ENDROOT
BRANCH   1  14
ATOM      9  C   LIG    1       -4.877   7.977  -2.081  0.00  0.00    +0.230 A 
ATOM     10  N   LIG    1       -5.733   8.970  -1.919  0.00  0.00    -0.510 NA
ATOM     11  C   LIG    1       -5.367  10.092  -1.330  0.00  0.00    +0.520 A 
ATOM     12  N   LIG    1       -4.145  10.277  -0.872  0.00  0.00    -0.520 NA
ATOM     13  C   LIG    1       -3.227   9.333  -0.986  0.00  0.00    +0.350 A 
ATOM     14  C   LIG    1       -3.570   8.126  -1.605  0.00  0.00    -0.240 A 
BRANCH   9  16
ATOM     15  C   LIG    1       -6.540   6.137  -2.059  0.00  0.00    +0.050 C 
ATOM     16  C   LIG    1       -5.304   6.702  -2.762  0.00  0.00    +0.040 C 
ATOM     17  C   LIG    1       -5.639   6.993  -4.226  0.00  0.00    +0.050 C 
ENDBRANCH   9  16
ENDBRANCH   1  14
BRANCH   6  18
ATOM     18  C   LIG    1       -0.373   3.260   0.212  0.00  0.00    +0.040 A 
ATOM     19  N   LIG    1       -0.623   1.988   0.392  0.00  0.00    -0.260 NA
ATOM     20  N   LIG    1        0.456   1.294   0.323  0.00  0.00    -0.380 N 
ATOM     21  H   LIG    1        0.509   0.332   0.428  0.00  0.00    +0.450 HD
ATOM     22  C   LIG    1        1.516   2.119   0.073  0.00  0.00    -0.040 A 
ATOM     23  C   LIG    1        1.000   3.401  -0.003  0.00  0.00    +0.030 A 
BRANCH  22  24
ATOM     24  C   LIG    1        2.925   1.723  -0.084  0.00  0.00    +0.600 C 
ATOM     25  O   LIG    1        3.772   2.567  -0.306  0.00  0.00    -0.520 OA
ATOM     26  N   LIG    1        3.276   0.426   0.017  0.00  0.00    -0.850 N 
ATOM     27  H   LIG    1        4.204   0.165  -0.086  0.00  0.00    +0.410 HD
ATOM     28  H   LIG    1        2.599  -0.247   0.194  0.00  0.00    +0.400 HD
ENDBRANCH  22  24
ENDBRANCH   6  18
TORSDOF 4
