REMARK  Name = ZINCpk00000KfL0o.0
REMARK                            x       y       z     vdW  Elec       q    Type
REMARK                         _______ _______ _______ _____ _____    ______ ____
ROOT
ATOM      1  N   LIG    1       -3.908   3.947   7.267  0.00  0.00    -0.540 NA
ATOM      2  C   LIG    1       -4.050   2.492   7.506  0.00  0.00    +0.210 C 
ATOM      3  C   LIG    1       -4.550   1.745   6.296  0.00  0.00    +0.010 C 
ATOM      4  C   LIG    1       -3.338   1.231   5.487  0.00  0.00    +0.180 C 
ATOM      5  N   LIG    1       -2.730   2.263   4.761  0.00  0.00    -0.540 NA
ATOM      6  C   LIG    1       -2.187   3.359   5.589  0.00  0.00    +0.200 C 
ATOM      7  C   LIG    1       -3.325   4.280   5.951  0.00  0.00    +0.190 C 
ENDROOT
BRANCH   5   8
ATOM      8  C   LIG    1       -1.706   1.734   3.851  0.00  0.00    +0.270 C 
ATOM      9  C   LIG    1       -0.714   0.878   4.641  0.00  0.00    +0.040 C 
BRANCH   8  10
ATOM     10  C   LIG    1       -2.364   0.890   2.791  0.00  0.00    +0.200 A 
ATOM     11  N   LIG    1       -3.296  -0.013   2.976  0.00  0.00    -0.290 NA
ATOM     12  N   LIG    1       -3.597  -0.516   1.828  0.00  0.00    -0.070 NA
ATOM     13  N   LIG    1       -2.885   0.047   0.915  0.00  0.00    -0.090 NA
ATOM     14  N   LIG    1       -2.108   0.915   1.469  0.00  0.00    -0.280 N 
BRANCH  14  15
ATOM     15  C   LIG    1       -1.136   1.773   0.788  0.00  0.00    +0.200 C 
ATOM     16  C   LIG    1       -0.013   1.086   0.008  0.00  0.00    +0.070 C 
ATOM     17  C   LIG    1       -1.150   1.781  -0.743  0.00  0.00    +0.090 C 
ENDBRANCH  14  15
ENDBRANCH   8  10
ENDBRANCH   5   8
BRANCH   1  18
ATOM     18  C   LIG    1       -5.187   4.641   7.468  0.00  0.00    +0.300 C 
BRANCH  18  23
ATOM     19  N   LIG    1       -5.252   5.441   9.881  0.00  0.00    -0.450 N 
ATOM     20  C   LIG    1       -5.808   4.997  11.050  0.00  0.00    +0.110 A 
ATOM     21  C   LIG    1       -6.459   3.854  10.763  0.00  0.00    +0.140 A 
ATOM     22  N   LIG    1       -6.309   3.609   9.453  0.00  0.00    -0.490 NA
ATOM     23  C   LIG    1       -5.584   4.553   8.919  0.00  0.00    +0.220 A 
BRANCH  19  25
ATOM     24  C   LIG    1       -5.348   7.799   9.240  0.00  0.00    +0.030 C 
ATOM     25  C   LIG    1       -4.448   6.652   9.705  0.00  0.00    +0.290 C 
ENDBRANCH  19  25
ENDBRANCH  18  23
ENDBRANCH   1  18
TORSDOF 6
