REMARK  Name = ZINCpe000027pHk7.0
REMARK                            x       y       z     vdW  Elec       q    Type
REMARK                         _______ _______ _______ _____ _____    ______ ____
ROOT
ATOM      1  N   LIG    1       -7.128   2.717  -2.107  0.00  0.00    -0.540 NA
ATOM      2  C   LIG    1       -6.924   1.262  -2.061  0.00  0.00    +0.190 C 
ATOM      3  C   LIG    1       -6.274   0.884  -0.728  0.00  0.00    +0.180 C 
ATOM      4  N   LIG    1       -4.996   1.597  -0.589  0.00  0.00    -0.520 NA
ATOM      5  C   LIG    1       -5.201   3.051  -0.635  0.00  0.00    +0.190 C 
ATOM      6  C   LIG    1       -5.851   3.430  -1.968  0.00  0.00    +0.200 C 
ENDROOT
BRANCH   1   7
ATOM      7  C   LIG    1       -7.820   3.112  -3.342  0.00  0.00    +0.300 C 
BRANCH   7  12
ATOM      8  N   LIG    1       -8.887   5.361  -2.820  0.00  0.00    -0.440 N 
ATOM      9  C   LIG    1       -8.616   6.670  -3.112  0.00  0.00    +0.110 A 
ATOM     10  C   LIG    1       -7.497   6.679  -3.861  0.00  0.00    +0.140 A 
ATOM     11  N   LIG    1       -7.092   5.410  -4.018  0.00  0.00    -0.490 NA
ATOM     12  C   LIG    1       -7.923   4.614  -3.401  0.00  0.00    +0.210 A 
BRANCH   8  14
ATOM     13  C   LIG    1       -9.575   4.694  -0.570  0.00  0.00    +0.040 C 
ATOM     14  C   LIG    1      -10.013   4.862  -2.026  0.00  0.00    +0.280 C 
ENDBRANCH   8  14
ENDBRANCH   7  12
ENDBRANCH   1   7
BRANCH   4  15
ATOM     15  C   LIG    1       -4.304   1.202   0.645  0.00  0.00    +0.220 C 
BRANCH  15  16
ATOM     16  C   LIG    1       -2.904   1.758   0.636  0.00  0.00    +0.510 C 
ATOM     17  N   LIG    1       -2.078   1.521   1.674  0.00  0.00    -0.720 N 
ATOM     18  H   LIG    1       -2.385   0.993   2.428  0.00  0.00    +0.410 HD
ATOM     19  O   LIG    1       -2.520   2.418  -0.306  0.00  0.00    -0.500 OA
BRANCH  17  20
ATOM     20  C   LIG    1       -0.716   2.062   1.665  0.00  0.00    +0.310 C 
ATOM     21  C   LIG    1        0.043   1.511   0.456  0.00  0.00    +0.080 C 
BRANCH  20  22
ATOM     22  C   LIG    1        0.004   1.650   2.951  0.00  0.00    -0.030 C 
ATOM     23  C   LIG    1        0.431   2.764   3.909  0.00  0.00    +0.030 C 
ATOM     24  C   LIG    1        1.483   2.021   3.081  0.00  0.00    +0.050 C 
ENDBRANCH  20  22
BRANCH  20  25
ATOM     25  C   LIG    1       -0.772   3.530   1.582  0.00  0.00    +0.200 C 
ATOM     26  N   LIG    1       -0.814   4.664   1.518  0.00  0.00    -0.410 NA
ENDBRANCH  20  25
ENDBRANCH  17  20
ENDBRANCH  15  16
ENDBRANCH   4  15
TORSDOF 8
