REMARK  Name = ZINCpk000000okg2.0
REMARK                            x       y       z     vdW  Elec       q    Type
REMARK                         _______ _______ _______ _____ _____    ______ ____
ROOT
ATOM      1  N   LIG    1        5.824   0.732   1.337  0.00  0.00    -0.570 N 
ATOM      2  C   LIG    1        6.818   1.124   0.530  0.00  0.00    +0.700 C 
ATOM      3  N   LIG    1        7.984   0.514   0.819  0.00  0.00    -0.720 N 
ATOM      4  H   LIG    1        8.834   0.643   0.370  0.00  0.00    +0.440 HD
ATOM      5  C   LIG    1        7.713  -0.384   1.948  0.00  0.00    +0.130 C 
ATOM      6  C   LIG    1        8.570  -0.062   3.138  0.00  0.00    +0.050 C 
ATOM      7  C   LIG    1        9.906   0.598   2.732  0.00  0.00    +0.030 C 
ATOM      8  C   LIG    1       10.541  -0.058   1.490  0.00  0.00    +0.000 C 
ATOM      9  C   LIG    1       10.438  -1.559   1.515  0.00  0.00    +0.020 C 
ATOM     10  C   LIG    1        9.179  -1.977   0.730  0.00  0.00    +0.020 C 
ATOM     11  C   LIG    1        7.962  -1.843   1.520  0.00  0.00    +0.050 C 
ATOM     12  O   LIG    1        6.684   1.939  -0.361  0.00  0.00    -0.530 OA
ATOM     13  C   LIG    1        6.246  -0.176   2.241  0.00  0.00    +0.530 C 
ATOM     14  O   LIG    1        5.587  -0.714   3.105  0.00  0.00    -0.460 OA
ENDROOT
BRANCH   1  15
ATOM     15  C   LIG    1        4.449   1.232   1.252  0.00  0.00    +0.480 C 
BRANCH  15  16
ATOM     16  N   LIG    1        3.743   0.539   0.166  0.00  0.00    -0.530 NA
BRANCH  16  17
ATOM     17  C   LIG    1        3.195  -0.743   0.627  0.00  0.00    +0.190 C 
ATOM     18  C   LIG    1        2.682  -1.560  -0.572  0.00  0.00    +0.080 C 
ATOM     19  C   LIG    1        1.818  -2.723  -0.045  0.00  0.00    -0.310 C 
ATOM     20  S   LIG    1        1.133  -2.125   1.542  0.00  0.00    +2.390 S 
ATOM     21  O   LIG    1        1.639  -2.923   2.604  0.00  0.00    -0.930 OA
ATOM     22  O   LIG    1       -0.268  -1.931   1.407  0.00  0.00    -0.930 OA
ATOM     23  C   LIG    1        1.974  -0.497   1.551  0.00  0.00    -0.350 C 
ENDBRANCH  16  17
BRANCH  16  24
ATOM     24  C   LIG    1        2.688   1.389  -0.402  0.00  0.00    +0.190 C 
BRANCH  24  26
ATOM     25  C   LIG    1        2.226   3.421  -1.781  0.00  0.00    +0.020 C 
ATOM     26  C   LIG    1        3.324   2.516  -1.218  0.00  0.00    +0.020 C 
ENDBRANCH  24  26
ENDBRANCH  16  24
ENDBRANCH  15  16
ENDBRANCH   1  15
TORSDOF 5
