REMARK  Name = ZINCrg00001Jdv5b.0
REMARK                            x       y       z     vdW  Elec       q    Type
REMARK                         _______ _______ _______ _____ _____    ______ ____
ROOT
ATOM      1  C   LIG    1        0.446   2.243   0.535  0.00  0.00    +0.510 C 
ATOM      2  N   LIG    1        0.344   0.900   0.486  0.00  0.00    -0.610 N 
ATOM      3  C   LIG    1       -0.946   0.248   0.209  0.00  0.00    +0.260 C 
ATOM      4  C   LIG    1       -1.189  -0.819   1.283  0.00  0.00    +0.220 C 
ATOM      5  O   LIG    1       -0.048  -1.676   1.361  0.00  0.00    -0.360 OA
ATOM      6  C   LIG    1        1.156  -1.014   1.756  0.00  0.00    +0.170 C 
ATOM      7  C   LIG    1        1.520   0.043   0.701  0.00  0.00    +0.250 C 
ATOM      8  O   LIG    1       -0.508   2.935   0.248  0.00  0.00    -0.510 OA
ENDROOT
BRANCH   1  10
ATOM      9  C   LIG    1        2.736   2.834  -0.210  0.00  0.00    +0.090 C 
ATOM     10  C   LIG    1        1.743   2.885   0.953  0.00  0.00    +0.280 C 
BRANCH  10  11
ATOM     11  N   LIG    1        1.500   4.281   1.326  0.00  0.00    -0.350 N 
ATOM     12  C   LIG    1        1.455   5.333   0.481  0.00  0.00    +0.270 A 
ATOM     13  C   LIG    1        1.206   6.442   1.216  0.00  0.00    -0.190 A 
ATOM     14  C   LIG    1        1.095   6.054   2.556  0.00  0.00    +0.260 A 
ATOM     15 CL   LIG    1        1.052   8.060   0.605  0.00  0.00    -0.040 Cl
ATOM     16  N   LIG    1        1.266   4.759   2.622  0.00  0.00    -0.280 NA
ENDBRANCH  10  11
ENDBRANCH   1  10
BRANCH   6  17
ATOM     17  C   LIG    1        2.290  -2.036   1.865  0.00  0.00    +0.070 C 
BRANCH  17  18
ATOM     18  C   LIG    1        1.986  -3.007   2.977  0.00  0.00    +0.520 C 
ATOM     19  N   LIG    1        2.850  -4.002   3.258  0.00  0.00    -0.610 N 
ATOM     20  C   LIG    1        4.129  -4.107   2.543  0.00  0.00    +0.270 C 
ATOM     21  C   LIG    1        5.263  -4.174   3.577  0.00  0.00    +0.030 C 
ATOM     22  C   LIG    1        4.991  -5.324   4.550  0.00  0.00    -0.020 C 
ATOM     23  C   LIG    1        3.678  -5.067   5.292  0.00  0.00    +0.150 C 
ATOM     24  C   LIG    1        2.528  -5.007   4.281  0.00  0.00    +0.230 C 
ATOM     25  C   LIG    1        1.235  -4.613   4.997  0.00  0.00    +0.060 C 
ATOM     26  O   LIG    1        0.963  -2.893   3.619  0.00  0.00    -0.510 OA
BRANCH  23  27
ATOM     27  O   LIG    1        3.761  -3.825   5.993  0.00  0.00    -0.550 OA
ATOM     28  H   LIG    1        4.469  -3.791   6.651  0.00  0.00    +0.380 HD
ENDBRANCH  23  27
ENDBRANCH  17  18
ENDBRANCH   6  17
TORSDOF 5
