REMARK  Name = ZINCpe000000Tp7Q.0
REMARK                            x       y       z     vdW  Elec       q    Type
REMARK                         _______ _______ _______ _____ _____    ______ ____
ROOT
ATOM      1  N   LIG    1        2.840   7.823   5.768  0.00  0.00    -0.690 N 
ATOM      2  H   LIG    1        2.528   8.390   5.045  0.00  0.00    +0.410 HD
ATOM      3  C   LIG    1        2.610   6.496   5.731  0.00  0.00    +0.710 C 
ATOM      4  N   LIG    1        1.867   5.968   4.737  0.00  0.00    -0.740 N 
ATOM      5  H   LIG    1        1.499   6.544   4.049  0.00  0.00    +0.400 HD
ATOM      6  O   LIG    1        3.072   5.774   6.594  0.00  0.00    -0.570 OA
ENDROOT
BRANCH   1  10
ATOM      7  C   LIG    1        4.888   9.494   8.989  0.00  0.00    -0.100 A 
ATOM      8  C   LIG    1        5.231   8.235   8.531  0.00  0.00    +0.020 A 
ATOM      9  C   LIG    1        4.553   7.678   7.464  0.00  0.00    +0.020 A 
ATOM     10  C   LIG    1        3.527   8.384   6.850  0.00  0.00    +0.160 A 
ATOM     11  C   LIG    1        3.189   9.651   7.309  0.00  0.00    -0.020 A 
ATOM     12  C   LIG    1        3.867  10.200   8.380  0.00  0.00    +0.020 A 
BRANCH   7  13
ATOM     13  C   LIG    1        5.630  10.098  10.153  0.00  0.00    +0.060 C 
BRANCH  13  15
ATOM     14  C   LIG    1        7.583  11.507  10.818  0.00  0.00    +0.000 C 
ATOM     15  C   LIG    1        6.831  10.893   9.636  0.00  0.00    +0.000 C 
ENDBRANCH  13  15
ENDBRANCH   7  13
ENDBRANCH   1  10
BRANCH   4  16
ATOM     16  C   LIG    1        1.618   4.525   4.697  0.00  0.00    +0.390 C 
BRANCH  16  17
ATOM     17  C   LIG    1        0.768   4.196   3.496  0.00  0.00    -0.290 A 
ATOM     18  C   LIG    1        1.343   3.800   2.340  0.00  0.00    +0.380 A 
ATOM     19  N   LIG    1        0.557   3.505   1.260  0.00  0.00    -0.530 N 
ATOM     20  C   LIG    1       -0.782   3.611   1.337  0.00  0.00    +0.700 A 
ATOM     21  N   LIG    1       -1.381   3.998   2.479  0.00  0.00    -0.660 N 
ATOM     22  H   LIG    1       -2.348   4.065   2.518  0.00  0.00    +0.430 HD
ATOM     23  O   LIG    1       -1.462   3.349   0.363  0.00  0.00    -0.510 OA
ATOM     24  C   LIG    1       -0.642   4.297   3.566  0.00  0.00    +0.560 A 
ATOM     25  O   LIG    1       -1.182   4.652   4.598  0.00  0.00    -0.500 OA
BRANCH  19  26
ATOM     26  C   LIG    1        1.179   3.077   0.005  0.00  0.00    +0.330 C 
BRANCH  26  27
ATOM     27  C   LIG    1        1.319   1.553  -0.001  0.00  0.00    +0.180 C 
BRANCH  27  28
ATOM     28  O   LIG    1        0.021   0.956   0.000  0.00  0.00    -0.560 OA
ATOM     29  H   LIG    1        0.032  -0.011  -0.003  0.00  0.00    +0.380 HD
ENDBRANCH  27  28
ENDBRANCH  26  27
ENDBRANCH  19  26
ENDBRANCH  16  17
ENDBRANCH   4  16
TORSDOF 8
