REMARK  Name = ZINCrH000004narF.0
REMARK                            x       y       z     vdW  Elec       q    Type
REMARK                         _______ _______ _______ _____ _____    ______ ____
ROOT
ATOM      1  C   LIG    1       -0.043   1.313   0.243  0.00  0.00    +0.520 C 
ATOM      2  N   LIG    1       -1.243   1.918   0.146  0.00  0.00    -0.600 N 
ATOM      3  C   LIG    1       -1.309   3.385   0.291  0.00  0.00    +0.250 C 
ATOM      4  C   LIG    1       -2.257   4.025  -0.745  0.00  0.00    +0.020 C 
ATOM      5  C   LIG    1       -2.094   3.354  -2.086  0.00  0.00    +0.010 C 
ATOM      6  C   LIG    1       -3.094   2.207  -2.203  0.00  0.00    +0.000 C 
ATOM      7  C   LIG    1       -2.633   0.940  -1.615  0.00  0.00    +0.020 C 
ATOM      8  C   LIG    1       -2.413   1.102  -0.091  0.00  0.00    +0.290 C 
ATOM      9  O   LIG    1        0.035   0.104   0.175  0.00  0.00    -0.500 OA
ENDROOT
BRANCH   1  16
ATOM     10  C   LIG    1        6.009   2.167   1.204  0.00  0.00    +0.100 A 
ATOM     11  C   LIG    1        5.865   3.385   1.850  0.00  0.00    -0.040 A 
ATOM     12  C   LIG    1        4.605   3.908   2.059  0.00  0.00    +0.040 A 
ATOM     13  C   LIG    1        3.478   3.218   1.626  0.00  0.00    +0.090 A 
ATOM     14  O   LIG    1        2.256   3.772   1.845  0.00  0.00    -0.310 OA
ATOM     15  C   LIG    1        1.111   2.923   1.746  0.00  0.00    +0.250 C 
ATOM     16  C   LIG    1        1.204   2.138   0.431  0.00  0.00    -0.040 C 
ATOM     17  C   LIG    1        2.425   1.218   0.505  0.00  0.00    +0.120 C 
ATOM     18  C   LIG    1        3.622   2.000   0.985  0.00  0.00    -0.110 A 
ATOM     19  C   LIG    1        4.887   1.477   0.773  0.00  0.00    +0.010 A 
BRANCH  10  21
ATOM     20  C   LIG    1        8.360   2.415   1.465  0.00  0.00    +0.250 C 
ATOM     21  O   LIG    1        7.249   1.649   0.994  0.00  0.00    -0.320 OA
ENDBRANCH  10  21
ENDBRANCH   1  16
BRANCH   8  22
ATOM     22  C   LIG    1       -2.214  -0.254   0.535  0.00  0.00    -0.010 A 
ATOM     23  C   LIG    1       -2.272  -1.406  -0.234  0.00  0.00    -0.030 A 
ATOM     24  C   LIG    1       -2.081  -2.632   0.374  0.00  0.00    +0.250 A 
ATOM     25  N   LIG    1       -1.855  -2.714   1.670  0.00  0.00    -0.490 NA
ATOM     26  C   LIG    1       -1.798  -1.640   2.433  0.00  0.00    +0.250 A 
ATOM     27  C   LIG    1       -1.975  -0.380   1.895  0.00  0.00    -0.050 A 
ENDBRANCH   8  22
TORSDOF 3
