REMARK  Name = ZINCrH000004osrS.0
REMARK                            x       y       z     vdW  Elec       q    Type
REMARK                         _______ _______ _______ _____ _____    ______ ____
ROOT
ATOM      1  C   LIG    1        0.148  -0.520   1.435  0.00  0.00    +0.080 C 
ATOM      2  C   LIG    1        0.002  -0.004   0.002  0.00  0.00    +0.020 C 
ENDROOT
BRANCH   2   3
ATOM      3  C   LIG    1       -0.018   1.503   0.010  0.00  0.00    +0.540 C 
ATOM      4  N   LIG    1        1.139   2.192   0.003  0.00  0.00    -0.720 N 
ATOM      5  H   LIG    1        1.986   1.719  -0.008  0.00  0.00    +0.410 HD
ATOM      6  O   LIG    1       -1.077   2.095   0.018  0.00  0.00    -0.520 OA
BRANCH   4   7
ATOM      7  C   LIG    1        1.120   3.657   0.011  0.00  0.00    +0.340 C 
BRANCH   7   8
ATOM      8  C   LIG    1        2.534   4.179   0.000  0.00  0.00    -0.110 A 
ATOM      9  C   LIG    1        3.190   4.417   1.193  0.00  0.00    +0.050 A 
ATOM     10  C   LIG    1        4.489   4.890   1.188  0.00  0.00    +0.040 A 
ATOM     11  C   LIG    1        5.132   5.138  -0.013  0.00  0.00    +0.040 A 
ATOM     12  O   LIG    1        6.385   5.603  -0.290  0.00  0.00    -0.310 OA
ATOM     13  C   LIG    1        6.339   6.038  -1.661  0.00  0.00    +0.430 C 
ATOM     14  O   LIG    1        5.306   5.223  -2.245  0.00  0.00    -0.310 OA
ATOM     15  C   LIG    1        4.468   4.904  -1.215  0.00  0.00    +0.030 A 
ATOM     16  C   LIG    1        3.169   4.424  -1.203  0.00  0.00    +0.060 A 
ENDBRANCH   7   8
ENDBRANCH   4   7
ENDBRANCH   2   3
BRANCH   2  17
ATOM     17  S   LIG    1       -1.543  -0.625  -0.708  0.00  0.00    +0.070 S 
BRANCH  17  18
ATOM     18  C   LIG    1       -1.195  -2.352  -0.736  0.00  0.00    +0.260 A 
ATOM     19  N   LIG    1       -0.079  -2.902  -0.323  0.00  0.00    -0.490 NA
ATOM     20  C   LIG    1       -0.147  -4.249  -0.487  0.00  0.00    +0.070 A 
ATOM     21  C   LIG    1        0.741  -5.293  -0.220  0.00  0.00    +0.080 A 
ATOM     22  C   LIG    1        0.376  -6.592  -0.503  0.00  0.00    -0.040 A 
ATOM     23  C   LIG    1       -0.868  -6.869  -1.053  0.00  0.00    +0.050 A 
ATOM     24  C   LIG    1       -1.756  -5.847  -1.323  0.00  0.00    +0.040 A 
ATOM     25 CL   LIG    1        1.479  -7.890  -0.170  0.00  0.00    -0.060 Cl
ATOM     26  C   LIG    1       -1.405  -4.536  -1.044  0.00  0.00    +0.060 A 
ATOM     27  N   LIG    1       -2.050  -3.318  -1.185  0.00  0.00    -0.470 N 
ATOM     28  C   LIG    1       -3.397  -3.105  -1.721  0.00  0.00    +0.330 C 
ENDBRANCH  17  18
ENDBRANCH   2  17
TORSDOF 5
