REMARK  Name = ZINCb70000003XDX.0
REMARK                            x       y       z     vdW  Elec       q    Type
REMARK                         _______ _______ _______ _____ _____    ______ ____
ROOT
ATOM      1  C   LIG    1       -0.235   2.529  -2.113  0.00  0.00    +0.220 C 
ATOM      2  N   LIG    1        0.342   3.694  -1.424  0.00  0.00    -0.500 N 
ATOM      3  C   LIG    1       -0.320   3.865  -0.122  0.00  0.00    +0.290 C 
ATOM      4  C   LIG    1       -1.350   2.734   0.036  0.00  0.00    +0.000 C 
ATOM      5  C   LIG    1       -0.937   1.682   1.082  0.00  0.00    +0.080 C 
ATOM      6  C   LIG    1       -0.013   1.086   0.008  0.00  0.00    +0.030 C 
ATOM      7  H   LIG    1        0.201   4.521  -1.985  0.00  0.00    +0.440 HD
ATOM      8  H   LIG    1        1.331   3.547  -1.283  0.00  0.00    +0.440 HD
ATOM      9  C   LIG    1       -0.956   1.693  -1.041  0.00  0.00    +0.050 C 
ENDROOT
BRANCH   1  10
ATOM     10  C   LIG    1        0.859   1.713  -2.752  0.00  0.00    +0.460 C 
ATOM     11  O   LIG    1        2.006   1.864  -2.405  0.00  0.00    -0.490 OA
BRANCH  10  13
ATOM     12  C   LIG    1        1.663   0.070  -4.279  0.00  0.00    +0.310 C 
ATOM     13  O   LIG    1        0.559   0.820  -3.708  0.00  0.00    -0.330 OA
ENDBRANCH  10  13
ENDBRANCH   1  10
TORSDOF 2
