REMARK  Name = ZINCpk00000KfKYg.0
REMARK                            x       y       z     vdW  Elec       q    Type
REMARK                         _______ _______ _______ _____ _____    ______ ____
ROOT
ATOM      1  N   LIG    1        2.102   0.083  -1.253  0.00  0.00    -0.540 NA
ATOM      2  C   LIG    1        2.043   1.552  -1.244  0.00  0.00    +0.150 C 
ATOM      3  C   LIG    1        1.284   2.019   0.001  0.00  0.00    +0.220 C 
ATOM      4  O   LIG    1       -0.017   1.426   0.010  0.00  0.00    -0.380 OA
ATOM      5  C   LIG    1        0.002  -0.004   0.002  0.00  0.00    +0.160 C 
ATOM      6  C   LIG    1        0.749  -0.492  -1.242  0.00  0.00    +0.170 C 
ENDROOT
BRANCH   1   7
ATOM      7  C   LIG    1        2.873  -0.406  -2.404  0.00  0.00    +0.210 C 
BRANCH   7   8
ATOM      8  C   LIG    1        4.171   0.393  -2.524  0.00  0.00    +0.050 C 
BRANCH   8  10
ATOM      9  O   LIG    1        4.530  -1.016  -4.383  0.00  0.00    -0.540 OA
ATOM     10  C   LIG    1        4.963  -0.109  -3.705  0.00  0.00    +0.520 C 
ATOM     11  N   LIG    1        6.151   0.451  -4.007  0.00  0.00    -0.730 N 
ATOM     12  H   LIG    1        6.497   1.177  -3.464  0.00  0.00    +0.400 HD
BRANCH  11  13
ATOM     13  C   LIG    1        6.920  -0.037  -5.154  0.00  0.00    +0.230 C 
ATOM     14  C   LIG    1        7.761  -1.242  -4.729  0.00  0.00    +0.000 C 
ATOM     15  C   LIG    1        8.564  -1.751  -5.928  0.00  0.00    +0.010 C 
ATOM     16  C   LIG    1        9.485  -0.639  -6.434  0.00  0.00    +0.000 C 
ATOM     17  C   LIG    1        8.643   0.566  -6.860  0.00  0.00    +0.020 C 
ATOM     18  C   LIG    1        7.840   1.075  -5.661  0.00  0.00    +0.010 C 
ENDBRANCH  11  13
ENDBRANCH   8  10
ENDBRANCH   7   8
ENDBRANCH   1   7
BRANCH   5  19
ATOM     19  C   LIG    1       -1.433  -0.534  -0.022  0.00  0.00    +0.280 C 
BRANCH  19  20
ATOM     20  N   LIG    1       -2.148  -0.063   1.166  0.00  0.00    -0.710 N 
ATOM     21  H   LIG    1       -1.694   0.498   1.815  0.00  0.00    +0.410 HD
BRANCH  20  22
ATOM     22  C   LIG    1       -3.478  -0.418   1.365  0.00  0.00    +0.340 A 
ATOM     23  C   LIG    1       -4.133  -1.224   0.434  0.00  0.00    -0.040 A 
ATOM     24  C   LIG    1       -5.458  -1.550   0.678  0.00  0.00    +0.070 A 
ATOM     25  C   LIG    1       -6.050  -1.056   1.832  0.00  0.00    +0.150 A 
ATOM     26  N   LIG    1       -5.354  -0.300   2.658  0.00  0.00    -0.200 NA
ATOM     27  N   LIG    1       -4.126   0.002   2.441  0.00  0.00    -0.310 NA
ENDBRANCH  20  22
ENDBRANCH  19  20
ENDBRANCH   5  19
TORSDOF 7
