REMARK  Name = ZINCvU00000006IO.0
REMARK                            x       y       z     vdW  Elec       q    Type
REMARK                         _______ _______ _______ _____ _____    ______ ____
ROOT
ATOM      1  C   LIG    1        5.258   8.196  -0.003  0.00  0.00    +0.240 A 
ATOM      2  N   LIG    1        3.984   7.881   0.007  0.00  0.00    -0.260 NA
ATOM      3  N   LIG    1        3.846   6.604  -0.004  0.00  0.00    -0.290 NA
ATOM      4  C   LIG    1        5.025   6.022  -0.013  0.00  0.00    +0.160 A 
ATOM      5  N   LIG    1        5.966   7.014  -0.016  0.00  0.00    -0.410 N 
ENDROOT
BRANCH   5   6
ATOM      6  C   LIG    1        7.359   6.861  -0.030  0.00  0.00    +0.090 A 
ATOM      7  C   LIG    1        8.117   7.290   1.052  0.00  0.00    +0.040 A 
ATOM      8  C   LIG    1        9.489   7.131   1.038  0.00  0.00    +0.030 A 
ATOM      9  C   LIG    1       10.110   6.558  -0.057  0.00  0.00    -0.060 A 
ATOM     10  C   LIG    1        9.358   6.136  -1.138  0.00  0.00    +0.030 A 
ATOM     11  C   LIG    1       11.607   6.394  -0.071  0.00  0.00    +0.100 C 
ATOM     12  C   LIG    1        7.985   6.286  -1.127  0.00  0.00    +0.040 A 
ENDBRANCH   5   6
BRANCH   1  17
ATOM     13  C   LIG    1        5.561  11.929   0.322  0.00  0.00    +0.130 A 
ATOM     14  C   LIG    1        6.898  12.118  -0.002  0.00  0.00    -0.060 A 
ATOM     15  C   LIG    1        7.696  11.036  -0.324  0.00  0.00    +0.050 A 
ATOM     16  C   LIG    1        7.170   9.761  -0.326  0.00  0.00    -0.010 A 
ATOM     17  C   LIG    1        5.826   9.561  -0.002  0.00  0.00    +0.020 A 
ATOM     18  C   LIG    1        5.021  10.654   0.319  0.00  0.00    +0.040 A 
BRANCH  13  20
ATOM     19  C   LIG    1        5.402  14.283   0.617  0.00  0.00    +0.250 C 
ATOM     20  O   LIG    1        4.781  12.996   0.638  0.00  0.00    -0.310 OA
ENDBRANCH  13  20
ENDBRANCH   1  17
BRANCH   4  21
ATOM     21  S   LIG    1        5.334   4.287  -0.025  0.00  0.00    +0.080 S 
BRANCH  21  22
ATOM     22  C   LIG    1        3.635   3.665  -0.013  0.00  0.00    +0.090 C 
BRANCH  22  23
ATOM     23  C   LIG    1        3.652   2.158  -0.021  0.00  0.00    +0.410 C 
ATOM     24  O   LIG    1        4.708   1.563  -0.034  0.00  0.00    -0.410 OA
BRANCH  23  25
ATOM     25  C   LIG    1        2.386   1.408  -0.013  0.00  0.00    -0.160 A 
ATOM     26  C   LIG    1        1.165   2.090   0.002  0.00  0.00    +0.080 A 
ATOM     27  C   LIG    1       -0.017   1.380   0.010  0.00  0.00    +0.010 A 
ATOM     28  C   LIG    1        0.002  -0.004   0.002  0.00  0.00    +0.070 A 
ATOM     29  C   LIG    1        1.205  -0.687  -0.013  0.00  0.00    +0.020 A 
ATOM     30  C   LIG    1        2.397   0.008  -0.021  0.00  0.00    +0.020 A 
ATOM     31 CL   LIG    1        3.906  -0.851  -0.041  0.00  0.00    -0.030 Cl
ENDBRANCH  23  25
ENDBRANCH  22  23
ENDBRANCH  21  22
ENDBRANCH   4  21
TORSDOF 7
