REMARK  Name = ZINCrg000000tmWC.0
REMARK                            x       y       z     vdW  Elec       q    Type
REMARK                         _______ _______ _______ _____ _____    ______ ____
ROOT
ATOM      1  O   LIG    1       -1.471   2.092   3.809  0.00  0.00    -0.540 OA
ATOM      2  C   LIG    1       -0.473   1.407   3.684  0.00  0.00    +0.580 C 
ATOM      3  N   LIG    1       -0.020   1.094   2.454  0.00  0.00    -0.720 N 
ATOM      4  H   LIG    1        0.775   0.547   2.354  0.00  0.00    +0.400 HD
ENDROOT
BRANCH   2   5
ATOM      5  C   LIG    1        0.239   0.919   4.877  0.00  0.00    -0.230 A 
ATOM      6  C   LIG    1       -0.213   1.230   6.136  0.00  0.00    +0.380 A 
ATOM      7  N   LIG    1        0.428   0.793   7.252  0.00  0.00    -0.510 N 
ATOM      8  C   LIG    1       -0.132   1.253   8.527  0.00  0.00    +0.340 C 
ATOM      9  C   LIG    1       -0.033   0.151   9.585  0.00  0.00    -0.380 C 
ATOM     10  S   LIG    1        1.727  -0.289   9.734  0.00  0.00    +2.550 S 
ATOM     11  N   LIG    1        2.174  -0.543   8.162  0.00  0.00    -0.960 NA
ATOM     12  O   LIG    1        2.495   0.834  10.146  0.00  0.00    -0.960 OA
ATOM     13  O   LIG    1        1.879  -1.556  10.359  0.00  0.00    -0.930 OA
ATOM     14  C   LIG    1        1.528  -0.013   7.150  0.00  0.00    +0.520 A 
ATOM     15  C   LIG    1        2.049  -0.347   5.862  0.00  0.00    +0.020 A 
ATOM     16  C   LIG    1        1.437   0.088   4.741  0.00  0.00    +0.140 A 
ENDBRANCH   2   5
BRANCH   3  17
ATOM     17  C   LIG    1       -0.729   1.579   1.267  0.00  0.00    +0.280 C 
BRANCH  17  18
ATOM     18  C   LIG    1       -0.013   1.086   0.008  0.00  0.00    +0.010 C 
BRANCH  18  19
ATOM     19  C   LIG    1       -0.753   1.593  -1.232  0.00  0.00    +0.310 C 
BRANCH  19  20
ATOM     20  N   LIG    1       -0.067   1.120  -2.437  0.00  0.00    -0.490 N 
ATOM     21  C   LIG    1        0.859   1.807  -3.159  0.00  0.00    +0.470 A 
ATOM     22  N   LIG    1        1.265   1.088  -4.165  0.00  0.00    -0.490 NA
ATOM     23  C   LIG    1        0.618  -0.106  -4.163  0.00  0.00    +0.040 A 
ATOM     24  C   LIG    1        0.662  -1.227  -4.995  0.00  0.00    +0.070 A 
ATOM     25  C   LIG    1       -0.131  -2.307  -4.726  0.00  0.00    +0.000 A 
ATOM     26  C   LIG    1       -0.983  -2.303  -3.631  0.00  0.00    +0.030 A 
ATOM     27  C   LIG    1       -1.044  -1.208  -2.796  0.00  0.00    +0.010 A 
ATOM     28  C   LIG    1       -0.245  -0.102  -3.054  0.00  0.00    +0.050 A 
ENDBRANCH  19  20
ENDBRANCH  18  19
ENDBRANCH  17  18
ENDBRANCH   3  17
TORSDOF 5
