REMARK  Name = ZINCpe000000Uzkz.0
REMARK                            x       y       z     vdW  Elec       q    Type
REMARK                         _______ _______ _______ _____ _____    ______ ____
ROOT
ATOM      1  N   LIG    1       -1.217   1.704   0.017  0.00  0.00    -0.540 N 
ATOM      2  C   LIG    1       -0.013   1.076   0.008  0.00  0.00    +0.610 A 
ATOM      3  N   LIG    1        1.122   1.707   0.001  0.00  0.00    -0.530 NA
ATOM      4  C   LIG    1        1.182   3.062   0.007  0.00  0.00    +0.200 A 
ATOM      5  C   LIG    1        2.401   3.742  -0.001  0.00  0.00    +0.020 A 
ATOM      6  C   LIG    1        2.415   5.119   0.005  0.00  0.00    +0.170 A 
ATOM      7  C   LIG    1        1.229   5.842   0.021  0.00  0.00    -0.680 A 
ATOM      8  C   LIG    1        0.013   5.194   0.029  0.00  0.00    +0.220 A 
ATOM      9  C   LIG    1       -0.022   3.801   0.023  0.00  0.00    -0.220 A 
ATOM     10  C   LIG    1       -1.290   3.055   0.031  0.00  0.00    +0.560 A 
ATOM     11  O   LIG    1       -2.362   3.631   0.044  0.00  0.00    -0.490 OA
ENDROOT
BRANCH   7  12
ATOM     12  S   LIG    1        1.281   7.603   0.029  0.00  0.00    +2.500 S 
ATOM     13  O   LIG    1        0.049   7.992  -0.562  0.00  0.00    -0.930 OA
ATOM     14  O   LIG    1        2.521   7.920  -0.587  0.00  0.00    -0.930 OA
ATOM     15  C   LIG    1        1.311   8.047   1.788  0.00  0.00    -0.250 C 
ENDBRANCH   7  12
BRANCH   1  16
ATOM     16  C   LIG    1       -2.449   0.911   0.019  0.00  0.00    +0.360 C 
BRANCH  16  19
ATOM     17  C   LIG    1       -4.784  -0.596   0.576  0.00  0.00    +0.300 C 
ATOM     18  N   LIG    1       -3.978  -0.087   1.688  0.00  0.00    -0.610 N 
ATOM     19  C   LIG    1       -2.865   0.631   1.440  0.00  0.00    +0.500 C 
ATOM     20  O   LIG    1       -2.197   1.053   2.361  0.00  0.00    -0.500 OA
BRANCH  18  21
ATOM     21  C   LIG    1       -4.381  -0.359   3.070  0.00  0.00    +0.340 C 
BRANCH  21  22
ATOM     22  C   LIG    1       -5.303   0.759   3.561  0.00  0.00    +0.430 C 
ATOM     23  F   LIG    1       -4.624   1.981   3.506  0.00  0.00    -0.170 F 
ATOM     24  F   LIG    1       -5.688   0.500   4.881  0.00  0.00    -0.180 F 
ATOM     25  F   LIG    1       -6.439   0.820   2.747  0.00  0.00    -0.180 F 
ENDBRANCH  21  22
ENDBRANCH  18  21
ENDBRANCH  16  19
ENDBRANCH   1  16
TORSDOF 5
