REMARK  Name = ZINCrH000004qRLQ.0
REMARK                            x       y       z     vdW  Elec       q    Type
REMARK                         _______ _______ _______ _____ _____    ______ ____
ROOT
ATOM      1  N   LIG    1        4.198  -0.502  -0.041  0.00  0.00    -0.660 N 
ATOM      2  H   LIG    1        3.713  -1.338   0.035  0.00  0.00    +0.420 HD
ATOM      3  C   LIG    1        3.530   0.668  -0.032  0.00  0.00    +0.610 C 
ATOM      4  O   LIG    1        4.143   1.719  -0.025  0.00  0.00    -0.500 OA
ENDROOT
BRANCH   1  11
ATOM      5  C   LIG    1        5.620  -2.747   0.976  0.00  0.00    +0.110 C 
ATOM      6  C   LIG    1        6.325  -1.587   0.323  0.00  0.00    -0.140 A 
ATOM      7  C   LIG    1        7.701  -1.592   0.203  0.00  0.00    +0.150 A 
ATOM      8  C   LIG    1        8.349  -0.528  -0.396  0.00  0.00    -0.680 A 
ATOM      9  C   LIG    1        7.622   0.545  -0.879  0.00  0.00    +0.140 A 
ATOM     10  C   LIG    1        6.245   0.554  -0.767  0.00  0.00    +0.010 A 
ATOM     11  C   LIG    1        5.592  -0.510  -0.160  0.00  0.00    +0.200 A 
BRANCH   8  12
ATOM     12  S   LIG    1       10.104  -0.538  -0.547  0.00  0.00    +2.500 S 
ATOM     13  O   LIG    1       10.542  -1.370   0.519  0.00  0.00    -0.940 OA
ATOM     14  O   LIG    1       10.460   0.836  -0.597  0.00  0.00    -0.940 OA
ATOM     15  C   LIG    1       10.417  -1.336  -2.146  0.00  0.00    -0.260 C 
ENDBRANCH   8  12
ENDBRANCH   1  11
BRANCH   3  16
ATOM     16  C   LIG    1        2.056   0.675  -0.029  0.00  0.00    -0.090 A 
ATOM     17  C   LIG    1        1.253   1.776  -0.019  0.00  0.00    +0.070 A 
ATOM     18  O   LIG    1       -0.017   1.340  -0.020  0.00  0.00    -0.180 OA
ATOM     19  C   LIG    1        0.002  -0.005  -0.030  0.00  0.00    +0.240 A 
ATOM     20  C   LIG    1        1.706   3.214  -0.010  0.00  0.00    +0.230 C 
ATOM     21  N   LIG    1        1.245  -0.414  -0.035  0.00  0.00    -0.440 NA
BRANCH  19  22
ATOM     22  C   LIG    1       -1.190  -0.879  -0.035  0.00  0.00    -0.060 A 
ATOM     23  C   LIG    1       -1.041  -2.267  -0.045  0.00  0.00    +0.110 A 
ATOM     24  C   LIG    1       -2.157  -3.078  -0.049  0.00  0.00    +0.010 A 
ATOM     25  C   LIG    1       -3.423  -2.519  -0.043  0.00  0.00    +0.070 A 
ATOM     26  C   LIG    1       -3.580  -1.145  -0.033  0.00  0.00    +0.000 A 
ATOM     27  C   LIG    1       -2.471  -0.321  -0.022  0.00  0.00    +0.130 A 
ATOM     28  F   LIG    1       -2.625   1.022  -0.006  0.00  0.00    -0.120 F 
ENDBRANCH  19  22
ENDBRANCH   3  16
TORSDOF 4
