REMARK  Name = ZINCvU0000000B1d.0
REMARK                            x       y       z     vdW  Elec       q    Type
REMARK                         _______ _______ _______ _____ _____    ______ ____
ROOT
ATOM      1  C   LIG    1       -4.856   4.181   0.138  0.00  0.00    +0.160 A 
ATOM      2  C   LIG    1       -4.891   5.570   0.143  0.00  0.00    +0.010 A 
ATOM      3  C   LIG    1       -6.099   6.231   0.255  0.00  0.00    +0.050 A 
ATOM      4  C   LIG    1       -7.275   5.515   0.363  0.00  0.00    -0.020 A 
ATOM      5  C   LIG    1       -7.247   4.125   0.360  0.00  0.00    +0.160 A 
ATOM      6  C   LIG    1       -6.037   3.458   0.242  0.00  0.00    +0.000 A 
ENDROOT
BRANCH   1   8
ATOM      7  C   LIG    1       -2.527   4.027   0.596  0.00  0.00    +0.590 C 
ATOM      8  N   LIG    1       -3.634   3.512   0.024  0.00  0.00    -0.670 N 
ATOM      9  H   LIG    1       -3.582   2.677  -0.467  0.00  0.00    +0.410 HD
ATOM     10  O   LIG    1       -2.574   5.115   1.139  0.00  0.00    -0.520 OA
BRANCH   7  16
ATOM     11  O   LIG    1        2.177   1.307   0.517  0.00  0.00    -0.510 OA
ATOM     12  C   LIG    1        1.115   1.907   0.527  0.00  0.00    +0.510 A 
ATOM     13  N   LIG    1        1.034   3.112   1.120  0.00  0.00    -0.590 N 
ATOM     14  H   LIG    1        1.823   3.493   1.535  0.00  0.00    +0.430 HD
ATOM     15  C   LIG    1       -0.126   3.796   1.147  0.00  0.00    +0.410 A 
ATOM     16  C   LIG    1       -1.261   3.273   0.563  0.00  0.00    -0.240 A 
ATOM     17  C   LIG    1       -1.200   2.008  -0.072  0.00  0.00    +0.110 A 
ATOM     18  C   LIG    1       -0.019   1.332  -0.082  0.00  0.00    -0.020 A 
ATOM     19  F   LIG    1        0.067   0.121  -0.676  0.00  0.00    -0.110 F 
ENDBRANCH   7  16
ENDBRANCH   1   8
BRANCH   5  20
ATOM     20  N   LIG    1       -8.438   3.401   0.469  0.00  0.00    -0.670 N 
ATOM     21  H   LIG    1       -9.250   3.738   0.060  0.00  0.00    +0.410 HD
ATOM     22  C   LIG    1       -8.458   2.234   1.144  0.00  0.00    +0.590 C 
ATOM     23  O   LIG    1       -7.423   1.770   1.585  0.00  0.00    -0.490 OA
BRANCH  22  24
ATOM     24  C   LIG    1       -9.728   1.524   1.346  0.00  0.00    +0.020 A 
ATOM     25  C   LIG    1       -9.875   0.345   2.007  0.00  0.00    +0.080 A 
ATOM     26  C   LIG    1      -11.248   0.003   1.978  0.00  0.00    -0.110 A 
ATOM     27  C   LIG    1      -11.980  -1.079   2.485  0.00  0.00    +0.120 A 
ATOM     28  C   LIG    1      -13.331  -1.134   2.294  0.00  0.00    -0.060 A 
ATOM     29  C   LIG    1      -13.989  -0.125   1.598  0.00  0.00    +0.000 A 
ATOM     30  C   LIG    1      -13.290   0.948   1.090  0.00  0.00    +0.040 A 
ATOM     31 CL   LIG    1      -15.707  -0.219   1.367  0.00  0.00    -0.040 Cl
ATOM     32 CL   LIG    1      -14.235  -2.476   2.923  0.00  0.00    -0.050 Cl
ATOM     33  C   LIG    1      -11.912   1.026   1.274  0.00  0.00    +0.130 A 
ATOM     34  N   LIG    1      -10.964   1.950   0.901  0.00  0.00    -0.570 N 
ATOM     35  H   LIG    1      -11.135   2.766   0.404  0.00  0.00    +0.420 HD
ENDBRANCH  22  24
ENDBRANCH   5  20
TORSDOF 4
