REMARK  Name = ZINCpk00000FbAeX.0
REMARK                            x       y       z     vdW  Elec       q    Type
REMARK                         _______ _______ _______ _____ _____    ______ ____
ROOT
ATOM      1  N   LIG    1       -8.503   0.857   4.876  0.00  0.00    -0.730 N 
ATOM      2  H   LIG    1       -8.774   0.303   4.127  0.00  0.00    +0.400 HD
ATOM      3  C   LIG    1       -9.378   1.128   5.864  0.00  0.00    +0.530 C 
ATOM      4  O   LIG    1       -9.040   1.820   6.801  0.00  0.00    -0.530 OA
ENDROOT
BRANCH   3   5
ATOM      5  C   LIG    1      -10.777   0.570   5.807  0.00  0.00    +0.000 C 
ATOM      6  C   LIG    1      -11.580   1.209   4.649  0.00  0.00    +0.090 C 
ATOM      7  C   LIG    1      -12.980   1.352   5.204  0.00  0.00    +0.520 C 
ATOM      8  N   LIG    1      -12.961   1.231   6.543  0.00  0.00    -0.620 N 
ATOM      9  C   LIG    1      -14.149   1.310   7.396  0.00  0.00    +0.300 C 
ATOM     10  O   LIG    1      -13.974   1.548   4.538  0.00  0.00    -0.520 OA
ATOM     11  C   LIG    1      -11.598   1.009   7.039  0.00  0.00    +0.310 C 
BRANCH  11  12
ATOM     12  C   LIG    1      -11.592  -0.078   8.083  0.00  0.00    -0.160 A 
ATOM     13  C   LIG    1      -10.738   0.000   9.173  0.00  0.00    +0.090 A 
ATOM     14  C   LIG    1      -10.767  -1.023  10.109  0.00  0.00    -0.030 A 
ATOM     15  C   LIG    1      -11.640  -2.078   9.926  0.00  0.00    +0.260 A 
ATOM     16  N   LIG    1      -12.439  -2.119   8.877  0.00  0.00    -0.480 NA
ATOM     17  C   LIG    1      -12.441  -1.163   7.970  0.00  0.00    +0.260 A 
ENDBRANCH  11  12
ENDBRANCH   3   5
BRANCH   1  18
ATOM     18  C   LIG    1       -7.143   1.399   4.932  0.00  0.00    +0.260 C 
BRANCH  18  19
ATOM     19  C   LIG    1       -6.362   0.945   3.698  0.00  0.00    +0.010 C 
BRANCH  19  20
ATOM     20  C   LIG    1       -4.941   1.511   3.756  0.00  0.00    +0.020 C 
BRANCH  20  21
ATOM     21  C   LIG    1       -4.160   1.056   2.522  0.00  0.00    +0.030 C 
BRANCH  21  22
ATOM     22  C   LIG    1       -2.740   1.623   2.581  0.00  0.00    +0.110 C 
BRANCH  22  23
ATOM     23  C   LIG    1       -1.970   1.175   1.365  0.00  0.00    +0.460 C 
ATOM     24  O   LIG    1       -2.502   0.475   0.537  0.00  0.00    -0.510 OA
BRANCH  23  26
ATOM     25  C   LIG    1       -0.013   1.086   0.008  0.00  0.00    +0.250 C 
ATOM     26  O   LIG    1       -0.692   1.554   1.203  0.00  0.00    -0.360 OA
ENDBRANCH  23  26
ENDBRANCH  22  23
ENDBRANCH  21  22
ENDBRANCH  20  21
ENDBRANCH  19  20
ENDBRANCH  18  19
ENDBRANCH   1  18
TORSDOF 9
