REMARK  Name = ZINCpk00000kUAT3.0
REMARK                            x       y       z     vdW  Elec       q    Type
REMARK                         _______ _______ _______ _____ _____    ______ ____
ROOT
ATOM      1  C   LIG    1       -0.717   2.046   1.274  0.00  0.00    +0.300 C 
ENDROOT
BRANCH   1   5
ATOM      2  C   LIG    1        2.312   0.719  -0.016  0.00  0.00    +0.100 C 
ATOM      3  C   LIG    1        1.377  -0.362  -0.615  0.00  0.00    +0.030 C 
ATOM      4  C   LIG    1        0.002  -0.004   0.002  0.00  0.00    +0.170 C 
ATOM      5  C   LIG    1       -0.019   1.538   0.011  0.00  0.00    -0.010 C 
ATOM      6  C   LIG    1        1.450   1.998  -0.001  0.00  0.00    +0.070 C 
BRANCH   2  12
ATOM      7  C   LIG    1        5.311   0.377   0.811  0.00  0.00    +0.340 C 
ATOM      8  N   LIG    1        4.817   0.758  -0.515  0.00  0.00    -0.480 N 
ATOM      9  C   LIG    1        5.561   1.027  -1.615  0.00  0.00    +0.370 A 
ATOM     10  N   LIG    1        4.734   1.328  -2.578  0.00  0.00    -0.300 NA
ATOM     11  N   LIG    1        3.524   1.259  -2.148  0.00  0.00    -0.290 NA
ATOM     12  C   LIG    1        3.524   0.910  -0.890  0.00  0.00    +0.180 A 
ENDBRANCH   2  12
BRANCH   4  13
ATOM     13  O   LIG    1       -0.097  -0.513   1.334  0.00  0.00    -0.550 OA
ATOM     14  H   LIG    1       -0.088  -1.478   1.387  0.00  0.00    +0.380 HD
ENDBRANCH   4  13
ENDBRANCH   1   5
BRANCH   1  15
ATOM     15  N   LIG    1       -2.134   1.676   1.231  0.00  0.00    -0.720 N 
ATOM     16  H   LIG    1       -2.483   1.183   0.472  0.00  0.00    +0.390 HD
ATOM     17  C   LIG    1       -2.951   2.021   2.245  0.00  0.00    +0.590 C 
ATOM     18  O   LIG    1       -2.513   2.640   3.197  0.00  0.00    -0.520 OA
BRANCH  17  19
ATOM     19  C   LIG    1       -4.370   1.650   2.203  0.00  0.00    -0.010 A 
ATOM     20  C   LIG    1       -5.315   1.930   3.167  0.00  0.00    +0.050 A 
ATOM     21  C   LIG    1       -6.528   1.399   2.719  0.00  0.00    +0.030 A 
ATOM     22  C   LIG    1       -6.307   0.809   1.520  0.00  0.00    -0.060 A 
ATOM     23  N   LIG    1       -4.999   0.955   1.195  0.00  0.00    -0.520 N 
ATOM     24  H   LIG    1       -4.577   0.624   0.387  0.00  0.00    +0.420 HD
BRANCH  22  25
ATOM     25  C   LIG    1       -7.345   0.105   0.684  0.00  0.00    +0.540 C 
ATOM     26  F   LIG    1       -7.013   0.225  -0.669  0.00  0.00    -0.180 F 
ATOM     27  F   LIG    1       -8.597   0.686   0.910  0.00  0.00    -0.160 F 
ATOM     28  F   LIG    1       -7.387  -1.248   1.036  0.00  0.00    -0.170 F 
ENDBRANCH  22  25
ENDBRANCH  17  19
ENDBRANCH   1  15
TORSDOF 6
