REMARK  Name = ZINCBI0000000fFH.1
REMARK                            x       y       z     vdW  Elec       q    Type
REMARK                         _______ _______ _______ _____ _____    ______ ____
ROOT
ATOM      1  C   LIG    1       -6.270  -0.286  -4.343  0.00  0.00    +0.210 A 
ATOM      2  C   LIG    1       -5.850  -1.591  -4.187  0.00  0.00    -0.060 A 
ATOM      3  C   LIG    1       -4.950  -1.935  -3.183  0.00  0.00    +0.190 A 
ATOM      4  C   LIG    1       -4.467  -0.998  -2.319  0.00  0.00    -0.700 A 
ATOM      5  C   LIG    1       -4.870   0.339  -2.443  0.00  0.00    +0.070 A 
ATOM      6  C   LIG    1       -4.397   1.346  -1.582  0.00  0.00    -0.060 A 
ATOM      7  C   LIG    1       -4.835   2.622  -1.767  0.00  0.00    +0.280 A 
ATOM      8  N   LIG    1       -5.688   2.936  -2.732  0.00  0.00    -0.490 NA
ATOM      9  C   LIG    1       -6.169   2.048  -3.572  0.00  0.00    +0.370 A 
ATOM     10  C   LIG    1       -5.782   0.705  -3.467  0.00  0.00    -0.120 A 
ENDROOT
BRANCH   1  15
ATOM     11  C   LIG    1       -7.641  -0.031  -7.743  0.00  0.00    -0.040 C 
ATOM     12  C   LIG    1       -8.924   0.091  -7.489  0.00  0.00    -0.020 C 
ATOM     13  C   LIG    1       -9.487   0.007  -6.097  0.00  0.00    +0.090 C 
ATOM     14  C   LIG    1       -8.457  -0.631  -5.162  0.00  0.00    +0.190 C 
ATOM     15  N   LIG    1       -7.166   0.049  -5.355  0.00  0.00    -0.510 N 
ATOM     16  C   LIG    1       -6.613  -0.275  -6.676  0.00  0.00    +0.250 C 
BRANCH  11  20
ATOM     17  C   LIG    1       -6.949  -0.955 -12.603  0.00  0.00    +0.360 C 
ATOM     18  N   LIG    1       -6.886  -0.333 -11.278  0.00  0.00    -0.370 N 
ATOM     19  C   LIG    1       -7.492  -0.787 -10.162  0.00  0.00    +0.240 A 
ATOM     20  C   LIG    1       -7.187   0.075  -9.147  0.00  0.00    -0.210 A 
ATOM     21  C   LIG    1       -6.356   1.082  -9.681  0.00  0.00    +0.240 A 
ATOM     22  N   LIG    1       -6.181   0.832 -10.951  0.00  0.00    -0.290 NA
ENDBRANCH  11  20
ENDBRANCH   1  15
BRANCH   4  23
ATOM     23  S   LIG    1       -3.334  -1.466  -1.052  0.00  0.00    +2.700 S 
ATOM     24  O   LIG    1       -3.171  -2.873  -1.159  0.00  0.00    -0.950 OA
ATOM     25  O   LIG    1       -2.250  -0.550  -1.126  0.00  0.00    -0.940 OA
BRANCH  23  26
ATOM     26  N   LIG    1       -4.082  -1.190   0.400  0.00  0.00    -1.110 NA
ATOM     27  H   LIG    1       -3.729  -0.521   1.007  0.00  0.00    +0.430 HD
BRANCH  26  28
ATOM     28  C   LIG    1       -5.274  -1.958   0.767  0.00  0.00    +0.260 C 
BRANCH  28  29
ATOM     29  C   LIG    1       -5.535  -1.808   2.267  0.00  0.00    +0.020 C 
ATOM     30  C   LIG    1       -4.386  -2.447   3.049  0.00  0.00    +0.060 C 
ATOM     31  C   LIG    1       -4.348  -3.946   2.734  0.00  0.00    +0.060 C 
ATOM     32  C   LIG    1       -5.700  -4.561   3.097  0.00  0.00    +0.250 C 
ATOM     33  N   LIG    1       -6.773  -3.931   2.314  0.00  0.00    -0.380 N 
ATOM     34  C   LIG    1       -8.038  -4.598   2.656  0.00  0.00    +0.250 C 
ATOM     35  C   LIG    1       -9.181  -4.022   1.821  0.00  0.00    +0.050 C 
ATOM     36  C   LIG    1       -9.308  -2.525   2.123  0.00  0.00    +0.040 C 
ATOM     37  C   LIG    1       -7.974  -1.847   1.808  0.00  0.00    +0.050 C 
ATOM     38  H   LIG    1       -6.586  -4.050   1.329  0.00  0.00    +0.420 HD
ATOM     39  C   LIG    1       -6.854  -2.500   2.626  0.00  0.00    +0.180 C 
ENDBRANCH  28  29
ENDBRANCH  26  28
ENDBRANCH  23  26
ENDBRANCH   4  23
TORSDOF 6
