REMARK  Name = ZINCBI0000000fFH.0
REMARK                            x       y       z     vdW  Elec       q    Type
REMARK                         _______ _______ _______ _____ _____    ______ ____
ROOT
ATOM      1  C   LIG    1        0.691  -2.773  -0.043  0.00  0.00    +0.210 A 
ATOM      2  C   LIG    1       -0.602  -3.252  -0.098  0.00  0.00    -0.050 A 
ATOM      3  C   LIG    1       -1.687  -2.382  -0.073  0.00  0.00    +0.190 A 
ATOM      4  C   LIG    1       -1.506  -1.033   0.006  0.00  0.00    -0.700 A 
ATOM      5  C   LIG    1       -0.209  -0.506   0.063  0.00  0.00    +0.070 A 
ATOM      6  C   LIG    1        0.034   0.878   0.145  0.00  0.00    -0.060 A 
ATOM      7  C   LIG    1        1.323   1.313   0.196  0.00  0.00    +0.280 A 
ATOM      8  N   LIG    1        2.347   0.471   0.171  0.00  0.00    -0.490 NA
ATOM      9  C   LIG    1        2.195  -0.832   0.096  0.00  0.00    +0.370 A 
ATOM     10  C   LIG    1        0.907  -1.382   0.038  0.00  0.00    -0.120 A 
ENDROOT
BRANCH   1  15
ATOM     11  C   LIG    1        2.812  -5.604   0.952  0.00  0.00    -0.040 C 
ATOM     12  C   LIG    1        3.457  -5.841  -0.169  0.00  0.00    -0.020 C 
ATOM     13  C   LIG    1        3.167  -5.101  -1.445  0.00  0.00    +0.090 C 
ATOM     14  C   LIG    1        1.810  -4.400  -1.337  0.00  0.00    +0.190 C 
ATOM     15  N   LIG    1        1.769  -3.653  -0.070  0.00  0.00    -0.510 N 
ATOM     16  C   LIG    1        1.718  -4.581   1.067  0.00  0.00    +0.250 C 
BRANCH  11  20
ATOM     17  C   LIG    1        3.507  -9.379   4.147  0.00  0.00    +0.360 C 
ATOM     18  N   LIG    1        3.482  -8.040   3.554  0.00  0.00    -0.370 N 
ATOM     19  C   LIG    1        3.022  -7.729   2.325  0.00  0.00    +0.240 A 
ATOM     20  C   LIG    1        3.179  -6.382   2.155  0.00  0.00    -0.210 A 
ATOM     21  C   LIG    1        3.749  -5.869   3.338  0.00  0.00    +0.240 A 
ATOM     22  N   LIG    1        3.927  -6.863   4.167  0.00  0.00    -0.290 NA
ENDBRANCH  11  20
ENDBRANCH   1  15
BRANCH   4  23
ATOM     23  S   LIG    1       -2.900   0.044   0.037  0.00  0.00    +2.700 S 
ATOM     24  O   LIG    1       -2.697   0.932   1.128  0.00  0.00    -0.940 OA
ATOM     25  O   LIG    1       -4.049  -0.782  -0.089  0.00  0.00    -0.950 OA
BRANCH  23  26
ATOM     26  N   LIG    1       -2.836   0.969  -1.335  0.00  0.00    -1.120 NA
ATOM     27  H   LIG    1       -2.720   1.929  -1.268  0.00  0.00    +0.420 HD
BRANCH  26  28
ATOM     28  C   LIG    1       -2.953   0.335  -2.651  0.00  0.00    +0.290 C 
BRANCH  28  29
ATOM     29  C   LIG    1       -3.268   1.400  -3.704  0.00  0.00    +0.000 C 
ATOM     30  C   LIG    1       -4.646   2.006  -3.422  0.00  0.00    +0.050 C 
ATOM     31  C   LIG    1       -4.986   3.012  -4.525  0.00  0.00    +0.060 C 
ATOM     32  C   LIG    1       -4.928   2.311  -5.883  0.00  0.00    +0.240 C 
ATOM     33  N   LIG    1       -3.577   1.778  -6.105  0.00  0.00    -0.380 N 
ATOM     34  C   LIG    1       -3.498   1.185  -7.446  0.00  0.00    +0.250 C 
ATOM     35  C   LIG    1       -4.563   0.096  -7.588  0.00  0.00    +0.050 C 
ATOM     36  C   LIG    1       -4.323  -0.988  -6.533  0.00  0.00    +0.040 C 
ATOM     37  C   LIG    1       -4.331  -0.345  -5.143  0.00  0.00    +0.060 C 
ATOM     38  H   LIG    1       -2.906   2.528  -6.030  0.00  0.00    +0.420 HD
ATOM     39  C   LIG    1       -3.273   0.759  -5.093  0.00  0.00    +0.170 C 
ENDBRANCH  28  29
ENDBRANCH  26  28
ENDBRANCH  23  26
ENDBRANCH   4  23
TORSDOF 6
