REMARK  Name = ZINCrD000000Axju.0
REMARK                            x       y       z     vdW  Elec       q    Type
REMARK                         _______ _______ _______ _____ _____    ______ ____
ROOT
ATOM      1  S   LIG    1       -0.890   1.687  -1.462  0.00  0.00    +1.310 S 
ATOM      2  O   LIG    1       -0.837   3.106  -1.497  0.00  0.00    -0.800 OA
ENDROOT
BRANCH   1   3
ATOM      3  C   LIG    1       -0.013   1.086   0.008  0.00  0.00    -0.220 C 
BRANCH   3   5
ATOM      4  O   LIG    1       -1.715   2.256   1.150  0.00  0.00    -0.510 OA
ATOM      5  C   LIG    1       -0.718   1.572   1.248  0.00  0.00    +0.550 C 
ATOM      6  N   LIG    1       -0.242   1.246   2.466  0.00  0.00    -0.550 N 
ATOM      7  C   LIG    1       -0.839   1.658   3.739  0.00  0.00    +0.280 C 
ATOM      8  C   LIG    1        0.060   1.041   4.824  0.00  0.00    +0.100 C 
ATOM      9  C   LIG    1        1.132   0.302   4.055  0.00  0.00    -0.130 A 
ATOM     10  C   LIG    1        2.212  -0.439   4.493  0.00  0.00    +0.060 A 
ATOM     11  C   LIG    1        3.058  -1.041   3.579  0.00  0.00    -0.010 A 
ATOM     12  C   LIG    1        2.829  -0.886   2.224  0.00  0.00    +0.040 A 
ATOM     13  C   LIG    1        1.755  -0.142   1.783  0.00  0.00    -0.020 A 
ATOM     14  C   LIG    1        0.891   0.461   2.699  0.00  0.00    +0.140 A 
ENDBRANCH   3   5
ENDBRANCH   1   3
BRANCH   1  15
ATOM     15  C   LIG    1        0.092   1.010  -2.828  0.00  0.00    -0.190 C 
BRANCH  15  16
ATOM     16  C   LIG    1       -0.518   1.428  -4.141  0.00  0.00    -0.050 A 
ATOM     17  C   LIG    1       -0.119   2.607  -4.742  0.00  0.00    +0.040 A 
ATOM     18  C   LIG    1       -0.677   2.998  -5.948  0.00  0.00    -0.030 A 
ATOM     19  C   LIG    1       -1.637   2.202  -6.550  0.00  0.00    +0.080 A 
ATOM     20  O   LIG    1       -2.196   2.575  -7.738  0.00  0.00    -0.310 OA
ATOM     21  C   LIG    1       -1.864   1.765  -8.867  0.00  0.00    +0.230 C 
ATOM     22  C   LIG    1       -2.776   0.551  -8.947  0.00  0.00    -0.010 C 
ATOM     23  C   LIG    1       -2.591  -0.391  -7.767  0.00  0.00    +0.230 C 
ATOM     24  O   LIG    1       -2.984   0.241  -6.547  0.00  0.00    -0.310 OA
ATOM     25  C   LIG    1       -2.037   1.018  -5.946  0.00  0.00    +0.080 A 
ATOM     26 CL   LIG    1       -0.174   4.479  -6.702  0.00  0.00    -0.040 Cl
ATOM     27  C   LIG    1       -1.473   0.628  -4.743  0.00  0.00    +0.040 A 
ENDBRANCH  15  16
ENDBRANCH   1  15
TORSDOF 4
