REMARK  Name = ZINCqH0000037nFv.0
REMARK                            x       y       z     vdW  Elec       q    Type
REMARK                         _______ _______ _______ _____ _____    ______ ____
ROOT
ATOM      1  C   LIG    1        0.072   0.053   0.074  0.00  0.00    +0.070 C 
ATOM      2  C   LIG    1        0.032   1.582   0.050  0.00  0.00    +0.030 C 
ATOM      3  C   LIG    1       -0.715   2.048  -1.190  0.00  0.00    +0.030 C 
ATOM      4  C   LIG    1       -0.614   3.519  -1.491  0.00  0.00    +0.300 C 
ATOM      5  N   LIG    1       -1.314   4.320  -0.474  0.00  0.00    -0.570 N 
ATOM      6  C   LIG    1       -0.593   4.748   0.647  0.00  0.00    +0.170 A 
ATOM      7  C   LIG    1       -0.183   6.074   0.733  0.00  0.00    +0.010 A 
ATOM      8  C   LIG    1        0.618   6.477   1.785  0.00  0.00    +0.040 A 
ATOM      9  C   LIG    1        1.015   5.576   2.756  0.00  0.00    +0.010 A 
ATOM     10  C   LIG    1        0.594   4.258   2.690  0.00  0.00    +0.080 A 
ATOM     11  C   LIG    1       -0.215   3.859   1.643  0.00  0.00    -0.120 A 
ATOM     12  C   LIG    1       -2.617   4.633  -0.619  0.00  0.00    +0.580 C 
ATOM     13  O   LIG    1       -3.200   4.349  -1.646  0.00  0.00    -0.510 OA
ATOM     14  S   LIG    1       -0.804   2.186   1.544  0.00  0.00    -0.140 S 
ENDROOT
BRANCH  12  15
ATOM     15  C   LIG    1       -3.337   5.323   0.473  0.00  0.00    -0.110 A 
ATOM     16  C   LIG    1       -2.906   5.182   1.794  0.00  0.00    +0.020 A 
ATOM     17  C   LIG    1       -3.580   5.828   2.811  0.00  0.00    +0.030 A 
ATOM     18  C   LIG    1       -4.680   6.615   2.527  0.00  0.00    +0.000 A 
ATOM     19  C   LIG    1       -5.116   6.761   1.216  0.00  0.00    +0.180 A 
ATOM     20  C   LIG    1       -4.444   6.121   0.186  0.00  0.00    +0.070 A 
BRANCH  19  21
ATOM     21  N   LIG    1       -6.231   7.559   0.934  0.00  0.00    -0.570 N 
ATOM     22  C   LIG    1       -6.963   8.377   1.913  0.00  0.00    +0.260 C 
ATOM     23  C   LIG    1       -8.077   9.040   1.080  0.00  0.00    +0.270 C 
ATOM     24  N   LIG    1       -7.860   8.519  -0.278  0.00  0.00    -0.740 N 
ATOM     25  H   LIG    1       -8.396   8.737  -1.056  0.00  0.00    +0.440 HD
ATOM     26  C   LIG    1       -6.804   7.696  -0.269  0.00  0.00    +0.700 C 
ATOM     27  O   LIG    1       -6.401   7.124  -1.264  0.00  0.00    -0.560 OA
ENDBRANCH  19  21
ENDBRANCH  12  15
TORSDOF 2
