REMARK  Name = ZINCqH0000008lLl.0
REMARK                            x       y       z     vdW  Elec       q    Type
REMARK                         _______ _______ _______ _____ _____    ______ ____
ROOT
ATOM      1  N   LIG    1       -2.103   1.072   1.277  0.00  0.00    -0.720 N 
ATOM      2  H   LIG    1       -2.316   0.256   1.757  0.00  0.00    +0.400 HD
ATOM      3  C   LIG    1       -3.073   1.740   0.621  0.00  0.00    +0.510 C 
ATOM      4  O   LIG    1       -2.807   2.760   0.021  0.00  0.00    -0.540 OA
ENDROOT
BRANCH   1   6
ATOM      5  C   LIG    1       -0.013   1.086   0.008  0.00  0.00    +0.020 C 
ATOM      6  C   LIG    1       -0.729   1.579   1.267  0.00  0.00    +0.240 C 
BRANCH   6   7
ATOM      7  C   LIG    1        0.011   1.072   2.506  0.00  0.00    -0.060 C 
ATOM      8  C   LIG    1       -0.705   1.566   3.765  0.00  0.00    +0.020 C 
ATOM      9  C   LIG    1        0.035   1.059   5.005  0.00  0.00    -0.020 C 
ATOM     10  C   LIG    1        0.056  -0.471   4.996  0.00  0.00    +0.010 C 
ATOM     11  C   LIG    1        0.772  -0.964   3.737  0.00  0.00    -0.020 C 
ATOM     12  C   LIG    1        2.207  -0.435   3.727  0.00  0.00    +0.010 C 
ATOM     13  C   LIG    1        2.187   1.095   3.735  0.00  0.00    -0.020 C 
ATOM     14  C   LIG    1        1.470   1.589   4.994  0.00  0.00    +0.010 C 
ATOM     15  C   LIG    1        0.032  -0.457   2.498  0.00  0.00    +0.020 C 
ATOM     16  C   LIG    1        1.446   1.602   2.495  0.00  0.00    +0.030 C 
ENDBRANCH   6   7
ENDBRANCH   1   6
BRANCH   3  17
ATOM     17  C   LIG    1       -4.487   1.218   0.631  0.00  0.00    +0.300 C 
BRANCH  17  18
ATOM     18  N   LIG    1       -5.344   2.115  -0.148  0.00  0.00    -0.710 N 
ATOM     19  H   LIG    1       -4.965   2.902  -0.570  0.00  0.00    +0.410 HD
ATOM     20  C   LIG    1       -6.658   1.846  -0.278  0.00  0.00    +0.550 C 
ATOM     21  O   LIG    1       -7.132   0.860   0.251  0.00  0.00    -0.500 OA
BRANCH  20  22
ATOM     22  C   LIG    1       -7.523   2.751  -1.064  0.00  0.00    -0.110 A 
ATOM     23  C   LIG    1       -6.982   3.884  -1.673  0.00  0.00    +0.050 A 
ATOM     24  C   LIG    1       -7.795   4.724  -2.406  0.00  0.00    +0.030 A 
ATOM     25  C   LIG    1       -9.144   4.446  -2.537  0.00  0.00    +0.050 A 
ATOM     26  C   LIG    1       -9.687   3.325  -1.937  0.00  0.00    +0.050 A 
ATOM     27  C   LIG    1       -8.884   2.472  -1.206  0.00  0.00    -0.060 A 
ATOM     28  I   LIG    1       -9.707   0.770  -0.304  0.00  0.00    +0.010 I 
ENDBRANCH  20  22
ENDBRANCH  17  18
ENDBRANCH   3  17
TORSDOF 5
