REMARK  Name = ZINCpk00000xIiep.0
REMARK                            x       y       z     vdW  Elec       q    Type
REMARK                         _______ _______ _______ _____ _____    ______ ____
ROOT
ATOM      1  N   LIG    1       -1.238  -0.721  -0.195  0.00  0.00    -0.570 N 
ATOM      2  C   LIG    1       -2.373  -0.070   0.127  0.00  0.00    +0.520 C 
ATOM      3  O   LIG    1       -3.372  -0.696   0.410  0.00  0.00    -0.500 OA
ENDROOT
BRANCH   1   4
ATOM      4  C   LIG    1       -0.061  -0.002  -0.431  0.00  0.00    +0.120 A 
ATOM      5  C   LIG    1        0.553   0.687   0.606  0.00  0.00    +0.000 A 
ATOM      6  C   LIG    1        1.715   1.395   0.370  0.00  0.00    +0.030 A 
ATOM      7  C   LIG    1        2.267   1.419  -0.898  0.00  0.00    +0.020 A 
ATOM      8  C   LIG    1        1.657   0.735  -1.933  0.00  0.00    +0.030 A 
ATOM      9  C   LIG    1        0.495   0.024  -1.703  0.00  0.00    +0.010 A 
ENDBRANCH   1   4
BRANCH   1  10
ATOM     10  C   LIG    1       -1.236  -2.183  -0.298  0.00  0.00    +0.320 C 
BRANCH  10  11
ATOM     11  C   LIG    1       -0.895  -2.789   1.064  0.00  0.00    +0.040 C 
BRANCH  11  15
ATOM     12  N   LIG    1       -0.618  -5.045   2.042  0.00  0.00    -0.860 N 
ATOM     13  H   LIG    1       -0.617  -6.012   1.974  0.00  0.00    +0.400 HD
ATOM     14  H   LIG    1       -0.420  -4.618   2.890  0.00  0.00    +0.400 HD
ATOM     15  C   LIG    1       -0.894  -4.293   0.958  0.00  0.00    +0.520 C 
ATOM     16  O   LIG    1       -1.141  -4.826  -0.103  0.00  0.00    -0.540 OA
ENDBRANCH  11  15
ENDBRANCH  10  11
ENDBRANCH   1  10
BRANCH   2  17
ATOM     17  C   LIG    1       -2.400   1.437   0.136  0.00  0.00    +0.260 C 
BRANCH  17  18
ATOM     18  O   LIG    1       -3.754   1.895   0.389  0.00  0.00    -0.330 OA
BRANCH  18  19
ATOM     19  C   LIG    1       -3.952   3.228   0.429  0.00  0.00    +0.510 C 
ATOM     20  O   LIG    1       -3.018   3.986   0.257  0.00  0.00    -0.500 OA
BRANCH  19  21
ATOM     21  C   LIG    1       -5.302   3.766   0.682  0.00  0.00    -0.140 A 
ATOM     22  C   LIG    1       -6.378   2.895   0.875  0.00  0.00    +0.110 A 
ATOM     23  C   LIG    1       -7.636   3.401   1.115  0.00  0.00    -0.020 A 
ATOM     24  C   LIG    1       -7.838   4.776   1.156  0.00  0.00    +0.150 A 
ATOM     25  C   LIG    1       -6.771   5.646   0.960  0.00  0.00    -0.020 A 
ATOM     26  C   LIG    1       -5.509   5.147   0.724  0.00  0.00    +0.110 A 
BRANCH  24  27
ATOM     27  O   LIG    1       -9.080   5.271   1.387  0.00  0.00    -0.500 OA
ATOM     28  H   LIG    1       -9.601   5.417   0.586  0.00  0.00    +0.400 HD
ENDBRANCH  24  27
ENDBRANCH  19  21
ENDBRANCH  18  19
ENDBRANCH  17  18
ENDBRANCH   2  17
TORSDOF 9
