REMARK  Name = ZINCpk000000oA8w.0
REMARK                            x       y       z     vdW  Elec       q    Type
REMARK                         _______ _______ _______ _____ _____    ______ ____
ROOT
ATOM      1  S   LIG    1        3.871   0.543  -0.383  0.00  0.00    +2.710 S 
ATOM      2  O   LIG    1        4.150  -0.843  -0.240  0.00  0.00    -0.950 OA
ATOM      3  O   LIG    1        4.344   1.528   0.525  0.00  0.00    -0.950 OA
ENDROOT
BRANCH   1   4
ATOM      4  C   LIG    1        4.463   1.008  -1.976  0.00  0.00    -0.670 A 
ATOM      5  C   LIG    1        4.487   0.081  -3.001  0.00  0.00    +0.140 A 
ATOM      6  C   LIG    1        4.947   0.443  -4.253  0.00  0.00    +0.000 A 
ATOM      7  C   LIG    1        5.396   1.735  -4.481  0.00  0.00    +0.110 A 
ATOM      8  O   LIG    1        5.856   2.074  -5.716  0.00  0.00    -0.300 OA
ATOM      9  C   LIG    1        5.944   3.473  -6.008  0.00  0.00    +0.230 C 
ATOM     10  C   LIG    1        6.609   4.172  -4.815  0.00  0.00    +0.230 C 
ATOM     11  O   LIG    1        5.803   3.942  -3.654  0.00  0.00    -0.300 OA
ATOM     12  C   LIG    1        5.375   2.666  -3.450  0.00  0.00    +0.030 A 
ATOM     13  C   LIG    1        4.909   2.297  -2.197  0.00  0.00    +0.160 A 
ENDBRANCH   1   4
BRANCH   1  18
ATOM     14  C   LIG    1        1.454   1.847   0.065  0.00  0.00    +0.230 C 
ATOM     15  C   LIG    1       -0.041   1.522  -0.138  0.00  0.00    +0.050 C 
ATOM     16  C   LIG    1       -0.055  -0.029  -0.194  0.00  0.00    +0.050 C 
ATOM     17  C   LIG    1        1.279  -0.326  -0.922  0.00  0.00    +0.270 C 
ATOM     18  N   LIG    1        2.221   0.687  -0.412  0.00  0.00    -0.990 NA
BRANCH  14  20
ATOM     19  N   LIG    1        1.702   4.295  -0.184  0.00  0.00    -0.610 N 
ATOM     20  C   LIG    1        1.825   3.070  -0.733  0.00  0.00    +0.500 C 
ATOM     21  O   LIG    1        2.235   2.953  -1.868  0.00  0.00    -0.520 OA
BRANCH  19  23
ATOM     22  C   LIG    1        1.031   6.027  -1.776  0.00  0.00    +0.020 C 
ATOM     23  C   LIG    1        2.170   5.475  -0.915  0.00  0.00    +0.270 C 
ENDBRANCH  19  23
BRANCH  19  24
ATOM     24  C   LIG    1        1.100   4.446   1.143  0.00  0.00    +0.260 C 
ATOM     25  C   LIG    1        2.204   4.480   2.202  0.00  0.00    +0.020 C 
ENDBRANCH  19  24
ENDBRANCH  14  20
ENDBRANCH   1  18
TORSDOF 5
