REMARK  Name = ZINCnE000001IbJE.0
REMARK                            x       y       z     vdW  Elec       q    Type
REMARK                         _______ _______ _______ _____ _____    ______ ____
ROOT
ATOM      1  N   LIG    1        3.589   1.976   1.929  0.00  0.00    -0.670 NA
ATOM      2  C   LIG    1        2.361   1.422   1.881  0.00  0.00    +0.670 C 
ATOM      3  N   LIG    1        1.341   1.983   2.560  0.00  0.00    -0.740 N 
ATOM      4  H   LIG    1        1.491   2.786   3.084  0.00  0.00    +0.390 HD
ATOM      5  O   LIG    1        2.173   0.416   1.225  0.00  0.00    -0.640 OA
ENDROOT
BRANCH   1   9
ATOM      6  C   LIG    1        6.530   0.962   0.395  0.00  0.00    +0.160 A 
ATOM      7  N   LIG    1        5.671   0.068   0.005  0.00  0.00    -0.450 NA
ATOM      8  O   LIG    1        4.578   0.296   0.478  0.00  0.00    +0.010 OA
ATOM      9  C   LIG    1        4.633   1.401   1.233  0.00  0.00    +0.440 A 
ATOM     10  N   LIG    1        5.880   1.830   1.188  0.00  0.00    -0.570 NA
BRANCH   6  12
ATOM     11  C   LIG    1        8.805   0.223   1.050  0.00  0.00    +0.030 C 
ATOM     12  C   LIG    1        7.990   1.015   0.025  0.00  0.00    +0.130 C 
ENDBRANCH   6  12
ENDBRANCH   1   9
BRANCH   3  13
ATOM     13  C   LIG    1        0.007   1.381   2.508  0.00  0.00    +0.310 C 
BRANCH  13  14
ATOM     14  C   LIG    1       -0.765   1.763   3.745  0.00  0.00    -0.080 A 
ATOM     15  C   LIG    1       -0.662   3.043   4.256  0.00  0.00    +0.020 A 
ATOM     16  C   LIG    1       -1.374   3.394   5.388  0.00  0.00    +0.000 A 
ATOM     17  C   LIG    1       -2.181   2.462   6.014  0.00  0.00    +0.000 A 
ATOM     18  C   LIG    1       -2.279   1.181   5.506  0.00  0.00    +0.000 A 
ATOM     19  C   LIG    1       -1.571   0.831   4.371  0.00  0.00    +0.020 A 
ENDBRANCH  13  14
BRANCH  13  20
ATOM     20  C   LIG    1       -0.733   1.888   1.268  0.00  0.00    +0.040 C 
BRANCH  20  21
ATOM     21  C   LIG    1       -0.017   1.395   0.010  0.00  0.00    +0.460 C 
ATOM     22  F   LIG    1       -0.694   1.858  -1.124  0.00  0.00    -0.200 F 
ATOM     23  F   LIG    1        1.296   1.879  -0.000  0.00  0.00    -0.160 F 
ATOM     24  F   LIG    1        0.002  -0.004   0.002  0.00  0.00    -0.170 F 
ENDBRANCH  20  21
ENDBRANCH  13  20
ENDBRANCH   3  13
TORSDOF 6
