REMARK  Name = ZINCqH0000000q90.0
REMARK                            x       y       z     vdW  Elec       q    Type
REMARK                         _______ _______ _______ _____ _____    ______ ____
ROOT
ATOM      1  C   LIG    1       -2.707   2.942   4.747  0.00  0.00    +0.130 A 
ATOM      2  C   LIG    1       -2.400   4.111   5.337  0.00  0.00    -0.110 A 
ATOM      3  S   LIG    1       -3.442   4.308   6.745  0.00  0.00    +0.210 S 
ATOM      4  C   LIG    1       -4.208   2.762   6.394  0.00  0.00    +0.280 A 
ATOM      5  N   LIG    1       -3.676   2.249   5.328  0.00  0.00    -0.500 NA
ENDROOT
BRANCH   1   9
ATOM      6  C   LIG    1       -0.718   1.572   1.248  0.00  0.00    -0.080 A 
ATOM      7  C   LIG    1       -0.358   2.780   1.817  0.00  0.00    +0.020 A 
ATOM      8  C   LIG    1       -1.004   3.233   2.949  0.00  0.00    +0.030 A 
ATOM      9  C   LIG    1       -2.014   2.465   3.526  0.00  0.00    -0.020 A 
ATOM     10  C   LIG    1       -2.369   1.245   2.952  0.00  0.00    +0.050 A 
ATOM     11  C   LIG    1       -1.720   0.805   1.816  0.00  0.00    +0.020 A 
BRANCH   6  12
ATOM     12  C   LIG    1       -0.013   1.086   0.008  0.00  0.00    +0.070 C 
BRANCH  12  13
ATOM     13  C   LIG    1       -0.753   1.593  -1.232  0.00  0.00    +0.260 C 
BRANCH  13  16
ATOM     14  C   LIG    1        0.162   0.960  -4.895  0.00  0.00    +0.090 C 
ATOM     15  C   LIG    1       -0.543   1.446  -3.655  0.00  0.00    +0.510 C 
ATOM     16  N   LIG    1       -0.067   1.120  -2.437  0.00  0.00    -0.730 N 
ATOM     17  H   LIG    1        0.730   0.573  -2.358  0.00  0.00    +0.400 HD
ATOM     18  O   LIG    1       -1.540   2.130  -3.753  0.00  0.00    -0.540 OA
ENDBRANCH  13  16
ENDBRANCH  12  13
ENDBRANCH   6  12
ENDBRANCH   1   9
BRANCH   4  19
ATOM     19  N   LIG    1       -5.228   2.183   7.140  0.00  0.00    -0.620 N 
ATOM     20  H   LIG    1       -5.596   1.325   6.875  0.00  0.00    +0.430 HD
ATOM     21  C   LIG    1       -5.707   2.814   8.230  0.00  0.00    +0.510 C 
ATOM     22  O   LIG    1       -5.247   3.887   8.560  0.00  0.00    -0.490 OA
BRANCH  21  23
ATOM     23  C   LIG    1       -6.813   2.187   9.039  0.00  0.00    +0.160 C 
BRANCH  23  24
ATOM     24  C   LIG    1       -7.162   3.088  10.196  0.00  0.00    -0.100 A 
ATOM     25  C   LIG    1       -8.092   4.040  10.108  0.00  0.00    -0.040 A 
ATOM     26  S   LIG    1       -8.222   4.881  11.647  0.00  0.00    +0.110 S 
ATOM     27  C   LIG    1       -6.969   3.862  12.344  0.00  0.00    -0.040 A 
ATOM     28  C   LIG    1       -6.546   2.986  11.431  0.00  0.00    +0.020 A 
ENDBRANCH  23  24
ENDBRANCH  21  23
ENDBRANCH   4  19
TORSDOF 7
