REMARK  Name = ZINCqH0000038zrR.0
REMARK                            x       y       z     vdW  Elec       q    Type
REMARK                         _______ _______ _______ _____ _____    ______ ____
ROOT
ATOM      1  C   LIG    1        2.258   5.465   1.525  0.00  0.00    +0.240 C 
ENDROOT
BRANCH   1   4
ATOM      2  N   LIG    1        0.621   3.615   1.385  0.00  0.00    -0.730 N 
ATOM      3  H   LIG    1        1.364   2.995   1.439  0.00  0.00    +0.400 HD
ATOM      4  C   LIG    1        0.848   4.944   1.412  0.00  0.00    +0.510 C 
ATOM      5  O   LIG    1       -0.081   5.720   1.344  0.00  0.00    -0.500 OA
BRANCH   2   6
ATOM      6  C   LIG    1       -0.750   3.109   1.275  0.00  0.00    +0.290 C 
BRANCH   6   7
ATOM      7  C   LIG    1       -0.729   1.579   1.267  0.00  0.00    +0.080 C 
ATOM      8  C   LIG    1       -0.013   1.086   0.008  0.00  0.00    +0.050 C 
BRANCH   7  13
ATOM      9  C   LIG    1       -4.612  -0.949   3.043  0.00  0.00    +0.160 C 
ATOM     10  C   LIG    1       -3.901  -0.067   2.050  0.00  0.00    +0.070 A 
ATOM     11  C   LIG    1       -4.493   0.406   0.949  0.00  0.00    -0.080 A 
ATOM     12  S   LIG    1       -3.315   1.383   0.076  0.00  0.00    +0.130 S 
ATOM     13  C   LIG    1       -2.143   1.058   1.278  0.00  0.00    +0.050 A 
ATOM     14  N   LIG    1       -2.642   0.297   2.192  0.00  0.00    -0.470 NA
ENDBRANCH   7  13
ENDBRANCH   6   7
ENDBRANCH   2   6
ENDBRANCH   1   4
BRANCH   1  15
ATOM     15  O   LIG    1        2.238   6.893   1.533  0.00  0.00    -0.270 OA
BRANCH  15  16
ATOM     16  C   LIG    1        3.435   7.525   1.630  0.00  0.00    +0.190 A 
ATOM     17  C   LIG    1        4.603   6.787   1.722  0.00  0.00    -0.090 A 
ATOM     18  C   LIG    1        5.822   7.429   1.816  0.00  0.00    +0.100 A 
ATOM     19  C   LIG    1        5.884   8.812   1.830  0.00  0.00    -0.120 A 
ATOM     20  C   LIG    1        4.731   9.566   1.745  0.00  0.00    -0.000 A 
ATOM     21  C   LIG    1        4.536  11.063   1.739  0.00  0.00    +0.050 C 
ATOM     22  C   LIG    1        5.063  11.668   3.041  0.00  0.00    +0.050 C 
ATOM     23  C   LIG    1        3.024  11.299   1.622  0.00  0.00    +0.050 C 
ATOM     24  C   LIG    1        2.408   9.922   1.565  0.00  0.00    +0.400 C 
ATOM     25  O   LIG    1        1.224   9.675   1.471  0.00  0.00    -0.430 OA
ATOM     26  C   LIG    1        7.220   9.500   1.939  0.00  0.00    +0.100 C 
ATOM     27  C   LIG    1        3.490   8.933   1.644  0.00  0.00    -0.220 A 
ENDBRANCH  15  16
ENDBRANCH   1  15
TORSDOF 6
