REMARK  Name = ZINCrH000004syC8.0
REMARK                            x       y       z     vdW  Elec       q    Type
REMARK                         _______ _______ _______ _____ _____    ______ ____
ROOT
ATOM      1  C   LIG    1        0.171   1.017   0.194  0.00  0.00    +0.570 C 
ATOM      2  N   LIG    1       -0.913   1.416  -0.501  0.00  0.00    -0.650 N 
ATOM      3  H   LIG    1       -0.915   2.278  -0.945  0.00  0.00    +0.410 HD
ATOM      4  O   LIG    1        0.208  -0.098   0.676  0.00  0.00    -0.510 OA
ENDROOT
BRANCH   1  16
ATOM      5  C   LIG    1        2.366   0.246   1.903  0.00  0.00    +0.150 C 
ATOM      6  C   LIG    1        2.395   1.574   1.192  0.00  0.00    +0.230 A 
ATOM      7  N   LIG    1        3.422   2.366   1.359  0.00  0.00    -0.480 NA
ATOM      8  C   LIG    1        3.500   3.556   0.751  0.00  0.00    +0.180 A 
ATOM      9  C   LIG    1        4.612   4.391   0.944  0.00  0.00    +0.010 A 
ATOM     10  C   LIG    1        4.671   5.599   0.314  0.00  0.00    +0.140 A 
ATOM     11  C   LIG    1        3.639   6.024  -0.524  0.00  0.00    +0.000 A 
ATOM     12  C   LIG    1        2.546   5.242  -0.735  0.00  0.00    +0.100 A 
ATOM     13  F   LIG    1        5.744   6.397   0.505  0.00  0.00    -0.130 F 
ATOM     14  C   LIG    1        2.453   3.991  -0.102  0.00  0.00    -0.130 A 
ATOM     15  C   LIG    1        1.342   3.155  -0.301  0.00  0.00    +0.150 A 
ATOM     16  C   LIG    1        1.317   1.933   0.363  0.00  0.00    -0.190 A 
ENDBRANCH   1  16
BRANCH   2  17
ATOM     17  C   LIG    1       -2.038   0.585  -0.581  0.00  0.00    +0.170 A 
ATOM     18  C   LIG    1       -1.885  -0.793  -0.586  0.00  0.00    +0.030 A 
ATOM     19  C   LIG    1       -2.997  -1.612  -0.659  0.00  0.00    +0.030 A 
ATOM     20  C   LIG    1       -4.263  -1.060  -0.738  0.00  0.00    +0.010 A 
ATOM     21  C   LIG    1       -4.424   0.313  -0.739  0.00  0.00    -0.010 A 
ATOM     22  C   LIG    1       -3.315   1.141  -0.660  0.00  0.00    +0.060 A 
BRANCH  22  23
ATOM     23  N   LIG    1       -3.475   2.531  -0.661  0.00  0.00    -0.500 N 
ATOM     24  C   LIG    1       -4.221   2.976   0.526  0.00  0.00    +0.160 C 
ATOM     25  C   LIG    1       -4.321   4.503   0.515  0.00  0.00    +0.220 C 
ATOM     26  O   LIG    1       -4.940   4.927  -0.703  0.00  0.00    -0.380 OA
ATOM     27  C   LIG    1       -4.240   4.511  -1.879  0.00  0.00    +0.220 C 
ATOM     28  C   LIG    1       -4.139   2.984  -1.893  0.00  0.00    +0.160 C 
ENDBRANCH  22  23
ENDBRANCH   2  17
TORSDOF 3
