REMARK  Name = ZINCtV00001bB3FL.0
REMARK                            x       y       z     vdW  Elec       q    Type
REMARK                         _______ _______ _______ _____ _____    ______ ____
ROOT
ATOM      1  P   LIG    1       -5.620   0.395   0.052  0.00  0.00    +2.550 P 
ATOM      2  O   LIG    1       -6.263   0.243  -1.272  0.00  0.00    -1.010 OA
ENDROOT
BRANCH   1   3
ATOM      3  C   LIG    1       -4.650   1.928   0.081  0.00  0.00    -0.780 C 
ATOM      4  C   LIG    1       -3.882   2.243  -0.946  0.00  0.00    +0.290 C 
ATOM      5  N   LIG    1       -3.375   1.373  -1.900  0.00  0.00    -0.540 N 
ATOM      6  C   LIG    1       -2.606   2.047  -2.847  0.00  0.00    +0.150 A 
ATOM      7  C   LIG    1       -1.915   1.566  -3.958  0.00  0.00    -0.030 A 
ATOM      8  C   LIG    1       -1.204   2.433  -4.761  0.00  0.00    +0.050 A 
ATOM      9  C   LIG    1       -1.167   3.784  -4.468  0.00  0.00    -0.020 A 
ATOM     10  C   LIG    1       -1.846   4.268  -3.364  0.00  0.00    +0.070 A 
ATOM     11  C   LIG    1       -2.557   3.405  -2.559  0.00  0.00    -0.140 A 
ATOM     12  C   LIG    1       -3.623  -0.071  -1.914  0.00  0.00    +0.290 C 
ATOM     13  C   LIG    1       -3.382   3.624  -1.312  0.00  0.00    -0.010 C 
ATOM     14  C   LIG    1       -4.556   4.560  -1.605  0.00  0.00    +0.080 C 
ATOM     15  C   LIG    1       -2.513   4.194  -0.189  0.00  0.00    +0.070 C 
ENDBRANCH   1   3
BRANCH   1  16
ATOM     16  C   LIG    1       -4.525  -1.019   0.358  0.00  0.00    -0.750 A 
ATOM     17  C   LIG    1       -3.567  -0.949   1.352  0.00  0.00    +0.050 A 
ATOM     18  C   LIG    1       -2.736  -2.028   1.589  0.00  0.00    +0.000 A 
ATOM     19  C   LIG    1       -2.857  -3.174   0.824  0.00  0.00    +0.050 A 
ATOM     20  C   LIG    1       -3.811  -3.241  -0.174  0.00  0.00    +0.000 A 
ATOM     21  C   LIG    1       -4.645  -2.164  -0.407  0.00  0.00    +0.100 A 
ENDBRANCH   1  16
BRANCH   1  22
ATOM     22  O   LIG    1       -6.752   0.455   1.195  0.00  0.00    -0.640 OA
BRANCH  22  29
ATOM     23  C   LIG    1       -9.483   0.757   0.542  0.00  0.00    +0.120 C 
ATOM     24  C   LIG    1       -8.886  -0.567   0.944  0.00  0.00    -0.070 A 
ATOM     25  C   LIG    1       -9.680  -1.696   0.999  0.00  0.00    +0.030 A 
ATOM     26  C   LIG    1       -9.133  -2.909   1.375  0.00  0.00    +0.010 A 
ATOM     27  C   LIG    1       -7.790  -2.997   1.690  0.00  0.00    +0.030 A 
ATOM     28  C   LIG    1       -6.990  -1.872   1.631  0.00  0.00    -0.040 A 
ATOM     29  C   LIG    1       -7.536  -0.653   1.254  0.00  0.00    +0.100 A 
ENDBRANCH  22  29
ENDBRANCH   1  22
TORSDOF 4
