REMARK  Name = ZINCtV00000tRP7d.0
REMARK                            x       y       z     vdW  Elec       q    Type
REMARK                         _______ _______ _______ _____ _____    ______ ____
ROOT
ATOM      1  O   LIG    1       -0.456  -0.656  -2.582  0.00  0.00    -0.540 OA
ATOM      2  C   LIG    1       -1.438  -1.138  -2.051  0.00  0.00    +0.720 C 
ATOM      3  N   LIG    1       -2.311  -0.342  -1.401  0.00  0.00    -0.620 N 
ATOM      4  C   LIG    1       -3.536  -0.788  -0.731  0.00  0.00    +0.320 C 
ATOM      5  C   LIG    1       -4.181   0.461  -0.090  0.00  0.00    +0.080 C 
ATOM      6  C   LIG    1       -2.974   1.441   0.040  0.00  0.00    +0.010 C 
ATOM      7  C   LIG    1       -2.170   1.009   1.268  0.00  0.00    +0.020 C 
ATOM      8  C   LIG    1       -0.777   1.599   1.253  0.00  0.00    +0.000 C 
ATOM      9  C   LIG    1       -0.037   1.096   0.009  0.00  0.00    +0.010 C 
ATOM     10  C   LIG    1       -0.776   1.602  -1.230  0.00  0.00    +0.030 C 
ATOM     11  C   LIG    1       -2.206   1.112  -1.253  0.00  0.00    +0.230 C 
ATOM     12  N   LIG    1       -1.655  -2.466  -2.113  0.00  0.00    -0.680 N 
ATOM     13  H   LIG    1       -2.392  -2.861  -1.622  0.00  0.00    +0.410 HD
ENDROOT
BRANCH   4  14
ATOM     14  C   LIG    1       -4.487  -1.403  -1.725  0.00  0.00    +0.260 A 
ATOM     15  N   LIG    1       -5.705  -1.775  -1.460  0.00  0.00    -0.470 NA
ATOM     16  C   LIG    1       -6.280  -2.283  -2.580  0.00  0.00    +0.050 A 
ATOM     17  C   LIG    1       -7.542  -2.814  -2.859  0.00  0.00    +0.070 A 
ATOM     18  C   LIG    1       -7.830  -3.262  -4.117  0.00  0.00    +0.000 A 
ATOM     19  C   LIG    1       -6.879  -3.196  -5.126  0.00  0.00    +0.040 A 
ATOM     20  C   LIG    1       -5.628  -2.676  -4.874  0.00  0.00    +0.010 A 
ATOM     21  C   LIG    1       -5.318  -2.216  -3.602  0.00  0.00    +0.050 A 
ATOM     22  N   LIG    1       -4.194  -1.654  -3.030  0.00  0.00    -0.590 N 
ATOM     23  H   LIG    1       -3.352  -1.472  -3.476  0.00  0.00    +0.420 HD
ENDBRANCH   4  14
BRANCH  12  24
ATOM     24  C   LIG    1       -0.815  -3.277  -2.886  0.00  0.00    +0.190 A 
ATOM     25  C   LIG    1       -0.120  -2.736  -3.958  0.00  0.00    +0.050 A 
ATOM     26  C   LIG    1        0.713  -3.538  -4.717  0.00  0.00    -0.010 A 
ATOM     27  C   LIG    1        0.845  -4.882  -4.414  0.00  0.00    +0.030 A 
ATOM     28  C   LIG    1        0.148  -5.426  -3.350  0.00  0.00    +0.080 A 
ATOM     29 CL   LIG    1        1.588  -2.861  -6.054  0.00  0.00    -0.050 Cl
ATOM     30  C   LIG    1       -0.681  -4.628  -2.585  0.00  0.00    -0.070 A 
ATOM     31 CL   LIG    1       -1.553  -5.311  -1.248  0.00  0.00    -0.050 Cl
ENDBRANCH  12  24
TORSDOF 2
