REMARK  Name = ZINCqH0000002Xrp.0
REMARK                            x       y       z     vdW  Elec       q    Type
REMARK                         _______ _______ _______ _____ _____    ______ ____
ROOT
ATOM      1  C   LIG    1       -1.725   0.752   1.546  0.00  0.00    -0.020 C 
ATOM      2  C   LIG    1       -2.881   1.601   2.080  0.00  0.00    +0.060 C 
ATOM      3  C   LIG    1       -3.981   1.698   1.021  0.00  0.00    +0.030 C 
ATOM      4  C   LIG    1       -3.420   2.378  -0.232  0.00  0.00    +0.270 C 
ATOM      5  N   LIG    1       -2.224   1.648  -0.670  0.00  0.00    -0.600 N 
ATOM      6  C   LIG    1       -2.120   1.196  -1.936  0.00  0.00    +0.570 C 
ATOM      7  O   LIG    1       -1.121   0.599  -2.289  0.00  0.00    -0.530 OA
ATOM      8  C   LIG    1       -1.141   1.419   0.297  0.00  0.00    +0.300 C 
ENDROOT
BRANCH   6   9
ATOM      9  C   LIG    1       -3.220   1.427  -2.895  0.00  0.00    -0.150 A 
ATOM     10  C   LIG    1       -4.011   2.573  -2.792  0.00  0.00    +0.080 A 
ATOM     11  C   LIG    1       -5.032   2.786  -3.692  0.00  0.00    -0.010 A 
ATOM     12  C   LIG    1       -5.282   1.859  -4.692  0.00  0.00    +0.130 A 
ATOM     13  C   LIG    1       -4.504   0.716  -4.796  0.00  0.00    -0.010 A 
ATOM     14  F   LIG    1       -6.288   2.070  -5.569  0.00  0.00    -0.130 F 
ATOM     15  C   LIG    1       -3.476   0.496  -3.904  0.00  0.00    +0.110 A 
ENDBRANCH   6   9
BRANCH   1  17
ATOM     16  N   LIG    1        0.319  -0.290   2.470  0.00  0.00    -0.550 N 
ATOM     17  C   LIG    1       -0.655   0.633   2.600  0.00  0.00    +0.520 C 
ATOM     18  O   LIG    1       -0.669   1.368   3.564  0.00  0.00    -0.510 OA
BRANCH  16  19
ATOM     19  C   LIG    1        1.218  -0.510   3.520  0.00  0.00    +0.150 A 
ATOM     20  C   LIG    1        1.016   0.103   4.749  0.00  0.00    +0.010 A 
ATOM     21  C   LIG    1        1.903  -0.120   5.785  0.00  0.00    +0.020 A 
ATOM     22  C   LIG    1        2.996  -0.945   5.595  0.00  0.00    -0.020 A 
ATOM     23  C   LIG    1        3.203  -1.553   4.370  0.00  0.00    +0.020 A 
ATOM     24  C   LIG    1        2.317  -1.338   3.332  0.00  0.00    -0.030 A 
ENDBRANCH  16  19
BRANCH  16  26
ATOM     25  C   LIG    1        1.478  -0.410   0.320  0.00  0.00    +0.040 C 
ATOM     26  C   LIG    1        0.436  -1.062   1.231  0.00  0.00    +0.270 C 
ENDBRANCH  16  26
ENDBRANCH   1  17
TORSDOF 4
