REMARK  Name = ZINCrg00000SjStc.0
REMARK                            x       y       z     vdW  Elec       q    Type
REMARK                         _______ _______ _______ _____ _____    ______ ____
ROOT
ATOM      1  N   LIG    1       -2.756   3.149   1.700  0.00  0.00    -0.590 N 
ATOM      2  C   LIG    1       -1.651   2.421   1.444  0.00  0.00    +0.500 C 
ATOM      3  O   LIG    1       -0.989   1.982   2.360  0.00  0.00    -0.510 OA
ENDROOT
BRANCH   1   4
ATOM      4  C   LIG    1       -3.157   3.410   3.084  0.00  0.00    +0.270 C 
ATOM      5  C   LIG    1       -2.039   4.179   3.810  0.00  0.00    +0.070 C 
ATOM      6  C   LIG    1       -2.375   4.128   5.323  0.00  0.00    -0.310 C 
ATOM      7  S   LIG    1       -2.916   2.391   5.553  0.00  0.00    +2.390 S 
ATOM      8  O   LIG    1       -4.075   2.364   6.374  0.00  0.00    -0.940 OA
ATOM      9  O   LIG    1       -1.791   1.588   5.885  0.00  0.00    -0.920 OA
ATOM     10  C   LIG    1       -3.391   2.075   3.817  0.00  0.00    -0.330 C 
ENDBRANCH   1   4
BRANCH   1  11
ATOM     11  C   LIG    1       -3.556   3.679   0.593  0.00  0.00    +0.230 C 
ATOM     12  C   LIG    1       -3.602   5.206   0.683  0.00  0.00    +0.040 C 
BRANCH  11  14
ATOM     13  C   LIG    1       -4.944   1.606   0.464  0.00  0.00    +0.020 C 
ATOM     14  C   LIG    1       -4.978   3.121   0.678  0.00  0.00    +0.010 C 
ENDBRANCH  11  14
ENDBRANCH   1  11
BRANCH   2  15
ATOM     15  C   LIG    1       -1.239   2.152   0.020  0.00  0.00    +0.360 C 
BRANCH  15  16
ATOM     16  N   LIG    1       -0.016   1.345   0.009  0.00  0.00    -0.560 N 
ATOM     17  C   LIG    1        1.222   1.855   0.000  0.00  0.00    +0.710 C 
ATOM     18  N   LIG    1        2.171   0.899  -0.014  0.00  0.00    -0.710 N 
ATOM     19  H   LIG    1        3.131   1.035  -0.023  0.00  0.00    +0.440 HD
ATOM     20  C   LIG    1        1.464  -0.388  -0.014  0.00  0.00    +0.130 C 
ATOM     21  C   LIG    1        1.792  -1.178  -1.276  0.00  0.00    +0.050 C 
ATOM     22  C   LIG    1        3.281  -1.532  -1.287  0.00  0.00    +0.020 C 
ATOM     23  C   LIG    1        3.616  -2.361  -0.045  0.00  0.00    +0.010 C 
ATOM     24  C   LIG    1        3.305  -1.546   1.212  0.00  0.00    +0.020 C 
ATOM     25  C   LIG    1        1.816  -1.192   1.233  0.00  0.00    +0.050 C 
ATOM     26  O   LIG    1        1.462   3.046   0.004  0.00  0.00    -0.540 OA
ATOM     27  C   LIG    1        0.002  -0.004   0.002  0.00  0.00    +0.540 C 
ATOM     28  O   LIG    1       -0.953  -0.751   0.006  0.00  0.00    -0.460 OA
ENDBRANCH  15  16
ENDBRANCH   2  15
TORSDOF 5
