REMARK  Name = ZINCkj00000y7AMd.1
REMARK                            x       y       z     vdW  Elec       q    Type
REMARK                         _______ _______ _______ _____ _____    ______ ____
ROOT
ATOM      1  N   LIG    1       -0.391   1.946  -3.609  0.00  0.00    -0.380 N 
ATOM      2  C   LIG    1       -0.335   3.419  -3.657  0.00  0.00    +0.280 C 
ATOM      3  C   LIG    1        0.274   3.812  -5.016  0.00  0.00    +0.200 C 
ATOM      4  C   LIG    1        1.055   2.537  -5.430  0.00  0.00    +0.070 C 
ATOM      5  C   LIG    1        0.135   1.416  -4.885  0.00  0.00    +0.240 C 
ATOM      6  H   LIG    1       -1.347   1.647  -3.486  0.00  0.00    +0.430 HD
ENDROOT
BRANCH   5   7
ATOM      7  C   LIG    1        0.928   0.158  -4.644  0.00  0.00    -0.120 A 
ATOM      8  C   LIG    1        0.399  -1.070  -4.993  0.00  0.00    +0.040 A 
ATOM      9  C   LIG    1        1.128  -2.225  -4.777  0.00  0.00    +0.070 A 
ATOM     10  C   LIG    1        2.381  -2.154  -4.201  0.00  0.00    +0.030 A 
ATOM     11  C   LIG    1        2.910  -0.925  -3.845  0.00  0.00    +0.110 A 
ATOM     12  F   LIG    1        4.136  -0.854  -3.281  0.00  0.00    -0.120 F 
ATOM     13  C   LIG    1        2.182   0.231  -4.067  0.00  0.00    -0.010 A 
ENDBRANCH   5   7
BRANCH   3  14
ATOM     14  O   LIG    1       -0.753   4.106  -5.965  0.00  0.00    -0.560 OA
ATOM     15  H   LIG    1       -0.424   4.285  -6.857  0.00  0.00    +0.400 HD
ENDBRANCH   3  14
BRANCH   1  16
ATOM     16  C   LIG    1        0.430   1.456  -2.494  0.00  0.00    +0.230 C 
BRANCH  16  17
ATOM     17  C   LIG    1       -0.195   1.896  -1.169  0.00  0.00    +0.220 C 
BRANCH  17  18
ATOM     18  O   LIG    1       -1.466   1.264  -1.008  0.00  0.00    -0.540 OA
ATOM     19  H   LIG    1       -1.427   0.298  -0.998  0.00  0.00    +0.390 HD
ENDBRANCH  17  18
BRANCH  17  20
ATOM     20  C   LIG    1        0.724   1.493  -0.013  0.00  0.00    +0.160 C 
BRANCH  20  21
ATOM     21  O   LIG    1        0.199   2.005   1.213  0.00  0.00    -0.380 OA
BRANCH  21  23
ATOM     22  C   LIG    1        0.334   2.280   3.611  0.00  0.00    +0.060 C 
ATOM     23  C   LIG    1        0.987   1.684   2.361  0.00  0.00    +0.160 C 
ENDBRANCH  21  23
ENDBRANCH  20  21
ENDBRANCH  17  20
ENDBRANCH  16  17
ENDBRANCH   1  16
TORSDOF 8
