REMARK  Name = ZINCkj00000y7AMd.0
REMARK                            x       y       z     vdW  Elec       q    Type
REMARK                         _______ _______ _______ _____ _____    ______ ____
ROOT
ATOM      1  N   LIG    1       -1.397  -1.999   0.251  0.00  0.00    -0.390 N 
ATOM      2  C   LIG    1       -0.941  -2.601  -1.028  0.00  0.00    +0.300 C 
ATOM      3  C   LIG    1       -1.491  -4.049  -0.953  0.00  0.00    +0.190 C 
ATOM      4  C   LIG    1       -2.864  -3.863  -0.267  0.00  0.00    +0.060 C 
ATOM      5  C   LIG    1       -2.762  -2.520   0.480  0.00  0.00    +0.230 C 
ATOM      6  H   LIG    1       -0.786  -2.278   1.004  0.00  0.00    +0.420 HD
ENDROOT
BRANCH   5   7
ATOM      7  C   LIG    1       -2.988  -2.735   1.955  0.00  0.00    -0.110 A 
ATOM      8  C   LIG    1       -1.979  -3.261   2.739  0.00  0.00    -0.010 A 
ATOM      9  C   LIG    1       -2.183  -3.454   4.093  0.00  0.00    +0.080 A 
ATOM     10  C   LIG    1       -3.401  -3.130   4.662  0.00  0.00    +0.020 A 
ATOM     11  C   LIG    1       -4.414  -2.607   3.876  0.00  0.00    +0.120 A 
ATOM     12  F   LIG    1       -5.604  -2.290   4.430  0.00  0.00    -0.120 F 
ATOM     13  C   LIG    1       -4.206  -2.410   2.521  0.00  0.00    +0.020 A 
ENDBRANCH   5   7
BRANCH   3  14
ATOM     14  O   LIG    1       -1.650  -4.598  -2.262  0.00  0.00    -0.540 OA
ATOM     15  H   LIG    1       -2.062  -5.473  -2.274  0.00  0.00    +0.400 HD
ENDBRANCH   3  14
BRANCH   1  16
ATOM     16  C   LIG    1       -1.427  -0.534   0.139  0.00  0.00    +0.240 C 
BRANCH  16  17
ATOM     17  C   LIG    1        0.002  -0.004   0.002  0.00  0.00    +0.220 C 
BRANCH  17  18
ATOM     18  O   LIG    1        0.566  -0.466  -1.227  0.00  0.00    -0.540 OA
ATOM     19  H   LIG    1        0.080  -0.183  -2.014  0.00  0.00    +0.390 HD
ENDBRANCH  17  18
BRANCH  17  20
ATOM     20  C   LIG    1       -0.019   1.526   0.010  0.00  0.00    +0.160 C 
BRANCH  20  21
ATOM     21  O   LIG    1        1.322   2.020   0.000  0.00  0.00    -0.380 OA
BRANCH  21  23
ATOM     22  C   LIG    1        2.888   3.861  -0.005  0.00  0.00    +0.060 C 
ATOM     23  C   LIG    1        1.415   3.446   0.007  0.00  0.00    +0.160 C 
ENDBRANCH  21  23
ENDBRANCH  20  21
ENDBRANCH  17  20
ENDBRANCH  16  17
ENDBRANCH   1  16
TORSDOF 8
