REMARK  Name = ZINCqH0000007Ugw.0
REMARK                            x       y       z     vdW  Elec       q    Type
REMARK                         _______ _______ _______ _____ _____    ______ ____
ROOT
ATOM      1  C   LIG    1        3.904  -0.902   4.417  0.00  0.00    +0.080 A 
ATOM      2  C   LIG    1        4.721  -0.406   5.381  0.00  0.00    +0.090 A 
ATOM      3  N   LIG    1        5.132   0.822   4.962  0.00  0.00    -0.220 N 
ATOM      4  N   LIG    1        4.622   1.091   3.814  0.00  0.00    -0.230 NA
ATOM      5  C   LIG    1        3.854   0.096   3.411  0.00  0.00    -0.010 A 
ENDROOT
BRANCH   3   6
ATOM      6  C   LIG    1        5.991   1.668   5.676  0.00  0.00    +0.140 A 
ATOM      7  C   LIG    1        6.485   1.274   6.912  0.00  0.00    +0.000 A 
ATOM      8  C   LIG    1        7.337   2.107   7.611  0.00  0.00    +0.050 A 
ATOM      9  C   LIG    1        7.687   3.338   7.086  0.00  0.00    +0.010 A 
ATOM     10  C   LIG    1        7.192   3.735   5.858  0.00  0.00    +0.040 A 
ATOM     11  C   LIG    1        6.345   2.904   5.152  0.00  0.00    +0.030 A 
ENDBRANCH   3   6
BRANCH   5  12
ATOM     12  C   LIG    1        3.094   0.030   2.149  0.00  0.00    +0.600 C 
ATOM     13  N   LIG    1        3.230   1.007   1.230  0.00  0.00    -0.600 N 
ATOM     14  C   LIG    1        4.061   2.177   1.521  0.00  0.00    +0.300 C 
ATOM     15  O   LIG    1        2.345  -0.904   1.938  0.00  0.00    -0.510 OA
BRANCH  13  16
ATOM     16  C   LIG    1        2.546   0.897  -0.061  0.00  0.00    +0.350 C 
BRANCH  16  17
ATOM     17  C   LIG    1        1.232   1.633   0.003  0.00  0.00    -0.110 A 
ATOM     18  C   LIG    1        0.805   2.183   1.196  0.00  0.00    +0.020 A 
ATOM     19  C   LIG    1       -0.402   2.853   1.256  0.00  0.00    -0.010 A 
ATOM     20  C   LIG    1       -1.178   2.982   0.120  0.00  0.00    -0.080 A 
ATOM     21  C   LIG    1       -0.751   2.432  -1.075  0.00  0.00    +0.000 A 
ATOM     22  C   LIG    1       -2.492   3.718   0.184  0.00  0.00    +0.100 C 
ATOM     23  C   LIG    1        0.454   1.758  -1.133  0.00  0.00    -0.080 A 
ATOM     24  C   LIG    1        0.919   1.159  -2.435  0.00  0.00    +0.090 C 
ENDBRANCH  16  17
ENDBRANCH  13  16
ENDBRANCH   5  12
BRANCH   1  26
ATOM     25  C   LIG    1        3.471  -2.948   5.552  0.00  0.00    +0.230 C 
ATOM     26  O   LIG    1        3.266  -2.105   4.417  0.00  0.00    -0.270 OA
ENDBRANCH   1  26
TORSDOF 5
