REMARK  Name = ZINCqH0000005igr.0
REMARK                            x       y       z     vdW  Elec       q    Type
REMARK                         _______ _______ _______ _____ _____    ______ ____
ROOT
ATOM      1  C   LIG    1       -3.008   2.540  -3.194  0.00  0.00    +0.280 C 
ATOM      2  N   LIG    1       -3.228   1.504  -2.183  0.00  0.00    -0.620 N 
ATOM      3  C   LIG    1       -2.256   1.209  -1.297  0.00  0.00    +0.500 C 
ATOM      4  O   LIG    1       -2.438   0.351  -0.460  0.00  0.00    -0.500 OA
ENDROOT
BRANCH   3   5
ATOM      5  C   LIG    1       -0.942   1.946  -1.348  0.00  0.00    +0.100 C 
BRANCH   5   6
ATOM      6  C   LIG    1       -0.021   1.424  -0.243  0.00  0.00    +0.060 C 
ATOM      7  C   LIG    1       -0.549   1.816   1.121  0.00  0.00    +0.530 C 
ATOM      8  N   LIG    1        0.385   2.589   1.699  0.00  0.00    -0.670 N 
ATOM      9  H   LIG    1        0.295   2.976   2.584  0.00  0.00    +0.410 HD
ATOM     10  C   LIG    1        1.500   2.771   0.881  0.00  0.00    +0.150 A 
ATOM     11  C   LIG    1        2.676   3.489   1.091  0.00  0.00    -0.010 A 
ATOM     12  C   LIG    1        3.652   3.520   0.115  0.00  0.00    +0.050 A 
ATOM     13  C   LIG    1        3.471   2.841  -1.076  0.00  0.00    -0.010 A 
ATOM     14  C   LIG    1        2.305   2.126  -1.291  0.00  0.00    +0.070 A 
ATOM     15  O   LIG    1       -1.616   1.494   1.601  0.00  0.00    -0.460 OA
ATOM     16  C   LIG    1        1.331   2.093  -0.320  0.00  0.00    -0.140 A 
ENDBRANCH   5   6
ENDBRANCH   3   5
BRANCH   2  17
ATOM     17  C   LIG    1       -4.505   0.787  -2.133  0.00  0.00    +0.350 C 
BRANCH  17  18
ATOM     18  C   LIG    1       -5.487   1.569  -1.299  0.00  0.00    -0.050 A 
ATOM     19  C   LIG    1       -5.134   2.806  -0.793  0.00  0.00    +0.020 A 
ATOM     20  C   LIG    1       -6.037   3.525  -0.032  0.00  0.00    +0.050 A 
ATOM     21  C   LIG    1       -7.289   3.002   0.232  0.00  0.00    +0.020 A 
ATOM     22  C   LIG    1       -7.641   1.763  -0.270  0.00  0.00    +0.070 A 
ATOM     23  C   LIG    1       -6.740   1.046  -1.035  0.00  0.00    -0.180 A 
BRANCH  23  24
ATOM     24  C   LIG    1       -7.123  -0.305  -1.582  0.00  0.00    +0.510 C 
ATOM     25  F   LIG    1       -6.194  -1.260  -1.156  0.00  0.00    -0.170 F 
ATOM     26  F   LIG    1       -7.134  -0.256  -2.980  0.00  0.00    -0.180 F 
ATOM     27  F   LIG    1       -8.396  -0.652  -1.117  0.00  0.00    -0.180 F 
ENDBRANCH  23  24
ENDBRANCH  17  18
ENDBRANCH   2  17
TORSDOF 5
