REMARK  Name = ZINCpe000015zRoj.0
REMARK                            x       y       z     vdW  Elec       q    Type
REMARK                         _______ _______ _______ _____ _____    ______ ____
ROOT
ATOM      1  N   LIG    1        3.629  -0.356  -0.573  0.00  0.00    -0.470 N 
ATOM      2  C   LIG    1        3.999  -1.367   0.428  0.00  0.00    +0.210 C 
ATOM      3  C   LIG    1        5.335  -2.003   0.037  0.00  0.00    +0.190 C 
ATOM      4  N   LIG    1        6.364  -0.958  -0.057  0.00  0.00    -0.530 NA
ATOM      5  C   LIG    1        5.994   0.052  -1.058  0.00  0.00    +0.200 C 
ATOM      6  C   LIG    1        4.658   0.689  -0.666  0.00  0.00    +0.210 C 
ENDROOT
BRANCH   1  12
ATOM      7  C   LIG    1        1.361   0.137  -1.244  0.00  0.00    +0.050 A 
ATOM      8  N   LIG    1        0.175   0.667  -0.962  0.00  0.00    -0.380 NA
ATOM      9  C   LIG    1       -0.031   1.239   0.208  0.00  0.00    +0.220 A 
ATOM     10  C   LIG    1        0.986   1.292   1.150  0.00  0.00    +0.270 A 
ATOM     11  N   LIG    1        2.170   0.770   0.884  0.00  0.00    -0.470 NA
ATOM     12  C   LIG    1        2.391   0.191  -0.290  0.00  0.00    +0.310 A 
BRANCH   7  14
ATOM     13  N   LIG    1        0.641  -0.464  -3.504  0.00  0.00    -0.480 N 
ATOM     14  C   LIG    1        1.595  -0.504  -2.554  0.00  0.00    +0.580 C 
ATOM     15  O   LIG    1        2.649  -1.068  -2.775  0.00  0.00    -0.470 OA
ATOM     16  C   LIG    1        0.873  -1.099  -4.803  0.00  0.00    +0.330 C 
BRANCH  13  18
ATOM     17  C   LIG    1       -0.589   1.579  -3.598  0.00  0.00    +0.210 C 
ATOM     18  O   LIG    1       -0.587   0.194  -3.247  0.00  0.00    -0.120 OA
ENDBRANCH  13  18
ENDBRANCH   7  14
ENDBRANCH   1  12
BRANCH   4  19
ATOM     19  C   LIG    1        7.679  -1.540  -0.357  0.00  0.00    +0.250 C 
BRANCH  19  20
ATOM     20  C   LIG    1        8.133  -2.382   0.806  0.00  0.00    +0.140 A 
ATOM     21  C   LIG    1        7.894  -3.743   0.799  0.00  0.00    -0.040 A 
ATOM     22  C   LIG    1        8.317  -4.509   1.875  0.00  0.00    +0.060 A 
ATOM     23  C   LIG    1        8.966  -3.874   2.922  0.00  0.00    -0.040 A 
ATOM     24  C   LIG    1        9.170  -2.509   2.860  0.00  0.00    +0.260 A 
ATOM     25  N   LIG    1        8.759  -1.812   1.818  0.00  0.00    -0.470 NA
ENDBRANCH  19  20
ENDBRANCH   4  19
TORSDOF 5
