REMARK  Name = ZINCvU000000072u.0
REMARK                            x       y       z     vdW  Elec       q    Type
REMARK                         _______ _______ _______ _____ _____    ______ ____
ROOT
ATOM      1  C   LIG    1       -1.232   2.195   0.020  0.00  0.00    +0.320 C 
ATOM      2  N   LIG    1       -0.017   1.377   0.010  0.00  0.00    -0.460 N 
ATOM      3  C   LIG    1        0.002  -0.004   0.002  0.00  0.00    +0.090 A 
ATOM      4  C   LIG    1       -1.007  -0.962   0.006  0.00  0.00    +0.010 A 
ATOM      5  C   LIG    1       -0.685  -2.302  -0.005  0.00  0.00    +0.030 A 
ATOM      6  C   LIG    1        0.640  -2.710  -0.019  0.00  0.00    +0.010 A 
ATOM      7  C   LIG    1        1.654  -1.777  -0.023  0.00  0.00    +0.040 A 
ATOM      8  C   LIG    1        1.343  -0.420  -0.013  0.00  0.00    -0.060 A 
ATOM      9  C   LIG    1        2.155   0.811  -0.014  0.00  0.00    -0.270 A 
ATOM     10  C   LIG    1        1.252   1.872   0.000  0.00  0.00    +0.240 A 
ENDROOT
BRANCH  10  11
ATOM     11  C   LIG    1        1.612   3.303   0.004  0.00  0.00    -0.070 A 
ATOM     12  C   LIG    1        2.616   3.771   0.855  0.00  0.00    +0.090 A 
ATOM     13  C   LIG    1        2.952   5.109   0.848  0.00  0.00    +0.010 A 
ATOM     14  C   LIG    1        2.288   5.988   0.011  0.00  0.00    +0.030 A 
ATOM     15  C   LIG    1        1.289   5.532  -0.830  0.00  0.00    +0.000 A 
ATOM     16  C   LIG    1        0.947   4.196  -0.839  0.00  0.00    +0.020 A 
ENDBRANCH  10  11
BRANCH   9  17
ATOM     17  C   LIG    1        3.566   0.898  -0.028  0.00  0.00    +0.410 C 
ATOM     18  O   LIG    1        4.107   1.985  -0.028  0.00  0.00    -0.450 OA
BRANCH  17  19
ATOM     19  C   LIG    1        4.397  -0.359  -0.043  0.00  0.00    +0.310 C 
BRANCH  19  20
ATOM     20  N   LIG    1        5.819  -0.003  -0.056  0.00  0.00    -0.470 N 
ATOM     21  C   LIG    1        6.482   0.153   1.119  0.00  0.00    +0.400 A 
ATOM     22  C   LIG    1        7.795   0.481   1.133  0.00  0.00    -0.290 A 
ATOM     23  C   LIG    1        8.485   0.662  -0.074  0.00  0.00    +0.180 A 
ATOM     24  C   LIG    1        7.817   0.505  -1.254  0.00  0.00    -0.150 A 
ATOM     25 CL   LIG    1        8.643   0.722  -2.765  0.00  0.00    -0.010 Cl
ATOM     26  C   LIG    1        6.454   0.159  -1.232  0.00  0.00    +0.530 A 
ATOM     27  O   LIG    1        5.845   0.011  -2.280  0.00  0.00    -0.500 OA
BRANCH  22  28
ATOM     28  C   LIG    1        8.515   0.650   2.446  0.00  0.00    +0.530 C 
ATOM     29  F   LIG    1        7.594   0.987   3.443  0.00  0.00    -0.180 F 
ATOM     30  F   LIG    1        9.467   1.668   2.328  0.00  0.00    -0.170 F 
ATOM     31  F   LIG    1        9.154  -0.548   2.785  0.00  0.00    -0.170 F 
ENDBRANCH  22  28
ENDBRANCH  19  20
ENDBRANCH  17  19
ENDBRANCH   9  17
TORSDOF 5
