REMARK  Name = ZINCqH0000000Vw2.0
REMARK                            x       y       z     vdW  Elec       q    Type
REMARK                         _______ _______ _______ _____ _____    ______ ____
ROOT
ATOM      1  S   LIG    1       -1.179  -1.380   0.080  0.00  0.00    +2.690 S 
ATOM      2  O   LIG    1       -0.383  -2.552   0.188  0.00  0.00    -0.920 OA
ATOM      3  O   LIG    1       -2.174  -1.206  -0.920  0.00  0.00    -0.920 OA
ENDROOT
BRANCH   1   4
ATOM      4  C   LIG    1       -0.059  -0.032  -0.093  0.00  0.00    -0.630 A 
ATOM      5  C   LIG    1        0.263   0.744   1.004  0.00  0.00    +0.140 A 
ATOM      6  C   LIG    1        1.142   1.802   0.870  0.00  0.00    +0.070 A 
ATOM      7  C   LIG    1        1.699   2.085  -0.365  0.00  0.00    +0.010 A 
ATOM      8  C   LIG    1        1.377   1.308  -1.463  0.00  0.00    +0.080 A 
ATOM      9 CL   LIG    1        2.803   3.414  -0.535  0.00  0.00    -0.030 Cl
ATOM     10  C   LIG    1        0.498   0.250  -1.327  0.00  0.00    -0.070 A 
BRANCH  10  11
ATOM     11  C   LIG    1        0.151  -0.600  -2.522  0.00  0.00    +0.480 C 
ATOM     12  F   LIG    1       -1.200  -0.428  -2.840  0.00  0.00    -0.140 F 
ATOM     13  F   LIG    1        0.393  -1.945  -2.223  0.00  0.00    -0.160 F 
ATOM     14  F   LIG    1        0.940  -0.216  -3.612  0.00  0.00    -0.160 F 
ENDBRANCH  10  11
ENDBRANCH   1   4
BRANCH   1  18
ATOM     15  C   LIG    1       -2.121  -0.923   3.911  0.00  0.00    +0.030 C 
ATOM     16  C   LIG    1       -3.472  -0.488   3.284  0.00  0.00    +0.080 C 
ATOM     17  C   LIG    1       -3.135  -0.371   1.783  0.00  0.00    +0.280 C 
ATOM     18  N   LIG    1       -1.944  -1.198   1.537  0.00  0.00    -1.010 NA
ATOM     19  C   LIG    1       -1.548  -1.844   2.802  0.00  0.00    +0.320 C 
BRANCH  15  20
ATOM     20  C   LIG    1       -2.341  -1.692   5.188  0.00  0.00    +0.480 C 
ATOM     21  O   LIG    1       -1.965  -2.837   5.276  0.00  0.00    -0.490 OA
BRANCH  20  22
ATOM     22  O   LIG    1       -2.954  -1.105   6.228  0.00  0.00    -0.350 OA
BRANCH  22  24
ATOM     23  C   LIG    1       -1.764  -2.348   7.951  0.00  0.00    +0.030 C 
ATOM     24  C   LIG    1       -3.132  -1.906   7.426  0.00  0.00    +0.120 C 
ATOM     25  C   LIG    1       -3.974  -3.139   7.095  0.00  0.00    +0.030 C 
ATOM     26  C   LIG    1       -3.843  -1.074   8.495  0.00  0.00    +0.080 C 
ENDBRANCH  22  24
ENDBRANCH  20  22
ENDBRANCH  15  20
ENDBRANCH   1  18
TORSDOF 6
