REMARK  Name = ZINCpk000000olW5.0
REMARK                            x       y       z     vdW  Elec       q    Type
REMARK                         _______ _______ _______ _____ _____    ______ ____
ROOT
ATOM      1  N   LIG    1       -0.219   1.233   4.858  0.00  0.00    -0.560 N 
ATOM      2  C   LIG    1       -0.486   0.074   5.471  0.00  0.00    +0.710 C 
ATOM      3  N   LIG    1        0.309  -0.139   6.536  0.00  0.00    -0.720 N 
ATOM      4  H   LIG    1        0.294  -0.909   7.125  0.00  0.00    +0.440 HD
ATOM      5  C   LIG    1        1.201   1.029   6.636  0.00  0.00    +0.130 C 
ATOM      6  C   LIG    1        0.984   1.761   7.962  0.00  0.00    +0.090 C 
ATOM      7  O   LIG    1       -1.348  -0.701   5.106  0.00  0.00    -0.540 OA
ATOM      8  C   LIG    1        0.779   1.901   5.470  0.00  0.00    +0.540 C 
ATOM      9  O   LIG    1        1.242   2.976   5.154  0.00  0.00    -0.460 OA
ENDROOT
BRANCH   1  10
ATOM     10  C   LIG    1       -0.927   1.718   3.671  0.00  0.00    +0.360 C 
BRANCH  10  13
ATOM     11  N   LIG    1       -0.698   1.558   1.213  0.00  0.00    -0.730 N 
ATOM     12  H   LIG    1       -1.495   2.106   1.135  0.00  0.00    +0.400 HD
ATOM     13  C   LIG    1       -0.222   1.232   2.431  0.00  0.00    +0.500 C 
ATOM     14  O   LIG    1        0.774   0.548   2.529  0.00  0.00    -0.530 OA
BRANCH  11  15
ATOM     15  C   LIG    1       -0.013   1.086   0.008  0.00  0.00    +0.260 C 
BRANCH  15  17
ATOM     16  C   LIG    1       -0.037   1.099  -2.490  0.00  0.00    +0.030 C 
ATOM     17  C   LIG    1       -0.753   1.593  -1.232  0.00  0.00    +0.000 C 
ENDBRANCH  15  17
ENDBRANCH  11  15
ENDBRANCH  10  13
ENDBRANCH   1  10
BRANCH   5  18
ATOM     18  C   LIG    1        2.664   0.607   6.490  0.00  0.00    +0.060 C 
BRANCH  18  19
ATOM     19  C   LIG    1        3.028  -0.370   7.609  0.00  0.00    +0.080 C 
BRANCH  19  20
ATOM     20  C   LIG    1        4.469  -0.786   7.466  0.00  0.00    -0.120 A 
ATOM     21  C   LIG    1        4.794  -1.898   6.711  0.00  0.00    +0.050 A 
ATOM     22  C   LIG    1        6.115  -2.278   6.573  0.00  0.00    -0.080 A 
ATOM     23  C   LIG    1        7.115  -1.550   7.202  0.00  0.00    +0.130 A 
ATOM     24  C   LIG    1        6.785  -0.438   7.963  0.00  0.00    -0.020 A 
ATOM     25  C   LIG    1        5.463  -0.058   8.093  0.00  0.00    +0.060 A 
BRANCH  23  26
ATOM     26  O   LIG    1        8.414  -1.925   7.072  0.00  0.00    -0.320 OA
ATOM     27  C   LIG    1        8.680  -3.080   6.274  0.00  0.00    +0.250 C 
ENDBRANCH  23  26
ENDBRANCH  19  20
ENDBRANCH  18  19
ENDBRANCH   5  18
TORSDOF 8
