REMARK  Name = ZINCqH0000006Jc7.0
REMARK                            x       y       z     vdW  Elec       q    Type
REMARK                         _______ _______ _______ _____ _____    ______ ____
ROOT
ATOM      1  N   LIG    1       -1.109   7.024   1.842  0.00  0.00    -0.660 N 
ATOM      2  H   LIG    1       -0.669   7.622   1.218  0.00  0.00    +0.410 HD
ATOM      3  C   LIG    1       -1.814   7.528   2.875  0.00  0.00    +0.510 C 
ATOM      4  O   LIG    1       -2.280   6.784   3.711  0.00  0.00    -0.490 OA
ENDROOT
BRANCH   1   8
ATOM      5  C   LIG    1       -0.813   2.893   1.331  0.00  0.00    +0.090 A 
ATOM      6  C   LIG    1        0.166   3.728   0.816  0.00  0.00    -0.010 A 
ATOM      7  C   LIG    1        0.068   5.097   0.986  0.00  0.00    -0.110 A 
ATOM      8  C   LIG    1       -1.012   5.637   1.671  0.00  0.00    +0.150 A 
ATOM      9  C   LIG    1       -1.994   4.803   2.187  0.00  0.00    -0.020 A 
ATOM     10  C   LIG    1        1.134   6.003   0.426  0.00  0.00    +0.090 C 
ATOM     11  C   LIG    1       -1.899   3.433   2.013  0.00  0.00    +0.120 A 
BRANCH   5  13
ATOM     12  C   LIG    1        0.424   1.063   0.448  0.00  0.00    +0.230 C 
ATOM     13  O   LIG    1       -0.715   1.547   1.163  0.00  0.00    -0.310 OA
ENDBRANCH   5  13
BRANCH  11  14
ATOM     14  O   LIG    1       -2.863   2.614   2.513  0.00  0.00    -0.300 OA
ATOM     15  C   LIG    1       -3.949   3.237   3.203  0.00  0.00    +0.240 C 
ENDBRANCH  11  14
ENDBRANCH   1   8
BRANCH   3  16
ATOM     16  C   LIG    1       -2.024   9.016   2.989  0.00  0.00    +0.230 C 
BRANCH  16  17
ATOM     17  O   LIG    1       -2.796   9.300   4.158  0.00  0.00    -0.350 OA
BRANCH  17  18
ATOM     18  C   LIG    1       -3.053  10.690   4.361  0.00  0.00    +0.310 C 
BRANCH  18  19
ATOM     19  C   LIG    1       -3.869  10.872   5.614  0.00  0.00    +0.080 A 
ATOM     20  N   LIG    1       -3.371  11.035   6.781  0.00  0.00    -0.440 NA
ATOM     21  C   LIG    1       -4.222  11.190   7.813  0.00  0.00    +0.080 A 
ATOM     22  C   LIG    1       -3.950  11.388   9.182  0.00  0.00    +0.080 A 
ATOM     23  C   LIG    1       -4.970  11.518  10.075  0.00  0.00    +0.030 A 
ATOM     24  C   LIG    1       -6.292  11.458   9.658  0.00  0.00    +0.040 A 
ATOM     25  C   LIG    1       -6.587  11.266   8.327  0.00  0.00    +0.060 A 
ATOM     26  C   LIG    1       -5.557  11.131   7.399  0.00  0.00    -0.180 A 
ATOM     27  S   LIG    1       -5.575  10.880   5.656  0.00  0.00    +0.130 S 
ENDBRANCH  18  19
ENDBRANCH  17  18
ENDBRANCH  16  17
ENDBRANCH   3  16
TORSDOF 7
