REMARK  Name = ZINCrg000000tTkm.0
REMARK                            x       y       z     vdW  Elec       q    Type
REMARK                         _______ _______ _______ _____ _____    ______ ____
ROOT
ATOM      1  N   LIG    1       -3.920  -1.476   2.478  0.00  0.00    -0.750 N 
ATOM      2  H   LIG    1       -3.722  -2.070   1.737  0.00  0.00    +0.400 HD
ATOM      3  C   LIG    1       -4.691  -1.903   3.497  0.00  0.00    +0.700 C 
ATOM      4  N   LIG    1       -5.188  -3.156   3.487  0.00  0.00    -0.620 N 
ATOM      5  C   LIG    1       -6.025  -3.596   4.621  0.00  0.00    +0.290 C 
ATOM      6  C   LIG    1       -7.239  -4.410   4.130  0.00  0.00    +0.040 C 
ATOM      7  C   LIG    1       -7.798  -3.787   2.870  0.00  0.00    +0.200 C 
ATOM      8  N   LIG    1       -7.176  -4.419   1.708  0.00  0.00    -0.500 N 
ATOM      9  C   LIG    1       -5.952  -3.862   1.269  0.00  0.00    +0.180 C 
ATOM     10  C   LIG    1       -4.875  -4.021   2.368  0.00  0.00    +0.280 C 
ATOM     11  O   LIG    1       -4.940  -1.157   4.425  0.00  0.00    -0.580 OA
ENDROOT
BRANCH   8  12
ATOM     12  C   LIG    1       -8.085  -4.527   0.651  0.00  0.00    +0.110 A 
ATOM     13  C   LIG    1       -9.304  -5.165   0.844  0.00  0.00    +0.030 A 
ATOM     14  C   LIG    1      -10.202  -5.266  -0.201  0.00  0.00    +0.010 A 
ATOM     15  C   LIG    1       -9.884  -4.742  -1.442  0.00  0.00    +0.070 A 
ATOM     16  C   LIG    1       -8.667  -4.111  -1.639  0.00  0.00    +0.020 A 
ATOM     17  F   LIG    1      -10.762  -4.847  -2.464  0.00  0.00    -0.140 F 
ATOM     18  C   LIG    1       -7.768  -4.003  -0.596  0.00  0.00    -0.020 A 
ENDBRANCH   8  12
BRANCH   1  19
ATOM     19  C   LIG    1       -3.380  -0.114   2.488  0.00  0.00    +0.280 C 
BRANCH  19  20
ATOM     20  C   LIG    1       -2.546   0.114   1.226  0.00  0.00    +0.020 C 
BRANCH  20  21
ATOM     21  C   LIG    1       -1.982   1.536   1.237  0.00  0.00    +0.060 C 
BRANCH  21  27
ATOM     22  O   LIG    1        2.260   1.297  -0.046  0.00  0.00    -0.540 OA
ATOM     23  C   LIG    1        1.113   1.698  -0.038  0.00  0.00    +0.700 C 
ATOM     24  N   LIG    1        0.778   2.993  -0.039  0.00  0.00    -0.680 N 
ATOM     25  H   LIG    1        1.418   3.721  -0.045  0.00  0.00    +0.440 HD
ATOM     26  C   LIG    1       -0.559   3.161  -0.028  0.00  0.00    +0.530 C 
ATOM     27  C   LIG    1       -1.147   1.764  -0.025  0.00  0.00    +0.220 C 
ATOM     28  O   LIG    1       -1.166   4.210  -0.026  0.00  0.00    -0.460 OA
ATOM     29  N   LIG    1        0.038   0.889  -0.027  0.00  0.00    -0.720 N 
ATOM     30  H   LIG    1        0.043  -0.081  -0.025  0.00  0.00    +0.440 HD
ENDBRANCH  21  27
ENDBRANCH  20  21
ENDBRANCH  19  20
ENDBRANCH   1  19
TORSDOF 5
