REMARK  Name = ZINCpk00000e9MAb.0
REMARK                            x       y       z     vdW  Elec       q    Type
REMARK                         _______ _______ _______ _____ _____    ______ ____
ROOT
ATOM      1  S   LIG    1       -2.788   3.987   0.047  0.00  0.00    +2.690 S 
ATOM      2  O   LIG    1       -2.531   5.272   0.595  0.00  0.00    -0.940 OA
ATOM      3  O   LIG    1       -3.737   3.083   0.596  0.00  0.00    -0.940 OA
ENDROOT
BRANCH   1   4
ATOM      4  C   LIG    1       -1.245   3.136   0.029  0.00  0.00    -0.690 A 
ATOM      5  C   LIG    1       -1.221   1.753   0.017  0.00  0.00    +0.180 A 
ATOM      6  C   LIG    1       -0.013   1.076   0.008  0.00  0.00    +0.030 A 
ATOM      7  C   LIG    1        1.168   1.780   0.001  0.00  0.00    -0.050 A 
ATOM      8  C   LIG    1        2.619   1.369  -0.014  0.00  0.00    +0.340 C 
ATOM      9  O   LIG    1        3.395   2.599  -0.015  0.00  0.00    -0.310 OA
ATOM     10  C   LIG    1        2.554   3.647  -0.002  0.00  0.00    +0.520 C 
ATOM     11  O   LIG    1        2.896   4.812   0.001  0.00  0.00    -0.440 OA
ATOM     12  C   LIG    1        1.156   3.178   0.008  0.00  0.00    -0.210 A 
ATOM     13  C   LIG    1       -0.066   3.853   0.022  0.00  0.00    +0.210 A 
ENDBRANCH   1   4
BRANCH   1  15
ATOM     14  C   LIG    1       -4.040   3.228  -2.227  0.00  0.00    +0.310 C 
ATOM     15  N   LIG    1       -3.231   4.231  -1.530  0.00  0.00    -1.000 NA
BRANCH  15  16
ATOM     16  C   LIG    1       -2.814   5.450  -2.227  0.00  0.00    +0.330 C 
BRANCH  16  17
ATOM     17  C   LIG    1       -1.531   5.174  -3.013  0.00  0.00    -0.050 C 
ATOM     18  C   LIG    1       -1.027   6.478  -3.640  0.00  0.00    +0.050 C 
ATOM     19  C   LIG    1        0.374   6.250  -4.223  0.00  0.00    +0.150 C 
ATOM     20  C   LIG    1        0.338   4.994  -5.062  0.00  0.00    +0.210 A 
ATOM     21  N   LIG    1        1.212   4.608  -5.944  0.00  0.00    -0.490 NA
ATOM     22  C   LIG    1        0.819   3.439  -6.474  0.00  0.00    +0.140 A 
ATOM     23  C   LIG    1       -0.347   3.088  -5.894  0.00  0.00    +0.110 A 
ATOM     24  N   LIG    1       -0.651   4.071  -5.000  0.00  0.00    -0.460 N 
ATOM     25  C   LIG    1       -1.818   4.152  -4.119  0.00  0.00    +0.290 C 
ENDBRANCH  16  17
ENDBRANCH  15  16
ENDBRANCH   1  15
TORSDOF 4
