REMARK  Name = ZINCrH000004nus8.0
REMARK                            x       y       z     vdW  Elec       q    Type
REMARK                         _______ _______ _______ _____ _____    ______ ____
ROOT
ATOM      1  N   LIG    1        0.140   4.365  -0.331  0.00  0.00    -0.670 N 
ATOM      2  H   LIG    1       -0.745   4.013  -0.146  0.00  0.00    +0.410 HD
ATOM      3  C   LIG    1        0.287   5.644  -0.730  0.00  0.00    +0.520 C 
ATOM      4  O   LIG    1        1.385   6.062  -1.032  0.00  0.00    -0.490 OA
ENDROOT
BRANCH   1  10
ATOM      5  C   LIG    1        2.877   0.584  -1.745  0.00  0.00    +0.170 A 
ATOM      6  C   LIG    1        1.995   0.329  -2.756  0.00  0.00    -0.080 A 
ATOM      7  C   LIG    1        0.864   1.121  -2.937  0.00  0.00    +0.070 A 
ATOM      8  C   LIG    1        0.607   2.173  -2.110  0.00  0.00    -0.010 A 
ATOM      9  C   LIG    1        1.491   2.466  -1.061  0.00  0.00    -0.060 A 
ATOM     10  C   LIG    1        1.258   3.549  -0.183  0.00  0.00    +0.180 A 
ATOM     11  C   LIG    1        2.176   3.773   0.829  0.00  0.00    -0.110 A 
ATOM     12  C   LIG    1        3.283   2.941   0.950  0.00  0.00    +0.300 A 
ATOM     13  N   LIG    1        3.488   1.939   0.128  0.00  0.00    -0.440 NA
ATOM     14  C   LIG    1        1.978   4.914   1.793  0.00  0.00    +0.120 C 
ATOM     15  C   LIG    1        2.643   1.665  -0.870  0.00  0.00    +0.110 A 
BRANCH   5  17
ATOM     16  C   LIG    1        4.146  -1.276  -2.507  0.00  0.00    +0.250 C 
ATOM     17  O   LIG    1        3.975  -0.199  -1.583  0.00  0.00    -0.290 OA
ENDBRANCH   5  17
ENDBRANCH   1  10
BRANCH   3  18
ATOM     18  C   LIG    1       -0.912   6.553  -0.802  0.00  0.00    +0.240 C 
BRANCH  18  19
ATOM     19  O   LIG    1       -0.502   7.847  -1.249  0.00  0.00    -0.290 OA
BRANCH  19  20
ATOM     20  C   LIG    1       -1.470   8.794  -1.369  0.00  0.00    +0.120 A 
ATOM     21  C   LIG    1       -2.788   8.480  -1.067  0.00  0.00    -0.050 A 
ATOM     22  C   LIG    1       -3.778   9.440  -1.182  0.00  0.00    +0.050 A 
ATOM     23  C   LIG    1       -3.464  10.713  -1.607  0.00  0.00    +0.030 A 
ATOM     24  C   LIG    1       -2.140  11.039  -1.919  0.00  0.00    -0.130 A 
ATOM     25  C   LIG    1       -1.141  10.069  -1.797  0.00  0.00    +0.050 A 
BRANCH  24  26
ATOM     26  C   LIG    1       -1.800  12.397  -2.373  0.00  0.00    +0.390 C 
ATOM     27  O   LIG    1       -0.651  12.676  -2.642  0.00  0.00    -0.450 OA
ATOM     28  C   LIG    1       -2.880  13.440  -2.503  0.00  0.00    +0.090 C 
ENDBRANCH  24  26
ENDBRANCH  19  20
ENDBRANCH  18  19
ENDBRANCH   3  18
TORSDOF 6
