REMARK  Name = ZINCnE000001Nj2q.0
REMARK                            x       y       z     vdW  Elec       q    Type
REMARK                         _______ _______ _______ _____ _____    ______ ____
ROOT
ATOM      1  C   LIG    1       -0.718   1.572   1.248  0.00  0.00    +0.510 C 
ATOM      2  N   LIG    1       -0.242   1.246   2.466  0.00  0.00    -0.610 N 
ATOM      3  C   LIG    1        0.964   0.418   2.601  0.00  0.00    +0.260 C 
ATOM      4  C   LIG    1        1.966   1.148   3.501  0.00  0.00    +0.010 C 
ATOM      5  C   LIG    1        1.291   1.497   4.830  0.00  0.00    +0.010 C 
ATOM      6  C   LIG    1        0.104   2.428   4.572  0.00  0.00    -0.030 C 
ATOM      7  C   LIG    1       -0.915   1.717   3.684  0.00  0.00    +0.280 C 
ATOM      8  O   LIG    1       -1.714   2.256   1.150  0.00  0.00    -0.540 OA
ENDROOT
BRANCH   1   9
ATOM      9  C   LIG    1       -0.013   1.086   0.008  0.00  0.00    +0.050 C 
BRANCH   9  11
ATOM     10  C   LIG    1       -0.666   3.119  -1.289  0.00  0.00    +0.040 C 
ATOM     11  C   LIG    1       -0.753   1.593  -1.232  0.00  0.00    +0.050 C 
BRANCH  11  12
ATOM     12  C   LIG    1       -0.121   1.007  -2.468  0.00  0.00    -0.040 A 
ATOM     13  C   LIG    1       -0.872   0.221  -3.322  0.00  0.00    +0.000 A 
ATOM     14  C   LIG    1       -0.294  -0.316  -4.457  0.00  0.00    +0.040 A 
ATOM     15  C   LIG    1        1.035  -0.069  -4.739  0.00  0.00    -0.030 A 
ATOM     16  C   LIG    1        1.789   0.719  -3.885  0.00  0.00    +0.100 A 
ATOM     17  F   LIG    1        3.089   0.962  -4.160  0.00  0.00    -0.140 F 
ATOM     18  C   LIG    1        1.208   1.261  -2.751  0.00  0.00    -0.020 A 
ENDBRANCH  11  12
ENDBRANCH   9  11
ENDBRANCH   1   9
BRANCH   6  19
ATOM     19  C   LIG    1       -0.549   2.803   5.904  0.00  0.00    +0.030 C 
BRANCH  19  20
ATOM     20  C   LIG    1        0.434   3.622   6.742  0.00  0.00    -0.070 C 
BRANCH  20  21
ATOM     21  C   LIG    1       -0.210   3.991   8.054  0.00  0.00    +0.490 C 
ATOM     22  O   LIG    1        0.408   4.649   8.873  0.00  0.00    -0.710 OA
ATOM     23  O   LIG    1       -1.350   3.631   8.295  0.00  0.00    -0.700 OA
ENDBRANCH  20  21
ENDBRANCH  19  20
ENDBRANCH   6  19
TORSDOF 6
