REMARK  Name = ZINCrD000000Cvz1.0
REMARK                            x       y       z     vdW  Elec       q    Type
REMARK                         _______ _______ _______ _____ _____    ______ ____
ROOT
ATOM      1  C   LIG    1        2.746   3.758  -1.869  0.00  0.00    +0.010 C 
ATOM      2  C   LIG    1        3.560   4.161  -0.618  0.00  0.00    +0.090 C 
ATOM      3  C   LIG    1        4.947   4.444  -1.153  0.00  0.00    +0.520 C 
ATOM      4  N   LIG    1        4.904   4.600  -2.488  0.00  0.00    -0.550 N 
ATOM      5  O   LIG    1        5.951   4.519  -0.477  0.00  0.00    -0.500 OA
ATOM      6  C   LIG    1        3.535   4.457  -2.997  0.00  0.00    +0.310 C 
ENDROOT
BRANCH   4   7
ATOM      7  C   LIG    1        6.020   4.865  -3.288  0.00  0.00    +0.170 A 
ATOM      8  C   LIG    1        5.896   4.894  -4.670  0.00  0.00    -0.020 A 
ATOM      9  C   LIG    1        7.001   5.156  -5.455  0.00  0.00    +0.050 A 
ATOM     10  C   LIG    1        8.234   5.391  -4.870  0.00  0.00    -0.120 A 
ATOM     11  C   LIG    1        9.575   5.697  -5.501  0.00  0.00    +0.070 C 
ATOM     12  C   LIG    1       10.435   6.282  -4.360  0.00  0.00    +0.030 C 
ATOM     13  C   LIG    1        9.797   5.649  -3.106  0.00  0.00    +0.080 C 
ATOM     14  C   LIG    1        8.361   5.364  -3.492  0.00  0.00    -0.070 A 
ATOM     15  C   LIG    1        7.255   5.107  -2.702  0.00  0.00    +0.010 A 
ENDBRANCH   4   7
BRANCH   1  17
ATOM     16  O   LIG    1        3.325   1.771  -3.002  0.00  0.00    -0.520 OA
ATOM     17  C   LIG    1        2.748   2.262  -2.055  0.00  0.00    +0.520 C 
ATOM     18  N   LIG    1        2.110   1.472  -1.170  0.00  0.00    -0.610 N 
ATOM     19  C   LIG    1        1.407   2.053  -0.018  0.00  0.00    +0.270 C 
ATOM     20  C   LIG    1       -0.035   1.537  -0.009  0.00  0.00    +0.030 C 
ATOM     21  C   LIG    1       -0.025   0.007  -0.033  0.00  0.00    +0.040 C 
ATOM     22  C   LIG    1        0.654  -0.481  -1.315  0.00  0.00    -0.030 C 
ATOM     23  C   LIG    1        2.104   0.012  -1.338  0.00  0.00    +0.300 C 
BRANCH  22  24
ATOM     24  C   LIG    1        0.634  -2.010  -1.353  0.00  0.00    +0.460 C 
ATOM     25  F   LIG    1        1.319  -2.514  -0.242  0.00  0.00    -0.180 F 
ATOM     26  F   LIG    1        1.255  -2.455  -2.525  0.00  0.00    -0.180 F 
ATOM     27  F   LIG    1       -0.691  -2.460  -1.328  0.00  0.00    -0.180 F 
ENDBRANCH  22  24
ENDBRANCH   1  17
TORSDOF 3
