REMARK  Name = ZINCqH0000006Jcv.0
REMARK                            x       y       z     vdW  Elec       q    Type
REMARK                         _______ _______ _______ _____ _____    ______ ____
ROOT
ATOM      1  N   LIG    1        1.490   0.059   6.051  0.00  0.00    -0.670 N 
ATOM      2  H   LIG    1        2.240  -0.555   6.078  0.00  0.00    +0.410 HD
ATOM      3  C   LIG    1        0.971   0.540   7.198  0.00  0.00    +0.520 C 
ATOM      4  O   LIG    1       -0.028   1.228   7.170  0.00  0.00    -0.500 OA
ENDROOT
BRANCH   1   8
ATOM      5  C   LIG    1       -0.130   1.206   2.380  0.00  0.00    +0.090 A 
ATOM      6  C   LIG    1        0.548   0.003   2.494  0.00  0.00    -0.010 A 
ATOM      7  C   LIG    1        1.085  -0.377   3.710  0.00  0.00    -0.120 A 
ATOM      8  C   LIG    1        0.946   0.446   4.819  0.00  0.00    +0.150 A 
ATOM      9  C   LIG    1        0.266   1.652   4.709  0.00  0.00    -0.020 A 
ATOM     10  C   LIG    1        1.823  -1.685   3.831  0.00  0.00    +0.090 C 
ATOM     11  C   LIG    1       -0.267   2.035   3.490  0.00  0.00    +0.120 A 
BRANCH   5  13
ATOM     12  C   LIG    1       -0.475   0.681   0.086  0.00  0.00    +0.230 C 
ATOM     13  O   LIG    1       -0.658   1.578   1.183  0.00  0.00    -0.310 OA
ENDBRANCH   5  13
BRANCH  11  14
ATOM     14  O   LIG    1       -0.928   3.218   3.378  0.00  0.00    -0.300 OA
ATOM     15  C   LIG    1       -1.030   4.019   4.557  0.00  0.00    +0.240 C 
ENDBRANCH  11  14
ENDBRANCH   1   8
BRANCH   3  16
ATOM     16  C   LIG    1        1.632   0.224   8.515  0.00  0.00    +0.120 C 
BRANCH  16  17
ATOM     17  C   LIG    1        0.861   0.877   9.633  0.00  0.00    -0.040 A 
ATOM     18  C   LIG    1       -0.026   0.131  10.387  0.00  0.00    +0.040 A 
ATOM     19  C   LIG    1       -0.737   0.729  11.416  0.00  0.00    +0.070 A 
ATOM     20  C   LIG    1       -0.554   2.079  11.690  0.00  0.00    +0.060 A 
ATOM     21  O   LIG    1       -1.239   2.684  12.699  0.00  0.00    -0.300 OA
ATOM     22  C   LIG    1       -2.396   2.000  13.192  0.00  0.00    +0.230 C 
ATOM     23  C   LIG    1       -2.029   0.525  13.403  0.00  0.00    +0.230 C 
ATOM     24  C   LIG    1        0.336   2.822  10.930  0.00  0.00    +0.070 A 
ATOM     25  O   LIG    1       -1.612  -0.018  12.145  0.00  0.00    -0.300 OA
ATOM     26  C   LIG    1        1.046   2.220   9.908  0.00  0.00    -0.070 A 
ATOM     27 BR   LIG    1        2.264   3.235   8.878  0.00  0.00    -0.040 Br
ENDBRANCH  16  17
ENDBRANCH   3  16
TORSDOF 5
