REMARK  Name = ZINCvU00000008Vn.0
REMARK                            x       y       z     vdW  Elec       q    Type
REMARK                         _______ _______ _______ _____ _____    ______ ____
ROOT
ATOM      1  C   LIG    1        6.002  -0.946  -0.072  0.00  0.00    +0.260 C 
ENDROOT
BRANCH   1   2
ATOM      2  C   LIG    1        6.424  -1.243   1.343  0.00  0.00    -0.130 A 
ATOM      3  C   LIG    1        6.242  -0.294   2.332  0.00  0.00    +0.040 A 
ATOM      4  C   LIG    1        6.625  -0.568   3.632  0.00  0.00    +0.010 A 
ATOM      5  C   LIG    1        7.199  -1.787   3.941  0.00  0.00    +0.030 A 
ATOM      6  C   LIG    1        7.385  -2.734   2.951  0.00  0.00    +0.020 A 
ATOM      7  C   LIG    1        6.998  -2.462   1.653  0.00  0.00    +0.030 A 
ENDBRANCH   1   2
BRANCH   1   8
ATOM      8  C   LIG    1        7.104  -0.200  -0.779  0.00  0.00    +0.530 C 
ATOM      9  N   LIG    1        8.290  -0.801  -1.002  0.00  0.00    -0.670 N 
ATOM     10  H   LIG    1        8.462  -1.683  -0.639  0.00  0.00    +0.420 HD
ATOM     11  O   LIG    1        6.924   0.942  -1.147  0.00  0.00    -0.480 OA
BRANCH   9  12
ATOM     12  C   LIG    1        9.272  -0.151  -1.759  0.00  0.00    +0.210 A 
ATOM     13  C   LIG    1        8.909   0.816  -2.686  0.00  0.00    +0.050 A 
ATOM     14  C   LIG    1        9.881   1.456  -3.431  0.00  0.00    +0.100 A 
ATOM     15  C   LIG    1       11.215   1.134  -3.253  0.00  0.00    -0.060 A 
ATOM     16  C   LIG    1       11.579   0.170  -2.329  0.00  0.00    +0.120 A 
ATOM     17 CL   LIG    1       12.433   1.940  -4.190  0.00  0.00    -0.050 Cl
ATOM     18  C   LIG    1       10.612  -0.469  -1.579  0.00  0.00    -0.210 A 
BRANCH  18  19
ATOM     19  C   LIG    1       11.010  -1.514  -0.568  0.00  0.00    +0.510 C 
ATOM     20  F   LIG    1       10.415  -2.736  -0.901  0.00  0.00    -0.180 F 
ATOM     21  F   LIG    1       10.583  -1.119   0.704  0.00  0.00    -0.170 F 
ATOM     22  F   LIG    1       12.402  -1.657  -0.569  0.00  0.00    -0.170 F 
ENDBRANCH  18  19
ENDBRANCH   9  12
ENDBRANCH   1   8
BRANCH   1  23
ATOM     23  O   LIG    1        4.799  -0.134  -0.059  0.00  0.00    -0.320 OA
BRANCH  23  25
ATOM     24  O   LIG    1        3.599  -2.001  -0.075  0.00  0.00    -0.470 OA
ATOM     25  C   LIG    1        3.620  -0.786  -0.061  0.00  0.00    +0.510 C 
BRANCH  25  26
ATOM     26  C   LIG    1        2.355  -0.026  -0.048  0.00  0.00    -0.170 A 
ATOM     27  C   LIG    1        2.366   1.375  -0.032  0.00  0.00    +0.160 A 
ATOM     28  C   LIG    1        1.153   2.040  -0.020  0.00  0.00    -0.020 A 
ATOM     29  C   LIG    1       -0.021   1.309  -0.023  0.00  0.00    +0.340 A 
ATOM     30  N   LIG    1       -0.003  -0.010  -0.038  0.00  0.00    -0.480 NA
ATOM     31  C   LIG    1        1.125  -0.691  -0.050  0.00  0.00    +0.230 A 
ATOM     32 CL   LIG    1        1.085  -2.426  -0.069  0.00  0.00    +0.020 Cl
ENDBRANCH  25  26
ENDBRANCH  23  25
ENDBRANCH   1  23
TORSDOF 7
