REMARK  Name = ZINCrH000004sEMr.1
REMARK                            x       y       z     vdW  Elec       q    Type
REMARK                         _______ _______ _______ _____ _____    ______ ____
ROOT
ATOM      1  C   LIG    1        2.674   1.306   0.705  0.00  0.00    +0.170 C 
ATOM      2  C   LIG    1        1.210   1.662   0.642  0.00  0.00    +0.130 A 
ATOM      3  N   LIG    1        0.213   0.835   0.797  0.00  0.00    -0.290 NA
ATOM      4  N   LIG    1       -0.987   1.542   0.669  0.00  0.00    -0.310 N 
ATOM      5  C   LIG    1       -0.697   2.834   0.429  0.00  0.00    +0.130 A 
ATOM      6  C   LIG    1       -1.690   3.947   0.220  0.00  0.00    +0.150 C 
ATOM      7  C   LIG    1        0.679   2.950   0.405  0.00  0.00    -0.280 A 
ENDROOT
BRANCH   4   8
ATOM      8  C   LIG    1       -2.275   0.997   0.773  0.00  0.00    +0.140 A 
ATOM      9  C   LIG    1       -3.300   1.740   1.345  0.00  0.00    +0.040 A 
ATOM     10  C   LIG    1       -4.568   1.203   1.442  0.00  0.00    +0.020 A 
ATOM     11  C   LIG    1       -4.816  -0.079   0.980  0.00  0.00    +0.100 A 
ATOM     12  C   LIG    1       -3.794  -0.823   0.415  0.00  0.00    +0.020 A 
ATOM     13  F   LIG    1       -6.057  -0.604   1.081  0.00  0.00    -0.130 F 
ATOM     14  C   LIG    1       -2.525  -0.287   0.310  0.00  0.00    +0.070 A 
ENDBRANCH   4   8
BRANCH   7  15
ATOM     15  C   LIG    1        1.449   4.185   0.174  0.00  0.00    +0.600 C 
ATOM     16  N   LIG    1        1.798   4.538  -1.079  0.00  0.00    -0.710 N 
ATOM     17  H   LIG    1        1.543   3.978  -1.829  0.00  0.00    +0.410 HD
ATOM     18  O   LIG    1        1.769   4.887   1.115  0.00  0.00    -0.530 OA
BRANCH  16  19
ATOM     19  C   LIG    1        2.563   5.766  -1.308  0.00  0.00    +0.290 C 
BRANCH  19  20
ATOM     20  C   LIG    1        2.879   5.899  -2.799  0.00  0.00    +0.220 C 
BRANCH  20  21
ATOM     21  C   LIG    1        1.600   6.119  -3.566  0.00  0.00    -0.180 A 
ATOM     22  C   LIG    1        1.156   7.299  -4.000  0.00  0.00    +0.010 A 
ATOM     23  C   LIG    1       -0.047   7.255  -4.683  0.00  0.00    +0.010 A 
ATOM     24  C   LIG    1       -0.580   6.038  -4.804  0.00  0.00    -0.060 A 
ATOM     25  S   LIG    1        0.468   4.855  -4.031  0.00  0.00    +0.130 S 
ENDBRANCH  20  21
BRANCH  20  26
ATOM     26  N   LIG    1        3.530   4.671  -3.274  0.00  0.00    -0.540 NA
ATOM     27  C   LIG    1        4.722   4.364  -2.472  0.00  0.00    +0.190 C 
ATOM     28  C   LIG    1        3.867   4.771  -4.700  0.00  0.00    +0.190 C 
ENDBRANCH  20  26
ENDBRANCH  19  20
ENDBRANCH  16  19
ENDBRANCH   7  15
TORSDOF 6
