REMARK  Name = ZINCpe00000JtSxc.0
REMARK                            x       y       z     vdW  Elec       q    Type
REMARK                         _______ _______ _______ _____ _____    ______ ____
ROOT
ATOM      1  N   LIG    1       -1.860  -4.079  -3.126  0.00  0.00    -0.520 NA
ATOM      2  C   LIG    1       -2.163  -2.701  -3.540  0.00  0.00    +0.160 C 
ATOM      3  C   LIG    1       -0.896  -1.849  -3.422  0.00  0.00    +0.230 C 
ATOM      4  O   LIG    1       -0.407  -1.916  -2.080  0.00  0.00    -0.370 OA
ATOM      5  C   LIG    1       -0.102  -3.243  -1.644  0.00  0.00    +0.140 C 
ATOM      6  C   LIG    1       -1.359  -4.111  -1.744  0.00  0.00    +0.170 C 
ENDROOT
BRANCH   1   7
ATOM      7  C   LIG    1       -3.037  -4.945  -3.279  0.00  0.00    +0.210 C 
BRANCH   7  14
ATOM      8  C   LIG    1       -6.383  -9.384  -6.210  0.00  0.00    +0.020 C 
ATOM      9  C   LIG    1       -6.123  -7.911  -5.886  0.00  0.00    -0.020 C 
ATOM     10  C   LIG    1       -5.066  -7.357  -6.844  0.00  0.00    +0.020 C 
ATOM     11  C   LIG    1       -4.834  -5.874  -6.540  0.00  0.00    +0.270 C 
ATOM     12  N   LIG    1       -4.493  -5.731  -5.117  0.00  0.00    -0.610 N 
ATOM     13  C   LIG    1       -5.394  -6.313  -4.113  0.00  0.00    +0.260 C 
ATOM     14  C   LIG    1       -3.373  -5.083  -4.741  0.00  0.00    +0.520 C 
ATOM     15  O   LIG    1       -2.635  -4.611  -5.580  0.00  0.00    -0.520 OA
ATOM     16  C   LIG    1       -5.623  -7.787  -4.445  0.00  0.00    +0.020 C 
ENDBRANCH   7  14
ENDBRANCH   1   7
BRANCH   5  17
ATOM     17  C   LIG    1        0.379  -3.206  -0.191  0.00  0.00    +0.320 C 
BRANCH  17  18
ATOM     18  N   LIG    1        1.581  -2.374  -0.096  0.00  0.00    -0.600 N 
ATOM     19  C   LIG    1        2.905  -2.979  -0.261  0.00  0.00    +0.290 C 
BRANCH  18  20
ATOM     20  C   LIG    1        1.465  -1.011   0.152  0.00  0.00    +0.350 A 
ATOM     21  C   LIG    1        0.215  -0.450   0.413  0.00  0.00    -0.020 A 
ATOM     22  C   LIG    1        0.154   0.914   0.652  0.00  0.00    +0.070 A 
ATOM     23  C   LIG    1        1.338   1.637   0.619  0.00  0.00    +0.150 A 
ATOM     24  N   LIG    1        2.477   1.024   0.363  0.00  0.00    -0.210 NA
ATOM     25  N   LIG    1        2.542  -0.238   0.141  0.00  0.00    -0.310 NA
ENDBRANCH  18  20
ENDBRANCH  17  18
ENDBRANCH   5  17
TORSDOF 5
