REMARK  Name = ZINCrH00000No4E4.1
REMARK                            x       y       z     vdW  Elec       q    Type
REMARK                         _______ _______ _______ _____ _____    ______ ____
ROOT
ATOM      1  C   LIG    1        0.445  -6.627   2.937  0.00  0.00    +0.050 C 
ATOM      2  C   LIG    1        0.767  -5.321   3.711  0.00  0.00    +0.040 C 
ATOM      3  C   LIG    1        0.158  -4.247   2.776  0.00  0.00    +0.260 C 
ATOM      4  N   LIG    1        0.426  -4.739   1.412  0.00  0.00    -0.610 N 
ATOM      5  C   LIG    1        0.504  -3.977   0.303  0.00  0.00    +0.580 C 
ATOM      6  O   LIG    1        0.677  -4.498  -0.782  0.00  0.00    -0.520 OA
ATOM      7  C   LIG    1        0.587  -6.200   1.461  0.00  0.00    +0.170 C 
ATOM      8  C   LIG    1        1.973  -6.588   0.941  0.00  0.00    +0.040 C 
ATOM      9  C   LIG    1       -0.496  -6.872   0.616  0.00  0.00    +0.040 C 
ENDROOT
BRANCH   1  13
ATOM     10  C   LIG    1        3.257  -9.696   3.912  0.00  0.00    +0.100 A 
ATOM     11  C   LIG    1        1.918 -10.010   3.738  0.00  0.00    -0.040 A 
ATOM     12  C   LIG    1        1.010  -9.014   3.428  0.00  0.00    +0.050 A 
ATOM     13  C   LIG    1        1.437  -7.708   3.281  0.00  0.00    -0.080 A 
ATOM     14  C   LIG    1        2.772  -7.391   3.453  0.00  0.00    +0.030 A 
ATOM     15  C   LIG    1        3.684  -8.381   3.769  0.00  0.00    +0.070 A 
ATOM     16  F   LIG    1        4.988  -8.071   3.938  0.00  0.00    -0.130 F 
BRANCH  10  18
ATOM     17  C   LIG    1        3.641 -12.000   4.354  0.00  0.00    +0.250 C 
ATOM     18  O   LIG    1        4.151 -10.672   4.223  0.00  0.00    -0.310 OA
ENDBRANCH  10  18
ENDBRANCH   1  13
BRANCH   5  19
ATOM     19  C   LIG    1        0.380  -2.510   0.406  0.00  0.00    -0.150 A 
ATOM     20  C   LIG    1       -0.353  -1.941   1.454  0.00  0.00    +0.100 A 
ATOM     21  C   LIG    1       -0.473  -0.574   1.556  0.00  0.00    -0.030 A 
ATOM     22  C   LIG    1        0.132   0.254   0.620  0.00  0.00    +0.180 A 
ATOM     23  C   LIG    1        0.868  -0.305  -0.441  0.00  0.00    -0.230 A 
ATOM     24  C   LIG    1        0.992  -1.692  -0.540  0.00  0.00    +0.160 A 
BRANCH  23  25
ATOM     25  C   LIG    1        1.505   0.566  -1.437  0.00  0.00    +0.490 C 
ATOM     26  O   LIG    1        2.138   0.081  -2.350  0.00  0.00    -0.450 OA
ENDBRANCH  23  25
BRANCH  22  27
ATOM     27  O   LIG    1        0.011   1.599   0.725  0.00  0.00    -0.490 OA
ATOM     28  H   LIG    1        0.705   2.017   1.252  0.00  0.00    +0.400 HD
ENDBRANCH  22  27
ENDBRANCH   5  19
TORSDOF 5
