REMARK  Name = ZINCpe000000Y32o.0
REMARK                            x       y       z     vdW  Elec       q    Type
REMARK                         _______ _______ _______ _____ _____    ______ ____
ROOT
ATOM      1  C   LIG    1       -1.166  -0.888   0.008  0.00  0.00    +0.350 C 
ENDROOT
BRANCH   1   2
ATOM      2  C   LIG    1       -1.580  -1.185  -1.410  0.00  0.00    +0.500 C 
ATOM      3  N   LIG    1       -2.638  -1.983  -1.651  0.00  0.00    -0.610 N 
ATOM      4  C   LIG    1       -3.387  -2.571  -0.533  0.00  0.00    +0.270 C 
ATOM      5  C   LIG    1       -3.409  -4.096  -0.685  0.00  0.00    +0.330 C 
ATOM      6  N   LIG    1       -3.745  -4.394  -2.085  0.00  0.00    -0.640 N 
ATOM      7  C   LIG    1       -4.743  -5.165  -2.577  0.00  0.00    +0.700 C 
ATOM      8  N   LIG    1       -4.893  -5.080  -3.908  0.00  0.00    -0.740 N 
ATOM      9  H   LIG    1       -5.576  -5.534  -4.426  0.00  0.00    +0.430 HD
ATOM     10  C   LIG    1       -3.858  -4.189  -4.456  0.00  0.00    +0.280 C 
ATOM     11  O   LIG    1       -5.432  -5.878  -1.874  0.00  0.00    -0.580 OA
ATOM     12  C   LIG    1       -3.023  -3.795  -3.227  0.00  0.00    +0.200 C 
ATOM     13  C   LIG    1       -3.045  -2.274  -3.034  0.00  0.00    +0.300 C 
ATOM     14  O   LIG    1       -0.960  -0.704  -2.335  0.00  0.00    -0.510 OA
ENDBRANCH   1   2
BRANCH   1  26
ATOM     15  C   LIG    1       -1.263   2.203   0.020  0.00  0.00    +0.200 C 
ATOM     16  C   LIG    1       -0.016   1.357   0.009  0.00  0.00    +0.310 A 
ATOM     17  N   LIG    1        1.199   1.820   0.000  0.00  0.00    -0.480 NA
ATOM     18  C   LIG    1        2.082   0.788  -0.014  0.00  0.00    +0.070 A 
ATOM     19  C   LIG    1        3.477   0.716  -0.027  0.00  0.00    +0.090 A 
ATOM     20  C   LIG    1        4.099  -0.514  -0.040  0.00  0.00    +0.070 A 
ATOM     21  C   LIG    1        3.346  -1.685  -0.039  0.00  0.00    +0.090 A 
ATOM     22  C   LIG    1        1.967  -1.628  -0.025  0.00  0.00    +0.020 A 
ATOM     23  F   LIG    1        3.969  -2.883  -0.053  0.00  0.00    -0.120 F 
ATOM     24  F   LIG    1        5.448  -0.584  -0.053  0.00  0.00    -0.120 F 
ATOM     25  C   LIG    1        1.327  -0.397  -0.013  0.00  0.00    +0.070 A 
ATOM     26  N   LIG    1        0.002  -0.004   0.002  0.00  0.00    -0.470 N 
ENDBRANCH   1  26
TORSDOF 2
