REMARK  Name = ZINCkj000005jhqY.1
REMARK                            x       y       z     vdW  Elec       q    Type
REMARK                         _______ _______ _______ _____ _____    ______ ____
ROOT
ATOM      1  S   LIG    1       -2.062  -1.381   2.749  0.00  0.00    +2.700 S 
ATOM      2  O   LIG    1       -1.122  -0.731   3.594  0.00  0.00    -0.930 OA
ATOM      3  O   LIG    1       -2.001  -2.766   2.439  0.00  0.00    -0.920 OA
ENDROOT
BRANCH   1   4
ATOM      4  C   LIG    1       -3.649  -1.100   3.461  0.00  0.00    -0.790 A 
ATOM      5  C   LIG    1       -3.849  -0.016   4.299  0.00  0.00    +0.250 A 
ATOM      6  C   LIG    1       -5.097   0.207   4.856  0.00  0.00    -0.050 A 
ATOM      7  C   LIG    1       -6.143  -0.658   4.580  0.00  0.00    +0.230 A 
ATOM      8  C   LIG    1       -5.941  -1.744   3.746  0.00  0.00    -0.050 A 
ATOM      9  F   LIG    1       -7.359  -0.443   5.127  0.00  0.00    -0.100 F 
ATOM     10  F   LIG    1       -2.828   0.825   4.572  0.00  0.00    -0.100 F 
ATOM     11  C   LIG    1       -4.694  -1.965   3.187  0.00  0.00    +0.260 A 
ATOM     12  F   LIG    1       -4.497  -3.025   2.372  0.00  0.00    -0.090 F 
ENDBRANCH   1   4
BRANCH   1  13
ATOM     13  N   LIG    1       -2.024  -0.576   1.302  0.00  0.00    -1.120 NA
ATOM     14  H   LIG    1       -1.948  -1.072   0.473  0.00  0.00    +0.420 HD
BRANCH  13  23
ATOM     15  C   LIG    1       -4.275   0.683   0.049  0.00  0.00    +0.050 C 
ATOM     16  C   LIG    1       -2.890   1.333   0.039  0.00  0.00    +0.000 C 
ATOM     17  C   LIG    1       -2.130   0.900  -1.219  0.00  0.00    +0.060 C 
ATOM     18  C   LIG    1       -0.719   1.490  -1.184  0.00  0.00    +0.270 C 
ATOM     19  N   LIG    1       -0.012   1.005   0.008  0.00  0.00    -0.500 N 
ATOM     20  C   LIG    1       -0.696   1.477   1.217  0.00  0.00    +0.270 C 
ATOM     21  H   LIG    1        0.935   1.353   0.000  0.00  0.00    +0.440 HD
ATOM     22  H   LIG    1        0.002  -0.004   0.002  0.00  0.00    +0.430 HD
ATOM     23  C   LIG    1       -2.105   0.887   1.276  0.00  0.00    +0.260 C 
ENDBRANCH  13  23
ENDBRANCH   1  13
TORSDOF 3
