REMARK  Name = ZINCkj00000GeTi6.1
REMARK                            x       y       z     vdW  Elec       q    Type
REMARK                         _______ _______ _______ _____ _____    ______ ____
ROOT
ATOM      1  C   LIG    1       -0.326   0.734  -0.386  0.00  0.00    +0.030 C 
ATOM      2  C   LIG    1       -1.039   1.418   0.781  0.00  0.00    +0.190 C 
ATOM      3  C   LIG    1       -0.971   2.936   0.602  0.00  0.00    +0.280 C 
ATOM      4  N   LIG    1        0.434   3.365   0.588  0.00  0.00    -0.390 N 
ATOM      5  C   LIG    1        1.069   3.009   1.863  0.00  0.00    +0.180 C 
ATOM      6  C   LIG    1        1.018   1.492   2.053  0.00  0.00    +0.140 C 
ATOM      7  C   LIG    1        1.661   1.123   3.391  0.00  0.00    +0.080 C 
ATOM      8  C   LIG    1        2.527   3.473   1.853  0.00  0.00    +0.090 C 
ATOM      9  C   LIG    1        0.499   4.820   0.397  0.00  0.00    +0.330 C 
ATOM     10  H   LIG    1        0.918   2.905  -0.169  0.00  0.00    +0.420 HD
ATOM     11  N   LIG    1       -0.383   1.047   2.043  0.00  0.00    -0.530 NA
ENDROOT
BRANCH  11  12
ATOM     12  C   LIG    1       -0.477  -0.400   2.279  0.00  0.00    +0.340 C 
BRANCH  12  13
ATOM     13  C   LIG    1       -1.924  -0.789   2.441  0.00  0.00    +0.170 A 
ATOM     14  N   LIG    1       -2.779  -1.040   1.479  0.00  0.00    -0.300 NA
ATOM     15  N   LIG    1       -3.909  -1.339   2.020  0.00  0.00    -0.070 NA
ATOM     16  N   LIG    1       -3.800  -1.277   3.301  0.00  0.00    -0.080 NA
ATOM     17  N   LIG    1       -2.591  -0.941   3.600  0.00  0.00    -0.280 N 
BRANCH  17  18
ATOM     18  C   LIG    1       -2.046  -0.759   4.948  0.00  0.00    +0.160 C 
ATOM     19  C   LIG    1       -0.981  -1.825   5.215  0.00  0.00    +0.070 C 
ATOM     20  C   LIG    1       -3.171  -0.893   5.975  0.00  0.00    +0.080 C 
ATOM     21  C   LIG    1       -1.416   0.631   5.059  0.00  0.00    +0.080 C 
ENDBRANCH  17  18
ENDBRANCH  12  13
ENDBRANCH  11  12
TORSDOF 3
