REMARK  Name = ZINCkj00000GeTi6.0
REMARK                            x       y       z     vdW  Elec       q    Type
REMARK                         _______ _______ _______ _____ _____    ______ ____
ROOT
ATOM      1  C   LIG    1        4.247  -1.163  -1.967  0.00  0.00    +0.080 C 
ATOM      2  C   LIG    1        5.005  -0.348  -0.918  0.00  0.00    +0.140 C 
ATOM      3  C   LIG    1        5.934  -1.271  -0.127  0.00  0.00    +0.270 C 
ATOM      4  N   LIG    1        6.647  -0.491   0.893  0.00  0.00    -0.390 N 
ATOM      5  C   LIG    1        5.677   0.111   1.818  0.00  0.00    +0.180 C 
ATOM      6  C   LIG    1        4.746   1.046   1.043  0.00  0.00    +0.190 C 
ATOM      7  C   LIG    1        5.567   2.161   0.393  0.00  0.00    +0.030 C 
ATOM      8  C   LIG    1        4.854  -0.993   2.483  0.00  0.00    +0.090 C 
ATOM      9  C   LIG    1        7.552  -1.374   1.641  0.00  0.00    +0.340 C 
ATOM     10  H   LIG    1        7.182   0.238   0.446  0.00  0.00    +0.420 HD
ATOM     11  N   LIG    1        4.046   0.282   0.001  0.00  0.00    -0.520 NA
ENDROOT
BRANCH  11  12
ATOM     12  C   LIG    1        3.098   1.134  -0.730  0.00  0.00    +0.340 C 
BRANCH  12  13
ATOM     13  C   LIG    1        2.072   1.681   0.229  0.00  0.00    +0.170 A 
ATOM     14  N   LIG    1        2.194   2.748   0.981  0.00  0.00    -0.300 NA
ATOM     15  N   LIG    1        1.107   2.884   1.658  0.00  0.00    -0.070 NA
ATOM     16  N   LIG    1        0.292   1.934   1.355  0.00  0.00    -0.080 NA
ATOM     17  N   LIG    1        0.854   1.168   0.481  0.00  0.00    -0.280 N 
BRANCH  17  18
ATOM     18  C   LIG    1        0.271  -0.030  -0.128  0.00  0.00    +0.160 C 
ATOM     19  C   LIG    1       -1.069  -0.342   0.541  0.00  0.00    +0.080 C 
ATOM     20  C   LIG    1        0.051   0.212  -1.622  0.00  0.00    +0.070 C 
ATOM     21  C   LIG    1        1.223  -1.213   0.063  0.00  0.00    +0.070 C 
ENDBRANCH  17  18
ENDBRANCH  12  13
ENDBRANCH  11  12
TORSDOF 3
