REMARK  Name = ZINCvU00000005ll.0
REMARK                            x       y       z     vdW  Elec       q    Type
REMARK                         _______ _______ _______ _____ _____    ______ ____
ROOT
ATOM      1  N   LIG    1        3.431  -0.882   0.013  0.00  0.00    -0.420 N 
ATOM      2  C   LIG    1        2.403   0.049   0.036  0.00  0.00    +0.060 A 
ATOM      3  C   LIG    1        2.362   1.434   0.055  0.00  0.00    +0.010 A 
ATOM      4  C   LIG    1        1.145   2.085   0.076  0.00  0.00    +0.030 A 
ATOM      5  C   LIG    1       -0.038   1.362   0.079  0.00  0.00    +0.010 A 
ATOM      6  C   LIG    1       -0.016  -0.015   0.061  0.00  0.00    +0.060 A 
ATOM      7  C   LIG    1        1.207  -0.689   0.039  0.00  0.00    +0.060 A 
ATOM      8  N   LIG    1        1.548  -2.005   0.018  0.00  0.00    -0.490 NA
ATOM      9  C   LIG    1        2.853  -2.122   0.003  0.00  0.00    +0.260 A 
ENDROOT
BRANCH   1  13
ATOM     10  C   LIG    1        7.519  -0.055  -0.020  0.00  0.00    +0.150 A 
ATOM     11  C   LIG    1        6.929  -0.676  -1.111  0.00  0.00    +0.000 A 
ATOM     12  C   LIG    1        5.575  -0.949  -1.101  0.00  0.00    +0.080 A 
ATOM     13  C   LIG    1        4.806  -0.604   0.002  0.00  0.00    +0.070 A 
ATOM     14  C   LIG    1        5.396   0.022   1.091  0.00  0.00    +0.070 A 
ATOM     15  C   LIG    1        6.751   0.290   1.083  0.00  0.00    -0.060 A 
BRANCH  10  17
ATOM     16  C   LIG    1        9.393   0.855   1.126  0.00  0.00    +0.240 C 
ATOM     17  O   LIG    1        8.852   0.215  -0.030  0.00  0.00    -0.310 OA
ENDBRANCH  10  17
ENDBRANCH   1  13
BRANCH   9  18
ATOM     18  S   LIG    1        3.732  -3.649  -0.028  0.00  0.00    +0.080 S 
BRANCH  18  19
ATOM     19  C   LIG    1        2.344  -4.811  -0.028  0.00  0.00    +0.020 C 
ATOM     20  C   LIG    1        1.576  -4.688   1.290  0.00  0.00    +0.090 C 
BRANCH  19  21
ATOM     21  C   LIG    1        2.865  -6.217  -0.176  0.00  0.00    +0.540 C 
ATOM     22  N   LIG    1        2.076  -7.177  -0.697  0.00  0.00    -0.650 N 
ATOM     23  H   LIG    1        1.152  -6.979  -0.916  0.00  0.00    +0.420 HD
ATOM     24  O   LIG    1        3.996  -6.484   0.172  0.00  0.00    -0.510 OA
BRANCH  22  25
ATOM     25  C   LIG    1        2.590  -8.461  -0.921  0.00  0.00    +0.110 A 
ATOM     26  C   LIG    1        3.533  -8.994  -0.056  0.00  0.00    +0.070 A 
ATOM     27  C   LIG    1        4.039 -10.261  -0.279  0.00  0.00    -0.010 A 
ATOM     28  C   LIG    1        3.606 -11.000  -1.364  0.00  0.00    +0.040 A 
ATOM     29  C   LIG    1        2.666 -10.475  -2.232  0.00  0.00    -0.060 A 
ATOM     30  C   LIG    1        2.151  -9.209  -2.012  0.00  0.00    +0.110 A 
BRANCH  30  31
ATOM     31  O   LIG    1        1.222  -8.694  -2.861  0.00  0.00    -0.320 OA
ATOM     32  C   LIG    1        0.818  -9.517  -3.958  0.00  0.00    +0.250 C 
ENDBRANCH  30  31
ENDBRANCH  22  25
ENDBRANCH  19  21
ENDBRANCH  18  19
ENDBRANCH   9  18
TORSDOF 7
