REMARK  Name = ZINCah0000002Bha.0
REMARK                            x       y       z     vdW  Elec       q    Type
REMARK                         _______ _______ _______ _____ _____    ______ ____
ROOT
ATOM      1  C   LIG    1        1.178   2.086   0.002  0.00  0.00    +0.220 A 
ATOM      2  C   LIG    1        2.387   1.403  -0.013  0.00  0.00    -0.010 A 
ATOM      3  C   LIG    1        2.399   0.022  -0.020  0.00  0.00    +0.080 A 
ATOM      4  C   LIG    1        1.208  -0.681  -0.013  0.00  0.00    +0.030 A 
ATOM      5  C   LIG    1        0.002  -0.004   0.002  0.00  0.00    +0.010 A 
ATOM      6  C   LIG    1       -0.017   1.377   0.010  0.00  0.00    +0.010 A 
ENDROOT
BRANCH   1   7
ATOM      7  N   LIG    1        1.163   3.483   0.009  0.00  0.00    -0.870 N 
ATOM      8  H   LIG    1        1.997   3.977   0.004  0.00  0.00    +0.410 HD
ATOM      9  H   LIG    1        0.317   3.958   0.019  0.00  0.00    +0.410 HD
ENDBRANCH   1   7
BRANCH   5  10
ATOM     10  N   LIG    1       -1.270  -0.761   0.010  0.00  0.00    +0.030 N 
ATOM     11  O   LIG    1       -1.254  -1.978   0.003  0.00  0.00    -0.150 OA
ATOM     12  O   LIG    1       -2.333  -0.165   0.022  0.00  0.00    -0.160 OA
ENDBRANCH   5  10
TORSDOF 2
