REMARK  Name = ZINCtV000002wsup.0
REMARK                            x       y       z     vdW  Elec       q    Type
REMARK                         _______ _______ _______ _____ _____    ______ ____
ROOT
ATOM      1  C   LIG    1        1.076   1.490  -0.198  0.00  0.00    -0.140 A 
ATOM      2  C   LIG    1        0.069   0.558  -0.357  0.00  0.00    +0.050 A 
ATOM      3  C   LIG    1       -1.254   0.962  -0.363  0.00  0.00    -0.020 A 
ATOM      4  C   LIG    1       -1.573   2.297  -0.199  0.00  0.00    +0.040 A 
ATOM      5  C   LIG    1       -0.571   3.234  -0.040  0.00  0.00    +0.020 A 
ATOM      6  C   LIG    1        0.759   2.833  -0.039  0.00  0.00    +0.170 A 
ENDROOT
BRANCH   6   7
ATOM      7  N   LIG    1        1.776   3.779   0.123  0.00  0.00    -0.650 N 
ATOM      8  H   LIG    1        2.633   3.649  -0.312  0.00  0.00    +0.420 HD
ATOM      9  C   LIG    1        1.566   4.871   0.884  0.00  0.00    +0.570 C 
ATOM     10  O   LIG    1        0.526   4.989   1.504  0.00  0.00    -0.500 OA
BRANCH   9  11
ATOM     11  C   LIG    1        2.598   5.924   0.966  0.00  0.00    -0.090 A 
ATOM     12  C   LIG    1        3.833   5.745   0.339  0.00  0.00    +0.080 A 
ATOM     13  C   LIG    1        4.793   6.734   0.419  0.00  0.00    +0.110 A 
ATOM     14  C   LIG    1        4.533   7.903   1.119  0.00  0.00    -0.040 A 
ATOM     15  C   LIG    1        3.311   8.085   1.742  0.00  0.00    +0.070 A 
ATOM     16 CL   LIG    1        5.746   9.141   1.215  0.00  0.00    -0.030 Cl
ATOM     17  F   LIG    1        5.989   6.563  -0.187  0.00  0.00    -0.120 F 
ATOM     18  C   LIG    1        2.340   7.106   1.665  0.00  0.00    +0.010 A 
ATOM     19 CL   LIG    1        0.805   7.341   2.441  0.00  0.00    -0.010 Cl
ENDBRANCH   9  11
ENDBRANCH   6   7
BRANCH   1  20
ATOM     20  C   LIG    1        2.517   1.050  -0.197  0.00  0.00    +0.350 C 
BRANCH  20  21
ATOM     21  N   LIG    1        2.968   0.858   1.183  0.00  0.00    -0.590 N 
ATOM     22  C   LIG    1        3.645   1.838   1.814  0.00  0.00    +0.660 C 
ATOM     23  O   LIG    1        3.792   2.918   1.276  0.00  0.00    -0.580 OA
BRANCH  21  25
ATOM     24  C   LIG    1        3.829  -1.386   1.637  0.00  0.00    +0.020 C 
ATOM     25  C   LIG    1        2.684  -0.400   1.878  0.00  0.00    +0.270 C 
ENDBRANCH  21  25
BRANCH  22  26
ATOM     26  O   LIG    1        4.158   1.621   3.040  0.00  0.00    -0.360 OA
BRANCH  26  27
ATOM     27  C   LIG    1        4.874   2.722   3.659  0.00  0.00    +0.140 C 
ATOM     28  C   LIG    1        6.063   3.115   2.780  0.00  0.00    +0.040 C 
ATOM     29  C   LIG    1        5.380   2.290   5.037  0.00  0.00    +0.080 C 
ATOM     30  C   LIG    1        3.935   3.920   3.812  0.00  0.00    +0.040 C 
ENDBRANCH  26  27
ENDBRANCH  22  26
ENDBRANCH  20  21
ENDBRANCH   1  20
TORSDOF 7
