REMARK  Name = ZINCrH000004kbXv.0
REMARK                            x       y       z     vdW  Elec       q    Type
REMARK                         _______ _______ _______ _____ _____    ______ ____
ROOT
ATOM      1  C   LIG    1       -0.586  -1.174  -0.747  0.00  0.00    +0.570 C 
ATOM      2  N   LIG    1       -0.480   0.022  -0.137  0.00  0.00    -0.580 N 
ATOM      3  O   LIG    1       -0.307  -2.191  -0.144  0.00  0.00    -0.520 OA
ENDROOT
BRANCH   1   6
ATOM      4  C   LIG    1       -1.882  -0.223  -4.044  0.00  0.00    +0.560 A 
ATOM      5  N   LIG    1       -1.473  -0.159  -2.788  0.00  0.00    -0.540 NA
ATOM      6  C   LIG    1       -1.045  -1.250  -2.157  0.00  0.00    +0.180 A 
ATOM      7  C   LIG    1       -1.029  -2.465  -2.843  0.00  0.00    -0.070 A 
ATOM      8  C   LIG    1       -1.472  -2.487  -4.158  0.00  0.00    +0.220 A 
ATOM      9  C   LIG    1       -1.480  -3.777  -4.938  0.00  0.00    +0.150 C 
ATOM     10  N   LIG    1       -1.883  -1.364  -4.720  0.00  0.00    -0.550 NA
BRANCH   4  12
ATOM     11  C   LIG    1       -2.724   0.893  -6.077  0.00  0.00    +0.300 C 
ATOM     12  N   LIG    1       -2.320   0.931  -4.670  0.00  0.00    -0.700 N 
ATOM     13  H   LIG    1       -2.360   1.765  -4.176  0.00  0.00    +0.420 HD
ENDBRANCH   4  12
ENDBRANCH   1   6
BRANCH   2  14
ATOM     14  C   LIG    1        0.048   0.104   1.228  0.00  0.00    +0.330 C 
BRANCH  14  15
ATOM     15  C   LIG    1       -1.076  -0.084   2.213  0.00  0.00    -0.110 A 
ATOM     16  C   LIG    1       -1.446  -1.357   2.604  0.00  0.00    +0.040 A 
ATOM     17  C   LIG    1       -2.477  -1.530   3.509  0.00  0.00    +0.000 A 
ATOM     18  C   LIG    1       -3.139  -0.430   4.021  0.00  0.00    +0.000 A 
ATOM     19  C   LIG    1       -2.768   0.843   3.630  0.00  0.00    -0.010 A 
ATOM     20  C   LIG    1       -1.737   1.016   2.727  0.00  0.00    +0.010 A 
ENDBRANCH  14  15
ENDBRANCH   2  14
BRANCH   2  21
ATOM     21  C   LIG    1       -0.891   1.241  -0.837  0.00  0.00    +0.300 C 
BRANCH  21  22
ATOM     22  C   LIG    1        0.266   1.751  -1.698  0.00  0.00    +0.050 C 
BRANCH  22  23
ATOM     23  C   LIG    1       -0.106   3.079  -2.306  0.00  0.00    -0.070 A 
ATOM     24  C   LIG    1       -0.560   3.138  -3.610  0.00  0.00    +0.000 A 
ATOM     25  C   LIG    1       -0.906   4.356  -4.166  0.00  0.00    +0.000 A 
ATOM     26  C   LIG    1       -0.789   5.514  -3.422  0.00  0.00    +0.000 A 
ATOM     27  C   LIG    1       -0.330   5.455  -2.119  0.00  0.00    +0.010 A 
ATOM     28  C   LIG    1        0.012   4.237  -1.561  0.00  0.00    +0.000 A 
ENDBRANCH  22  23
ENDBRANCH  21  22
ENDBRANCH   2  21
TORSDOF 7
