REMARK  Name = ZINCvU0000000FnV.0
REMARK                            x       y       z     vdW  Elec       q    Type
REMARK                         _______ _______ _______ _____ _____    ______ ____
ROOT
ATOM      1  C   LIG    1       -3.359  -5.369  -0.254  0.00  0.00    -0.680 A 
ATOM      2  C   LIG    1       -2.345  -4.449  -0.415  0.00  0.00    +0.230 A 
ATOM      3  C   LIG    1       -2.652  -3.098  -0.593  0.00  0.00    -0.150 A 
ATOM      4  C   LIG    1       -3.986  -2.687  -0.603  0.00  0.00    +0.130 A 
ATOM      5  C   LIG    1       -4.993  -3.617  -0.445  0.00  0.00    +0.030 A 
ATOM      6  C   LIG    1       -4.681  -4.955  -0.269  0.00  0.00    +0.080 A 
ATOM      7 CL   LIG    1       -5.953  -6.119  -0.066  0.00  0.00    -0.030 Cl
ENDROOT
BRANCH   3   8
ATOM      8  C   LIG    1       -1.570  -2.108  -0.765  0.00  0.00    +0.560 C 
ATOM      9  N   LIG    1       -1.870  -0.805  -0.938  0.00  0.00    -0.630 N 
ATOM     10  H   LIG    1       -2.796  -0.518  -0.948  0.00  0.00    +0.420 HD
ATOM     11  O   LIG    1       -0.409  -2.468  -0.752  0.00  0.00    -0.450 OA
BRANCH   9  12
ATOM     12  C   LIG    1       -0.855   0.123  -1.099  0.00  0.00    +0.330 A 
ATOM     13  N   LIG    1        0.402  -0.154  -1.100  0.00  0.00    -0.460 NA
ATOM     14  C   LIG    1        1.273   0.861  -1.269  0.00  0.00    +0.100 A 
ATOM     15  C   LIG    1        2.682   0.818  -1.308  0.00  0.00    +0.120 A 
ATOM     16  C   LIG    1        3.409   1.968  -1.490  0.00  0.00    +0.020 A 
ATOM     17  C   LIG    1        2.769   3.191  -1.641  0.00  0.00    +0.120 A 
ATOM     18  C   LIG    1        1.392   3.257  -1.606  0.00  0.00    +0.050 A 
ATOM     19  F   LIG    1        3.495   4.316  -1.821  0.00  0.00    -0.130 F 
ATOM     20  C   LIG    1        0.640   2.099  -1.421  0.00  0.00    -0.160 A 
ATOM     21  S   LIG    1       -1.101   1.849  -1.331  0.00  0.00    +0.090 S 
ENDBRANCH   9  12
ENDBRANCH   3   8
BRANCH   1  22
ATOM     22  S   LIG    1       -2.973  -7.073  -0.029  0.00  0.00    +2.690 S 
ATOM     23  O   LIG    1       -1.555  -7.163  -0.001  0.00  0.00    -0.930 OA
ATOM     24  O   LIG    1       -3.779  -7.792  -0.952  0.00  0.00    -0.920 OA
BRANCH  22  26
ATOM     25  C   LIG    1       -4.621  -8.429   1.633  0.00  0.00    +0.310 C 
ATOM     26  N   LIG    1       -3.499  -7.499   1.482  0.00  0.00    -0.930 N 
BRANCH  26  27
ATOM     27  C   LIG    1       -2.872  -6.972   2.614  0.00  0.00    +0.160 A 
ATOM     28  C   LIG    1       -1.554  -6.540   2.542  0.00  0.00    -0.020 A 
ATOM     29  C   LIG    1       -0.939  -6.014   3.662  0.00  0.00    +0.050 A 
ATOM     30  C   LIG    1       -1.631  -5.929   4.856  0.00  0.00    -0.020 A 
ATOM     31  C   LIG    1       -2.941  -6.364   4.933  0.00  0.00    +0.040 A 
ATOM     32  C   LIG    1       -3.564  -6.885   3.816  0.00  0.00    -0.010 A 
ENDBRANCH  26  27
ENDBRANCH  22  26
ENDBRANCH   1  22
TORSDOF 5
