REMARK  Name = ZINCrD0000073dZB.0
REMARK                            x       y       z     vdW  Elec       q    Type
REMARK                         _______ _______ _______ _____ _____    ______ ____
ROOT
ATOM      1  C   LIG    1       -4.203   4.524  -1.554  0.00  0.00    +0.560 C 
ATOM      2  N   LIG    1       -3.034   3.896  -1.323  0.00  0.00    -0.720 N 
ATOM      3  H   LIG    1       -2.522   3.537  -2.065  0.00  0.00    +0.400 HD
ATOM      4  O   LIG    1       -4.845   4.974  -0.624  0.00  0.00    -0.540 OA
ENDROOT
BRANCH   1   7
ATOM      5  C   LIG    1       -6.384   5.449  -4.469  0.00  0.00    +0.090 A 
ATOM      6  C   LIG    1       -5.921   5.313  -3.175  0.00  0.00    +0.040 A 
ATOM      7  C   LIG    1       -4.705   4.667  -2.935  0.00  0.00    -0.140 A 
ATOM      8  C   LIG    1       -3.969   4.151  -4.003  0.00  0.00    +0.050 A 
ATOM      9  C   LIG    1       -4.440   4.284  -5.292  0.00  0.00    -0.040 A 
ATOM     10  C   LIG    1       -5.644   4.930  -5.531  0.00  0.00    +0.130 A 
BRANCH   5  12
ATOM     11  C   LIG    1       -8.268   6.588  -3.571  0.00  0.00    +0.240 C 
ATOM     12  O   LIG    1       -7.564   6.082  -4.706  0.00  0.00    -0.300 OA
ENDBRANCH   5  12
BRANCH  10  13
ATOM     13  O   LIG    1       -6.104   5.059  -6.803  0.00  0.00    -0.300 OA
BRANCH  13  14
ATOM     14  C   LIG    1       -5.296   4.505  -7.843  0.00  0.00    +0.180 C 
BRANCH  14  15
ATOM     15  C   LIG    1       -5.971   4.745  -9.195  0.00  0.00    +0.050 C 
BRANCH  15  16
ATOM     16  C   LIG    1       -5.106   4.152 -10.309  0.00  0.00    -0.020 C 
ATOM     17  C   LIG    1       -5.716   4.500 -11.669  0.00  0.00    +0.030 C 
ATOM     18  C   LIG    1       -5.044   2.632 -10.153  0.00  0.00    +0.020 C 
ENDBRANCH  15  16
ENDBRANCH  14  15
ENDBRANCH  13  14
ENDBRANCH  10  13
ENDBRANCH   1   7
BRANCH   2  19
ATOM     19  C   LIG    1       -2.535   3.755   0.047  0.00  0.00    +0.350 C 
BRANCH  19  20
ATOM     20  C   LIG    1       -1.220   3.021   0.030  0.00  0.00    -0.260 A 
ATOM     21  C   LIG    1       -0.044   3.712   0.023  0.00  0.00    +0.050 A 
ATOM     22  C   LIG    1        1.167   3.006   0.007  0.00  0.00    -0.090 A 
ATOM     23  C   LIG    1        1.160   1.653  -0.000  0.00  0.00    +0.180 A 
ATOM     24  N   LIG    1       -0.011   0.966   0.007  0.00  0.00    -0.610 N 
ATOM     25  H   LIG    1        0.002  -0.004   0.002  0.00  0.00    +0.420 HD
ATOM     26  C   LIG    1        2.466   0.901  -0.017  0.00  0.00    +0.150 C 
ATOM     27  C   LIG    1       -0.047   5.220   0.031  0.00  0.00    +0.110 C 
ATOM     28  C   LIG    1       -1.191   1.615   0.017  0.00  0.00    +0.530 A 
ATOM     29  O   LIG    1       -2.235   0.984   0.018  0.00  0.00    -0.540 OA
ENDBRANCH  19  20
ENDBRANCH   2  19
TORSDOF 8
