REMARK  Name = ZINCrg00000SjSqH.0
REMARK                            x       y       z     vdW  Elec       q    Type
REMARK                         _______ _______ _______ _____ _____    ______ ____
ROOT
ATOM      1  N   LIG    1       -1.305   1.180   0.149  0.00  0.00    -0.520 NA
ATOM      2  C   LIG    1        0.148   0.961   0.131  0.00  0.00    +0.200 C 
ATOM      3  C   LIG    1        0.772   1.786  -0.997  0.00  0.00    +0.200 C 
ATOM      4  N   LIG    1        0.459   3.208  -0.791  0.00  0.00    -0.520 NA
ATOM      5  C   LIG    1       -0.994   3.427  -0.773  0.00  0.00    +0.190 C 
ATOM      6  C   LIG    1       -1.618   2.601   0.354  0.00  0.00    +0.200 C 
ENDROOT
BRANCH   1   7
ATOM      7  C   LIG    1       -1.950   0.345   1.171  0.00  0.00    +0.140 C 
ATOM      8  C   LIG    1       -3.452   0.635   1.193  0.00  0.00    +0.080 C 
BRANCH   7  15
ATOM      9  C   LIG    1       -1.301  -5.659   2.221  0.00  0.00    +0.300 C 
ATOM     10  N   LIG    1       -1.521  -4.245   2.535  0.00  0.00    -0.740 N 
ATOM     11  H   LIG    1       -1.667  -3.969   3.453  0.00  0.00    +0.400 HD
ATOM     12  C   LIG    1       -1.521  -3.327   1.547  0.00  0.00    +0.690 C 
ATOM     13  N   LIG    1       -1.723  -2.026   1.836  0.00  0.00    -0.690 N 
ATOM     14  H   LIG    1       -1.869  -1.750   2.754  0.00  0.00    +0.410 HD
ATOM     15  C   LIG    1       -1.724  -1.109   0.849  0.00  0.00    +0.520 C 
ATOM     16  O   LIG    1       -1.542  -1.454  -0.299  0.00  0.00    -0.440 OA
ATOM     17  O   LIG    1       -1.339  -3.673   0.397  0.00  0.00    -0.530 OA
ENDBRANCH   7  15
ENDBRANCH   1   7
BRANCH   4  18
ATOM     18  C   LIG    1        1.105   4.042  -1.813  0.00  0.00    +0.230 C 
BRANCH  18  19
ATOM     19  C   LIG    1        2.602   3.942  -1.671  0.00  0.00    -0.090 A 
ATOM     20  C   LIG    1        3.162   3.665  -0.438  0.00  0.00    +0.080 A 
ATOM     21  C   LIG    1        4.535   3.568  -0.309  0.00  0.00    +0.010 A 
ATOM     22  C   LIG    1        5.349   3.760  -1.410  0.00  0.00    +0.030 A 
ATOM     23  C   LIG    1        4.790   4.042  -2.642  0.00  0.00    +0.030 A 
ATOM     24  C   LIG    1        3.416   4.133  -2.773  0.00  0.00    -0.020 A 
ATOM     25 CL   LIG    1        2.713   4.487  -4.321  0.00  0.00    -0.050 Cl
ENDBRANCH  18  19
BRANCH  18  26
ATOM     26  C   LIG    1        0.678   5.476  -1.634  0.00  0.00    +0.470 C 
ATOM     27  O   LIG    1        0.373   5.883  -0.537  0.00  0.00    -0.480 OA
BRANCH  26  28
ATOM     28  O   LIG    1        0.637   6.301  -2.691  0.00  0.00    -0.350 OA
ATOM     29  C   LIG    1        0.216   7.669  -2.444  0.00  0.00    +0.260 C 
ENDBRANCH  26  28
ENDBRANCH  18  26
ENDBRANCH   4  18
TORSDOF 6
