REMARK  Name = ZINCnE000007Lpcg.2
REMARK                            x       y       z     vdW  Elec       q    Type
REMARK                         _______ _______ _______ _____ _____    ______ ____
ROOT
ATOM      1  N   LIG    1       -2.673   1.842   1.567  0.00  0.00    -0.510 NA
ENDROOT
BRANCH   1   2
ATOM      2  C   LIG    1       -2.660   3.198   2.131  0.00  0.00    +0.200 C 
ATOM      3  C   LIG    1       -3.757   4.036   1.471  0.00  0.00    +0.000 C 
BRANCH   2   4
ATOM      4  C   LIG    1       -2.911   3.126   3.639  0.00  0.00    -0.030 C 
ATOM      5  C   LIG    1       -4.176   3.798   4.177  0.00  0.00    +0.000 C 
ATOM      6  C   LIG    1       -2.806   4.428   4.436  0.00  0.00    +0.000 C 
ENDBRANCH   2   4
ENDBRANCH   1   2
BRANCH   1   7
ATOM      7  C   LIG    1       -2.239   1.851   0.164  0.00  0.00    +0.300 C 
BRANCH   7  11
ATOM      8  C   LIG    1        2.912   1.935   0.003  0.00  0.00    +0.190 C 
ATOM      9  C   LIG    1        1.442   2.267   0.022  0.00  0.00    -0.040 A 
ATOM     10  C   LIG    1        0.388   1.374   0.136  0.00  0.00    -0.220 A 
ATOM     11  C   LIG    1       -0.789   2.257   0.089  0.00  0.00    +0.050 A 
ATOM     12  N   LIG    1       -0.313   3.460  -0.028  0.00  0.00    -0.390 NA
ATOM     13  O   LIG    1        0.893   3.479  -0.069  0.00  0.00    +0.070 OA
BRANCH  10  14
ATOM     14  C   LIG    1        0.434  -0.089   0.266  0.00  0.00    +0.550 C 
ATOM     15  O   LIG    1       -0.605  -0.729   0.357  0.00  0.00    -0.660 OA
ATOM     16  O   LIG    1        1.512  -0.669   0.283  0.00  0.00    -0.690 OA
ENDBRANCH  10  14
ENDBRANCH   7  11
ENDBRANCH   1   7
BRANCH   1  17
ATOM     17  C   LIG    1       -4.001   1.228   1.704  0.00  0.00    +0.220 C 
BRANCH  17  18
ATOM     18  C   LIG    1       -3.877  -0.269   1.580  0.00  0.00    -0.070 A 
ATOM     19  C   LIG    1       -4.099  -0.882   0.361  0.00  0.00    +0.010 A 
ATOM     20  C   LIG    1       -3.981  -2.255   0.246  0.00  0.00    +0.000 A 
ATOM     21  C   LIG    1       -3.651  -3.015   1.352  0.00  0.00    -0.010 A 
ATOM     22  C   LIG    1       -3.433  -2.402   2.572  0.00  0.00    -0.010 A 
ATOM     23  C   LIG    1       -3.546  -1.029   2.686  0.00  0.00    +0.020 A 
ENDBRANCH  17  18
ENDBRANCH   1  17
TORSDOF 7
