REMARK  Name = ZINCpk00000y6xtD.0
REMARK                            x       y       z     vdW  Elec       q    Type
REMARK                         _______ _______ _______ _____ _____    ______ ____
ROOT
ATOM      1  C   LIG    1       -2.340   1.416  -0.107  0.00  0.00    +0.240 C 
ATOM      2  C   LIG    1       -2.832   1.107  -1.522  0.00  0.00    +0.040 C 
ENDROOT
BRANCH   1   4
ATOM      3  C   LIG    1        0.009   2.007  -0.373  0.00  0.00    +0.530 C 
ATOM      4  N   LIG    1       -1.262   2.406  -0.170  0.00  0.00    -0.710 N 
ATOM      5  H   LIG    1       -1.463   3.349  -0.065  0.00  0.00    +0.400 HD
ATOM      6  O   LIG    1        0.261   0.827  -0.504  0.00  0.00    -0.540 OA
BRANCH   3   7
ATOM      7  C   LIG    1        1.117   3.025  -0.444  0.00  0.00    -0.080 C 
ATOM      8  C   LIG    1        1.185   3.798   0.875  0.00  0.00    +0.050 C 
ATOM      9  C   LIG    1        0.843   3.999  -1.592  0.00  0.00    +0.040 C 
BRANCH   7  10
ATOM     10  C   LIG    1        2.450   2.314  -0.686  0.00  0.00    +0.070 C 
BRANCH  10  11
ATOM     11  C   LIG    1        3.575   3.348  -0.758  0.00  0.00    +0.160 C 
BRANCH  11  13
ATOM     12  C   LIG    1        5.942   3.564  -1.069  0.00  0.00    +0.200 C 
ATOM     13  O   LIG    1        4.819   2.683  -0.985  0.00  0.00    -0.390 OA
ENDBRANCH  11  13
ENDBRANCH  10  11
ENDBRANCH   7  10
ENDBRANCH   3   7
ENDBRANCH   1   4
BRANCH   1  14
ATOM     14  C   LIG    1       -3.497   1.974   0.724  0.00  0.00    +0.200 C 
BRANCH  14  15
ATOM     15  N   LIG    1       -3.001   2.373   2.049  0.00  0.00    -0.530 NA
ATOM     16  C   LIG    1       -3.962   3.252   2.728  0.00  0.00    +0.190 C 
BRANCH  15  17
ATOM     17  C   LIG    1       -2.691   1.195   2.871  0.00  0.00    +0.320 C 
BRANCH  17  18
ATOM     18  C   LIG    1       -1.962   1.630   4.116  0.00  0.00    +0.170 A 
ATOM     19  N   LIG    1       -0.664   1.742   4.261  0.00  0.00    -0.280 NA
ATOM     20  N   LIG    1       -0.433   2.141   5.464  0.00  0.00    -0.130 N 
ATOM     21  N   LIG    1       -1.552   2.276   6.086  0.00  0.00    -0.060 NA
ATOM     22  N   LIG    1       -2.513   1.969   5.282  0.00  0.00    -0.290 NA
BRANCH  20  23
ATOM     23  C   LIG    1        0.892   2.395   6.035  0.00  0.00    +0.180 C 
ATOM     24  C   LIG    1        1.594   3.490   5.229  0.00  0.00    +0.080 C 
ATOM     25  C   LIG    1        1.724   1.112   5.983  0.00  0.00    +0.080 C 
ATOM     26  C   LIG    1        0.743   2.847   7.489  0.00  0.00    +0.080 C 
ENDBRANCH  20  23
ENDBRANCH  17  18
ENDBRANCH  15  17
ENDBRANCH  14  15
ENDBRANCH   1  14
TORSDOF 10
