REMARK  Name = ZINCpk00000xL0YE.0
REMARK                            x       y       z     vdW  Elec       q    Type
REMARK                         _______ _______ _______ _____ _____    ______ ____
ROOT
ATOM      1  C   LIG    1        0.759  -0.698  -0.119  0.00  0.00    +0.480 A 
ATOM      2  C   LIG    1        1.919   0.062   0.042  0.00  0.00    -0.210 A 
ATOM      3  C   LIG    1        1.810   1.439   0.042  0.00  0.00    +0.380 A 
ATOM      4  N   LIG    1        0.616   1.994  -0.110  0.00  0.00    -0.600 NA
ATOM      5  C   LIG    1       -0.468   1.248  -0.261  0.00  0.00    +0.600 A 
ATOM      6  N   LIG    1       -0.406  -0.075  -0.267  0.00  0.00    -0.630 NA
ENDROOT
BRANCH   1   7
ATOM      7  N   LIG    1        0.821  -2.082  -0.125  0.00  0.00    -0.700 N 
ATOM      8  H   LIG    1        0.011  -2.603  -0.237  0.00  0.00    +0.410 HD
BRANCH   7  14
ATOM      9  C   LIG    1        2.041  -4.152  -0.593  0.00  0.00    +0.150 C 
ATOM     10  O   LIG    1        3.280  -4.831  -0.382  0.00  0.00    -0.360 OA
ATOM     11  C   LIG    1        3.609  -5.032   0.995  0.00  0.00    +0.210 C 
ATOM     12  C   LIG    1        3.741  -3.674   1.689  0.00  0.00    +0.010 C 
ATOM     13  C   LIG    1        2.430  -2.897   1.530  0.00  0.00    +0.000 C 
ATOM     14  C   LIG    1        2.110  -2.758   0.038  0.00  0.00    +0.220 C 
BRANCH   9  16
ATOM     15  C   LIG    1        2.979  -3.341  -2.762  0.00  0.00    +0.030 C 
ATOM     16  C   LIG    1        1.781  -4.019  -2.095  0.00  0.00    -0.010 C 
ATOM     17  C   LIG    1        1.579  -5.409  -2.702  0.00  0.00    +0.020 C 
ENDBRANCH   9  16
ENDBRANCH   7  14
ENDBRANCH   1   7
BRANCH   5  18
ATOM     18  N   LIG    1       -1.695   1.867  -0.423  0.00  0.00    -0.700 N 
ATOM     19  H   LIG    1       -2.497   1.332  -0.538  0.00  0.00    +0.410 HD
BRANCH  18  20
ATOM     20  C   LIG    1       -1.785   3.329  -0.419  0.00  0.00    +0.280 C 
BRANCH  20  21
ATOM     21  C   LIG    1       -3.243   3.751  -0.615  0.00  0.00    +0.020 C 
BRANCH  21  22
ATOM     22  C   LIG    1       -3.336   5.278  -0.611  0.00  0.00    +0.280 C 
BRANCH  22  23
ATOM     23  N   LIG    1       -4.732   5.682  -0.798  0.00  0.00    -1.120 NA
ATOM     24  H   LIG    1       -5.385   5.038  -1.114  0.00  0.00    +0.420 HD
BRANCH  23  25
ATOM     25  S   LIG    1       -5.195   7.238  -0.470  0.00  0.00    +2.620 S 
ATOM     26  O   LIG    1       -4.696   7.484   0.837  0.00  0.00    -0.950 OA
ATOM     27  O   LIG    1       -6.590   7.252  -0.737  0.00  0.00    -0.960 OA
ATOM     28  C   LIG    1       -4.303   8.242  -1.691  0.00  0.00    -0.280 C 
ENDBRANCH  23  25
ENDBRANCH  22  23
ENDBRANCH  21  22
ENDBRANCH  20  21
ENDBRANCH  18  20
ENDBRANCH   5  18
TORSDOF 9
