REMARK  Name = ZINCtV00000L6jcj.0
REMARK                            x       y       z     vdW  Elec       q    Type
REMARK                         _______ _______ _______ _____ _____    ______ ____
ROOT
ATOM      1  C   LIG    1        3.798  -2.261   0.510  0.00  0.00    +0.320 A 
ATOM      2  C   LIG    1        3.704  -0.938   0.799  0.00  0.00    -0.380 A 
ATOM      3  S   LIG    1        5.257  -0.146   0.628  0.00  0.00    +0.170 S 
ATOM      4  C   LIG    1        6.056  -1.643   0.163  0.00  0.00    +0.110 A 
ATOM      5  N   LIG    1        7.335  -1.869  -0.151  0.00  0.00    -0.460 NA
ATOM      6  C   LIG    1        7.781  -3.058  -0.488  0.00  0.00    +0.220 A 
ATOM      7  C   LIG    1        6.937  -4.154  -0.534  0.00  0.00    -0.020 A 
ATOM      8  C   LIG    1        5.593  -3.991  -0.219  0.00  0.00    +0.070 A 
ATOM      9  C   LIG    1        5.133  -2.693   0.142  0.00  0.00    -0.170 A 
ENDROOT
BRANCH   8  10
ATOM     10  C   LIG    1        4.661  -5.142  -0.259  0.00  0.00    -0.080 A 
ATOM     11  C   LIG    1        4.938  -6.293   0.477  0.00  0.00    +0.040 A 
ATOM     12  C   LIG    1        4.063  -7.359   0.440  0.00  0.00    +0.010 A 
ATOM     13  C   LIG    1        2.918  -7.292  -0.334  0.00  0.00    +0.030 A 
ATOM     14  C   LIG    1        2.641  -6.155  -1.071  0.00  0.00    +0.010 A 
ATOM     15  C   LIG    1        3.506  -5.080  -1.038  0.00  0.00    +0.030 A 
ENDBRANCH   8  10
BRANCH   2  16
ATOM     16  C   LIG    1        2.507  -0.284   1.183  0.00  0.00    +0.610 C 
ATOM     17  N   LIG    1        2.517   1.037   1.450  0.00  0.00    -0.670 N 
ATOM     18  H   LIG    1        3.327   1.553   1.314  0.00  0.00    +0.410 HD
ATOM     19  O   LIG    1        1.469  -0.915   1.271  0.00  0.00    -0.530 OA
BRANCH  17  20
ATOM     20  C   LIG    1        1.360   1.663   1.923  0.00  0.00    +0.160 A 
ATOM     21  C   LIG    1        0.110   1.202   1.534  0.00  0.00    +0.040 A 
ATOM     22  C   LIG    1       -1.032   1.827   1.998  0.00  0.00    +0.030 A 
ATOM     23  C   LIG    1       -0.931   2.904   2.859  0.00  0.00    +0.010 A 
ATOM     24  C   LIG    1        0.313   3.367   3.250  0.00  0.00    +0.050 A 
ATOM     25  C   LIG    1        1.458   2.750   2.785  0.00  0.00    -0.070 A 
ATOM     26 CL   LIG    1        3.019   3.331   3.276  0.00  0.00    -0.060 Cl
ENDBRANCH  17  20
ENDBRANCH   2  16
BRANCH   1  27
ATOM     27  N   LIG    1        2.712  -3.125   0.561  0.00  0.00    -0.820 N 
ATOM     28  H   LIG    1        2.856  -4.081   0.640  0.00  0.00    +0.400 HD
ATOM     29  H   LIG    1        1.810  -2.772   0.518  0.00  0.00    +0.420 HD
ENDBRANCH   1  27
BRANCH   6  30
ATOM     30  C   LIG    1        9.238  -3.232  -0.829  0.00  0.00    +0.010 C 
ATOM     31  C   LIG    1        9.796  -4.657  -0.837  0.00  0.00    +0.040 C 
ATOM     32  C   LIG    1       10.175  -3.694   0.290  0.00  0.00    +0.050 C 
ENDBRANCH   6  30
TORSDOF 5
