REMARK  Name = ZINCrD000000AD6G.0
REMARK                            x       y       z     vdW  Elec       q    Type
REMARK                         _______ _______ _______ _____ _____    ______ ____
ROOT
ATOM      1  C   LIG    1        2.500   3.963   0.659  0.00  0.00    -0.200 A 
ATOM      2  C   LIG    1        1.452   3.413   0.007  0.00  0.00    +0.160 A 
ATOM      3  N   LIG    1        0.664   4.269  -0.621  0.00  0.00    -0.450 NA
ATOM      4  C   LIG    1        0.982   5.528  -0.548  0.00  0.00    +0.130 A 
ATOM      5  S   LIG    1        2.444   5.708   0.418  0.00  0.00    +0.130 S 
ENDROOT
BRANCH   4   6
ATOM      6  C   LIG    1        0.233   6.636  -1.178  0.00  0.00    -0.030 A 
ATOM      7  C   LIG    1        0.669   7.953  -1.026  0.00  0.00    +0.020 A 
ATOM      8  C   LIG    1       -0.031   8.982  -1.621  0.00  0.00    +0.010 A 
ATOM      9  C   LIG    1       -1.170   8.711  -2.358  0.00  0.00    +0.030 A 
ATOM     10  C   LIG    1       -1.611   7.409  -2.509  0.00  0.00    +0.010 A 
ATOM     11  C   LIG    1       -0.917   6.370  -1.923  0.00  0.00    +0.070 A 
ENDBRANCH   4   6
BRANCH   2  12
ATOM     12  C   LIG    1        1.200   1.956   0.001  0.00  0.00    -0.130 A 
ATOM     13  C   LIG    1       -0.017   1.377   0.010  0.00  0.00    +0.050 A 
ATOM     14  C   LIG    1        0.002  -0.004   0.002  0.00  0.00    +0.020 A 
ATOM     15  C   LIG    1        1.219  -0.553  -0.013  0.00  0.00    -0.040 A 
ATOM     16  S   LIG    1        2.442   0.711  -0.017  0.00  0.00    +0.130 S 
ENDBRANCH   2  12
BRANCH   1  17
ATOM     17  C   LIG    1        3.538   3.213   1.453  0.00  0.00    +0.170 C 
BRANCH  17  19
ATOM     18  O   LIG    1        4.655   3.135  -0.624  0.00  0.00    -0.510 OA
ATOM     19  C   LIG    1        4.681   2.829   0.549  0.00  0.00    +0.520 C 
ATOM     20  N   LIG    1        5.732   2.147   1.045  0.00  0.00    -0.720 N 
ATOM     21  H   LIG    1        5.753   1.903   1.983  0.00  0.00    +0.410 HD
BRANCH  20  22
ATOM     22  C   LIG    1        6.844   1.774   0.166  0.00  0.00    +0.270 C 
ATOM     23  C   LIG    1        7.854   2.932   0.090  0.00  0.00    +0.060 C 
ATOM     24  C   LIG    1        9.135   2.362  -0.569  0.00  0.00    -0.300 C 
ATOM     25  S   LIG    1        9.314   0.734   0.255  0.00  0.00    +2.400 S 
ATOM     26  O   LIG    1        9.654  -0.251  -0.711  0.00  0.00    -0.930 OA
ATOM     27  O   LIG    1       10.108   0.883   1.424  0.00  0.00    -0.930 OA
ATOM     28  C   LIG    1        7.560   0.533   0.735  0.00  0.00    -0.310 C 
ENDBRANCH  20  22
ENDBRANCH  17  19
ENDBRANCH   1  17
TORSDOF 5
