REMARK  Name = ZINCrD000000AgAH.0
REMARK                            x       y       z     vdW  Elec       q    Type
REMARK                         _______ _______ _______ _____ _____    ______ ____
ROOT
ATOM      1  C   LIG    1       -4.790  -7.037   0.021  0.00  0.00    -0.090 A 
ATOM      2  C   LIG    1       -5.418  -7.316   1.221  0.00  0.00    +0.020 A 
ATOM      3  C   LIG    1       -6.691  -7.856   1.231  0.00  0.00    +0.030 A 
ATOM      4  C   LIG    1       -7.335  -8.129   0.040  0.00  0.00    +0.030 A 
ATOM      5  C   LIG    1       -6.706  -7.856  -1.167  0.00  0.00    +0.160 A 
ATOM      6  C   LIG    1       -5.430  -7.308  -1.173  0.00  0.00    +0.000 A 
ENDROOT
BRANCH   5   7
ATOM      7  N   LIG    1       -7.356  -8.132  -2.375  0.00  0.00    -0.680 N 
ATOM      8  H   LIG    1       -7.227  -7.549  -3.140  0.00  0.00    +0.410 HD
ATOM      9  C   LIG    1       -8.162  -9.207  -2.476  0.00  0.00    +0.720 C 
ATOM     10  N   LIG    1       -8.714  -9.526  -3.663  0.00  0.00    -0.630 N 
ATOM     11  C   LIG    1       -8.528  -8.788  -4.921  0.00  0.00    +0.230 C 
ATOM     12  C   LIG    1       -9.367  -9.504  -6.001  0.00  0.00    +0.040 C 
ATOM     13  C   LIG    1      -10.430 -10.264  -5.165  0.00  0.00    +0.030 C 
ATOM     14  C   LIG    1       -9.610 -10.670  -3.915  0.00  0.00    +0.270 C 
ATOM     15  O   LIG    1       -8.391  -9.890  -1.496  0.00  0.00    -0.570 OA
ENDBRANCH   5   7
BRANCH   1  16
ATOM     16  C   LIG    1       -3.405  -6.444   0.015  0.00  0.00    +0.320 C 
BRANCH  16  19
ATOM     17  O   LIG    1       -1.292  -4.770   0.007  0.00  0.00    -0.540 OA
ATOM     18  C   LIG    1       -2.380  -4.234   0.012  0.00  0.00    +0.520 C 
ATOM     19  N   LIG    1       -3.501  -4.982   0.017  0.00  0.00    -0.720 N 
ATOM     20  H   LIG    1       -4.370  -4.553   0.021  0.00  0.00    +0.400 HD
BRANCH  18  21
ATOM     21  C   LIG    1       -2.478  -2.730   0.014  0.00  0.00    +0.080 C 
BRANCH  21  22
ATOM     22  C   LIG    1       -1.071  -2.127   0.008  0.00  0.00    +0.210 C 
BRANCH  22  23
ATOM     23  O   LIG    1       -1.164  -0.701   0.009  0.00  0.00    -0.320 OA
BRANCH  23  24
ATOM     24  C   LIG    1        0.004  -0.007   0.005  0.00  0.00    +0.130 A 
ATOM     25  C   LIG    1       -0.012   1.381   0.006  0.00  0.00    -0.020 A 
ATOM     26  C   LIG    1        1.177   2.084   0.002  0.00  0.00    +0.050 A 
ATOM     27  C   LIG    1        2.382   1.407  -0.004  0.00  0.00    -0.040 A 
ATOM     28  C   LIG    1        2.401   0.024  -0.005  0.00  0.00    +0.050 A 
ATOM     29  C   LIG    1        1.215  -0.684  -0.000  0.00  0.00    -0.080 A 
ENDBRANCH  23  24
ENDBRANCH  22  23
ENDBRANCH  21  22
ENDBRANCH  18  21
ENDBRANCH  16  19
ENDBRANCH   1  16
TORSDOF 7
