REMARK  Name = ZINCnE000001E83B.1
REMARK                            x       y       z     vdW  Elec       q    Type
REMARK                         _______ _______ _______ _____ _____    ______ ____
ROOT
ATOM      1  C   LIG    1        2.454   3.934   0.001  0.00  0.00    +0.070 C 
ATOM      2  C   LIG    1        2.274   5.228  -0.794  0.00  0.00    +0.110 C 
ATOM      3  C   LIG    1        1.026   5.937  -0.343  0.00  0.00    +0.530 C 
ATOM      4  N   LIG    1       -0.064   5.242   0.031  0.00  0.00    -0.660 N 
ATOM      5  H   LIG    1       -0.865   5.714   0.308  0.00  0.00    +0.410 HD
ATOM      6  C   LIG    1       -0.050   3.844   0.023  0.00  0.00    +0.210 A 
ATOM      7  C   LIG    1       -1.243   3.134   0.030  0.00  0.00    -0.050 A 
ATOM      8  C   LIG    1       -1.222   1.751   0.017  0.00  0.00    +0.120 A 
ATOM      9  C   LIG    1       -0.013   1.076   0.008  0.00  0.00    -0.050 A 
ATOM     10  C   LIG    1        1.176   1.782   0.000  0.00  0.00    +0.090 A 
ATOM     11  F   LIG    1       -2.382   1.058   0.019  0.00  0.00    -0.140 F 
ATOM     12  O   LIG    1        1.002   7.149  -0.317  0.00  0.00    -0.530 OA
ATOM     13  C   LIG    1        1.160   3.163   0.008  0.00  0.00    -0.090 A 
ENDROOT
BRANCH   1  15
ATOM     14  N   LIG    1        3.980   4.959   1.657  0.00  0.00    -0.660 NA
ATOM     15  C   LIG    1        2.848   4.267   1.417  0.00  0.00    +0.450 C 
ATOM     16  O   LIG    1        2.147   3.912   2.341  0.00  0.00    -0.600 OA
BRANCH  14  20
ATOM     17  C   LIG    1        5.598   6.126   4.593  0.00  0.00    +0.110 A 
ATOM     18  C   LIG    1        4.650   5.614   5.382  0.00  0.00    -0.230 A 
ATOM     19  S   LIG    1        3.452   4.829   4.356  0.00  0.00    +0.020 S 
ATOM     20  C   LIG    1        4.343   5.266   2.964  0.00  0.00    +0.350 A 
ATOM     21  N   LIG    1        5.410   5.919   3.304  0.00  0.00    -0.560 NA
BRANCH  17  23
ATOM     22  C   LIG    1        6.415   8.342   5.348  0.00  0.00    +0.020 C 
ATOM     23  C   LIG    1        6.790   6.874   5.133  0.00  0.00    +0.060 C 
ATOM     24  C   LIG    1        7.219   6.257   6.465  0.00  0.00    +0.010 C 
ENDBRANCH  17  23
ENDBRANCH  14  20
ENDBRANCH   1  15
TORSDOF 3
