REMARK  Name = ZINCvU0000000DBU.0
REMARK                            x       y       z     vdW  Elec       q    Type
REMARK                         _______ _______ _______ _____ _____    ______ ____
ROOT
ATOM      1  N   LIG    1       -2.285  -4.115  -0.955  0.00  0.00    -0.600 N 
ATOM      2  C   LIG    1       -2.057  -5.096  -0.059  0.00  0.00    +0.510 C 
ATOM      3  O   LIG    1       -2.055  -4.846   1.127  0.00  0.00    -0.510 OA
ENDROOT
BRANCH   1   5
ATOM      4  C   LIG    1       -0.873  -4.250  -2.947  0.00  0.00    +0.030 C 
ATOM      5  C   LIG    1       -2.287  -4.418  -2.388  0.00  0.00    +0.270 C 
ENDBRANCH   1   5
BRANCH   2   6
ATOM      6  C   LIG    1       -1.805  -6.505  -0.532  0.00  0.00    +0.330 C 
BRANCH   6   7
ATOM      7  N   LIG    1       -1.587  -7.377   0.624  0.00  0.00    -0.430 N 
ATOM      8  C   LIG    1       -0.380  -7.643   1.200  0.00  0.00    +0.030 A 
ATOM      9  C   LIG    1       -0.576  -8.480   2.237  0.00  0.00    -0.030 A 
ATOM     10  C   LIG    1       -1.965  -8.754   2.303  0.00  0.00    -0.110 A 
ATOM     11  C   LIG    1        0.949  -7.090   0.754  0.00  0.00    +0.130 C 
ATOM     12  C   LIG    1       -2.558  -8.059   1.296  0.00  0.00    +0.070 A 
ATOM     13  C   LIG    1       -4.031  -8.046   0.978  0.00  0.00    +0.140 C 
BRANCH  10  14
ATOM     14  C   LIG    1       -2.645  -9.635   3.287  0.00  0.00    +0.160 A 
ATOM     15  C   LIG    1       -1.985 -10.293   4.260  0.00  0.00    -0.090 A 
ATOM     16  S   LIG    1       -3.167 -11.210   5.190  0.00  0.00    +0.110 S 
ATOM     17  C   LIG    1       -4.425 -10.628   4.191  0.00  0.00    +0.050 A 
ATOM     18  C   LIG    1       -5.881 -10.983   4.348  0.00  0.00    +0.180 C 
ATOM     19  N   LIG    1       -3.954  -9.838   3.288  0.00  0.00    -0.470 NA
ENDBRANCH  10  14
ENDBRANCH   6   7
ENDBRANCH   2   6
BRANCH   1  20
ATOM     20  C   LIG    1       -2.530  -2.746  -0.494  0.00  0.00    +0.330 C 
BRANCH  20  21
ATOM     21  C   LIG    1       -1.220  -2.007  -0.396  0.00  0.00    +0.510 C 
ATOM     22  N   LIG    1       -1.200  -0.722   0.010  0.00  0.00    -0.690 N 
ATOM     23  H   LIG    1       -2.018  -0.295   0.308  0.00  0.00    +0.410 HD
ATOM     24  O   LIG    1       -0.184  -2.569  -0.682  0.00  0.00    -0.500 OA
BRANCH  22  25
ATOM     25  C   LIG    1        0.002  -0.004   0.002  0.00  0.00    +0.150 A 
ATOM     26  C   LIG    1        0.813   0.009   1.129  0.00  0.00    -0.020 A 
ATOM     27  C   LIG    1        1.999   0.719   1.117  0.00  0.00    +0.050 A 
ATOM     28  C   LIG    1        2.379   1.415  -0.015  0.00  0.00    +0.060 A 
ATOM     29  C   LIG    1        1.574   1.405  -1.140  0.00  0.00    +0.050 A 
ATOM     30 CL   LIG    1        0.335  -0.859   2.554  0.00  0.00    -0.040 Cl
ATOM     31  C   LIG    1        0.386   0.697  -1.135  0.00  0.00    -0.020 A 
ATOM     32 CL   LIG    1       -0.623   0.683  -2.547  0.00  0.00    -0.050 Cl
ENDBRANCH  22  25
ENDBRANCH  20  21
ENDBRANCH   1  20
TORSDOF 7
