REMARK  Name = ZINCrD00000hQ5Gy.2
REMARK                            x       y       z     vdW  Elec       q    Type
REMARK                         _______ _______ _______ _____ _____    ______ ____
ROOT
ATOM      1  N   LIG    1       -1.238   2.063   0.019  0.00  0.00    -0.660 N 
ATOM      2  H   LIG    1       -1.292   2.969  -0.324  0.00  0.00    +0.420 HD
ATOM      3  C   LIG    1       -2.340   1.464   0.514  0.00  0.00    +0.610 C 
ATOM      4  O   LIG    1       -2.254   0.369   1.035  0.00  0.00    -0.500 OA
ENDROOT
BRANCH   1  14
ATOM      5  C   LIG    1        3.184   3.645  -1.857  0.00  0.00    +0.190 C 
ATOM      6  N   LIG    1        3.515   3.540  -0.429  0.00  0.00    -0.530 NA
ATOM      7  C   LIG    1        2.476   4.172   0.400  0.00  0.00    +0.210 C 
ATOM      8  C   LIG    1        1.118   3.598  -0.002  0.00  0.00    +0.040 C 
ATOM      9  C   LIG    1        1.178   2.092  -0.010  0.00  0.00    -0.110 A 
ATOM     10  C   LIG    1        2.377   1.416  -0.031  0.00  0.00    -0.090 A 
ATOM     11  C   LIG    1        2.386   0.028  -0.047  0.00  0.00    -0.010 A 
ATOM     12  C   LIG    1        1.201  -0.681  -0.040  0.00  0.00    +0.030 A 
ATOM     13  C   LIG    1       -0.005  -0.008  -0.016  0.00  0.00    +0.020 A 
ATOM     14  C   LIG    1       -0.019   1.379  -0.000  0.00  0.00    +0.150 A 
ATOM     15  C   LIG    1        3.698   2.140  -0.033  0.00  0.00    +0.270 C 
ENDBRANCH   1  14
BRANCH   3  16
ATOM     16  C   LIG    1       -3.650   2.138   0.424  0.00  0.00    -0.010 A 
ATOM     17  N   LIG    1       -3.888   3.320  -0.112  0.00  0.00    -0.250 NA
ATOM     18  N   LIG    1       -5.138   3.602  -0.021  0.00  0.00    -0.230 N 
ATOM     19  C   LIG    1       -5.801   2.590   0.597  0.00  0.00    +0.180 A 
ATOM     20  C   LIG    1       -4.888   1.636   0.891  0.00  0.00    +0.020 A 
BRANCH  18  21
ATOM     21  C   LIG    1       -5.732   4.782  -0.491  0.00  0.00    +0.060 A 
ATOM     22  C   LIG    1       -7.100   4.981  -0.344  0.00  0.00    +0.120 A 
ATOM     23  C   LIG    1       -7.681   6.148  -0.806  0.00  0.00    +0.020 A 
ATOM     24  C   LIG    1       -6.904   7.113  -1.422  0.00  0.00    +0.100 A 
ATOM     25  C   LIG    1       -5.544   6.917  -1.574  0.00  0.00    +0.020 A 
ATOM     26  F   LIG    1       -7.860   4.037   0.252  0.00  0.00    -0.120 F 
ATOM     27  C   LIG    1       -4.955   5.754  -1.110  0.00  0.00    +0.140 A 
ATOM     28  F   LIG    1       -3.625   5.564  -1.259  0.00  0.00    -0.100 F 
ENDBRANCH  18  21
ENDBRANCH   3  16
TORSDOF 3
