REMARK  Name = ZINCrD00000741mZ.0
REMARK                            x       y       z     vdW  Elec       q    Type
REMARK                         _______ _______ _______ _____ _____    ______ ____
ROOT
ATOM      1  N   LIG    1       -3.503   1.695   7.226  0.00  0.00    -0.690 N 
ATOM      2  H   LIG    1       -3.200   1.387   8.095  0.00  0.00    +0.400 HD
ATOM      3  C   LIG    1       -4.284   2.790   7.135  0.00  0.00    +0.700 C 
ATOM      4  N   LIG    1       -4.563   3.512   8.238  0.00  0.00    -0.620 N 
ATOM      5  C   LIG    1       -3.934   3.186   9.525  0.00  0.00    +0.260 C 
ATOM      6  C   LIG    1       -3.264   4.447  10.080  0.00  0.00    +0.010 C 
ATOM      7  C   LIG    1       -4.293   5.578  10.152  0.00  0.00    +0.020 C 
ATOM      8  C   LIG    1       -4.813   5.886   8.745  0.00  0.00    +0.020 C 
ATOM      9  C   LIG    1       -5.497   4.645   8.174  0.00  0.00    +0.320 C 
ATOM     10  O   LIG    1       -4.736   3.126   6.058  0.00  0.00    -0.540 OA
ENDROOT
BRANCH   1  14
ATOM     11  C   LIG    1       -2.391  -0.368   3.776  0.00  0.00    +0.090 A 
ATOM     12  C   LIG    1       -1.507  -0.272   4.843  0.00  0.00    -0.020 A 
ATOM     13  C   LIG    1       -1.873   0.416   5.982  0.00  0.00    +0.000 A 
ATOM     14  C   LIG    1       -3.129   1.002   6.067  0.00  0.00    +0.140 A 
ATOM     15  C   LIG    1       -4.015   0.901   5.003  0.00  0.00    +0.050 A 
ATOM     16  C   LIG    1       -3.647   0.218   3.860  0.00  0.00    +0.010 A 
BRANCH  11  20
ATOM     17  C   LIG    1        1.113  -2.938   1.590  0.00  0.00    +0.050 C 
ATOM     18  C   LIG    1       -0.270  -2.301   1.438  0.00  0.00    +0.160 C 
ATOM     19  C   LIG    1       -0.658  -1.604   2.745  0.00  0.00    +0.170 C 
ATOM     20  N   LIG    1       -2.018  -1.061   2.619  0.00  0.00    -0.490 N 
ATOM     21  C   LIG    1       -2.980  -2.129   2.311  0.00  0.00    +0.160 C 
ATOM     22  C   LIG    1       -2.568  -2.820   1.009  0.00  0.00    +0.220 C 
ATOM     23  O   LIG    1       -1.232  -3.315   1.139  0.00  0.00    -0.380 OA
ENDBRANCH  11  20
ENDBRANCH   1  14
BRANCH   9  24
ATOM     24  C   LIG    1       -5.885   4.899   6.741  0.00  0.00    -0.210 A 
ATOM     25  C   LIG    1       -7.116   4.724   6.206  0.00  0.00    +0.220 A 
ATOM     26  N   LIG    1       -7.050   5.063   4.902  0.00  0.00    -0.480 N 
ATOM     27  H   LIG    1       -7.784   5.038   4.268  0.00  0.00    +0.430 HD
ATOM     28  N   LIG    1       -5.733   5.451   4.623  0.00  0.00    -0.300 NA
ATOM     29  C   LIG    1       -5.036   5.353   5.726  0.00  0.00    +0.280 A 
ENDBRANCH   9  24
TORSDOF 3
