REMARK  Name = ZINCqH0000003c3L.0
REMARK                            x       y       z     vdW  Elec       q    Type
REMARK                         _______ _______ _______ _____ _____    ______ ____
ROOT
ATOM      1  C   LIG    1        6.380   6.761  -0.334  0.00  0.00    -0.000 A 
ATOM      2  N   LIG    1        5.093   6.631  -0.241  0.00  0.00    -0.260 NA
ATOM      3  N   LIG    1        4.633   5.337  -0.131  0.00  0.00    -0.330 NA
ATOM      4  C   LIG    1        5.544   4.415  -0.134  0.00  0.00    +0.300 A 
ATOM      5  S   LIG    1        7.128   5.169  -0.278  0.00  0.00    +0.100 S 
ENDROOT
BRANCH   4   6
ATOM      6  N   LIG    1        5.308   3.049  -0.034  0.00  0.00    -0.620 N 
ATOM      7  H   LIG    1        6.053   2.432   0.041  0.00  0.00    +0.430 HD
BRANCH   6   8
ATOM      8  C   LIG    1        3.998   2.564  -0.042  0.00  0.00    +0.150 A 
ATOM      9  C   LIG    1        3.005   3.251  -0.728  0.00  0.00    +0.020 A 
ATOM     10  C   LIG    1        1.711   2.769  -0.734  0.00  0.00    +0.040 A 
ATOM     11  C   LIG    1        1.403   1.603  -0.057  0.00  0.00    -0.090 A 
ATOM     12  C   LIG    1        2.388   0.919   0.632  0.00  0.00    +0.040 A 
ATOM     13  C   LIG    1        3.685   1.393   0.638  0.00  0.00    -0.010 A 
BRANCH  11  14
ATOM     14  C   LIG    1       -0.011   1.080  -0.064  0.00  0.00    +0.020 C 
ATOM     15  C   LIG    1       -0.034  -0.318  -0.685  0.00  0.00    +0.040 C 
ATOM     16  C   LIG    1       -0.536   1.010   1.371  0.00  0.00    +0.030 C 
ENDBRANCH  11  14
ENDBRANCH   6   8
ENDBRANCH   4   6
BRANCH   1  17
ATOM     17  S   LIG    1        7.243   8.290  -0.485  0.00  0.00    +0.100 S 
BRANCH  17  18
ATOM     18  C   LIG    1        5.906   9.516  -0.473  0.00  0.00    +0.010 C 
ATOM     19  C   LIG    1        5.205   9.493   0.887  0.00  0.00    +0.100 C 
BRANCH  18  25
ATOM     20  N   LIG    1        5.397  14.108  -1.803  0.00  0.00    -0.740 N 
ATOM     21  H   LIG    1        4.454  13.942  -1.955  0.00  0.00    +0.400 HD
ATOM     22  C   LIG    1        6.195  13.111  -1.371  0.00  0.00    +0.690 C 
ATOM     23  N   LIG    1        5.682  11.884  -1.151  0.00  0.00    -0.680 N 
ATOM     24  H   LIG    1        4.738  11.719  -1.303  0.00  0.00    +0.410 HD
ATOM     25  C   LIG    1        6.480  10.888  -0.719  0.00  0.00    +0.540 C 
ATOM     26  O   LIG    1        7.659  11.094  -0.529  0.00  0.00    -0.450 OA
ATOM     27  O   LIG    1        7.377  13.318  -1.181  0.00  0.00    -0.520 OA
BRANCH  20  29
ATOM     28  C   LIG    1        4.846  16.379  -2.524  0.00  0.00    +0.030 C 
ATOM     29  C   LIG    1        5.955  15.441  -2.043  0.00  0.00    +0.270 C 
ENDBRANCH  20  29
ENDBRANCH  18  25
ENDBRANCH  17  18
ENDBRANCH   1  17
TORSDOF 7
