REMARK  Name = ZINCpk00000JorZ7.0
REMARK                            x       y       z     vdW  Elec       q    Type
REMARK                         _______ _______ _______ _____ _____    ______ ____
ROOT
ATOM      1  N   LIG    1       -0.640  -0.507   1.434  0.00  0.00    -0.990 NA
ATOM      2  C   LIG    1       -2.068  -0.779   1.680  0.00  0.00    +0.290 C 
ATOM      3  C   LIG    1       -2.248  -0.602   3.209  0.00  0.00    +0.040 C 
ATOM      4  C   LIG    1       -0.915  -1.184   3.749  0.00  0.00    +0.050 C 
ATOM      5  C   LIG    1        0.109  -0.764   2.673  0.00  0.00    +0.230 C 
ENDROOT
BRANCH   5   6
ATOM      6  C   LIG    1        1.105  -1.873   2.449  0.00  0.00    +0.510 C 
ATOM      7  N   LIG    1        2.211  -1.950   3.214  0.00  0.00    -0.610 N 
ATOM      8  C   LIG    1        2.417  -1.029   4.343  0.00  0.00    +0.240 C 
ATOM      9  C   LIG    1        2.769  -1.864   5.585  0.00  0.00    +0.220 C 
ATOM     10  O   LIG    1        3.858  -2.736   5.270  0.00  0.00    -0.380 OA
ATOM     11  C   LIG    1        3.566  -3.692   4.248  0.00  0.00    +0.220 C 
ATOM     12  C   LIG    1        3.252  -2.954   2.942  0.00  0.00    +0.260 C 
ATOM     13  O   LIG    1        0.910  -2.696   1.579  0.00  0.00    -0.520 OA
ENDBRANCH   5   6
BRANCH   1  14
ATOM     14  S   LIG    1        0.013  -0.003  -0.002  0.00  0.00    +2.720 S 
ATOM     15  O   LIG    1        1.380  -0.389   0.021  0.00  0.00    -0.940 OA
ATOM     16  O   LIG    1       -0.892  -0.409  -1.019  0.00  0.00    -0.930 OA
BRANCH  14  23
ATOM     17  C   LIG    1       -1.215   2.440   0.013  0.00  0.00    +0.240 A 
ATOM     18  C   LIG    1       -1.228   3.827   0.027  0.00  0.00    -0.070 A 
ATOM     19  C   LIG    1       -0.037   4.528   0.021  0.00  0.00    +0.150 A 
ATOM     20  C   LIG    1        1.167   3.847   0.009  0.00  0.00    -0.150 A 
ATOM     21  C   LIG    1        1.182   2.463   0.002  0.00  0.00    +0.200 A 
ATOM     22 BR   LIG    1        2.795   4.809   0.002  0.00  0.00    -0.030 Br
ATOM     23  C   LIG    1       -0.006   1.759   0.007  0.00  0.00    -0.710 A 
BRANCH  17  25
ATOM     24  C   LIG    1       -3.592   2.515   0.019  0.00  0.00    +0.270 C 
ATOM     25  O   LIG    1       -2.386   1.749   0.012  0.00  0.00    -0.310 OA
ENDBRANCH  17  25
ENDBRANCH  14  23
ENDBRANCH   1  14
TORSDOF 4
