REMARK  Name = ZINCqH00000323s4.0
REMARK                            x       y       z     vdW  Elec       q    Type
REMARK                         _______ _______ _______ _____ _____    ______ ____
ROOT
ATOM      1  N   LIG    1       -4.143   5.849   0.053  0.00  0.00    -0.680 N 
ATOM      2  H   LIG    1       -4.865   5.203   0.100  0.00  0.00    +0.410 HD
ATOM      3  C   LIG    1       -2.874   5.429  -0.121  0.00  0.00    +0.710 C 
ATOM      4  N   LIG    1       -2.595   4.111  -0.124  0.00  0.00    -0.730 N 
ATOM      5  H   LIG    1       -3.307   3.463  -0.000  0.00  0.00    +0.410 HD
ATOM      6  O   LIG    1       -1.982   6.240  -0.276  0.00  0.00    -0.570 OA
ENDROOT
BRANCH   1  12
ATOM      7  C   LIG    1       -4.126  11.878   1.167  0.00  0.00    +0.130 A 
ATOM      8  N   LIG    1       -5.090  11.272   0.582  0.00  0.00    -0.460 NA
ATOM      9  C   LIG    1       -4.981   9.942   0.391  0.00  0.00    +0.060 A 
ATOM     10  C   LIG    1       -5.896   9.059  -0.221  0.00  0.00    +0.100 A 
ATOM     11  C   LIG    1       -5.615   7.732  -0.326  0.00  0.00    +0.010 A 
ATOM     12  C   LIG    1       -4.419   7.217   0.168  0.00  0.00    +0.180 A 
ATOM     13  C   LIG    1       -3.506   8.059   0.777  0.00  0.00    +0.060 A 
ATOM     14  C   LIG    1       -3.781   9.421   0.885  0.00  0.00    -0.150 A 
ATOM     15  S   LIG    1       -2.850  10.742   1.586  0.00  0.00    +0.060 S 
BRANCH   7  17
ATOM     16  C   LIG    1       -5.269  13.730   2.355  0.00  0.00    +0.060 C 
ATOM     17  C   LIG    1       -4.089  13.356   1.456  0.00  0.00    +0.010 C 
ATOM     18  C   LIG    1       -4.182  14.135   0.143  0.00  0.00    +0.060 C 
ATOM     19  C   LIG    1       -2.778  13.705   2.164  0.00  0.00    +0.050 C 
ENDBRANCH   7  17
ENDBRANCH   1  12
BRANCH   4  20
ATOM     20  C   LIG    1       -1.216   3.654  -0.314  0.00  0.00    +0.320 C 
BRANCH  20  21
ATOM     21  C   LIG    1       -1.175   2.148  -0.276  0.00  0.00    +0.510 C 
ATOM     22  N   LIG    1       -0.002   1.502  -0.430  0.00  0.00    -0.720 N 
ATOM     23  H   LIG    1        0.815   2.006  -0.568  0.00  0.00    +0.400 HD
ATOM     24  O   LIG    1       -2.197   1.518  -0.107  0.00  0.00    -0.540 OA
BRANCH  22  25
ATOM     25  C   LIG    1        0.037   0.038  -0.393  0.00  0.00    +0.230 C 
ATOM     26  C   LIG    1        0.196  -0.450   1.062  0.00  0.00    +0.000 C 
ATOM     27  C   LIG    1        1.127  -1.684   0.948  0.00  0.00    +0.010 C 
ATOM     28  C   LIG    1        2.127  -1.258  -0.155  0.00  0.00    +0.010 C 
ATOM     29  C   LIG    1        1.264  -0.476  -1.167  0.00  0.00    +0.020 C 
ENDBRANCH  22  25
ENDBRANCH  20  21
ENDBRANCH   4  20
TORSDOF 5
