REMARK  Name = ZINCpk00000ebHVF.0
REMARK                            x       y       z     vdW  Elec       q    Type
REMARK                         _______ _______ _______ _____ _____    ______ ____
ROOT
ATOM      1  C   LIG    1       -2.180   1.036  -1.238  0.00  0.00    +0.030 C 
ATOM      2  C   LIG    1       -0.754   1.593  -1.231  0.00  0.00    +0.050 C 
ATOM      3  C   LIG    1       -0.013   1.086   0.008  0.00  0.00    +0.020 C 
ATOM      4  C   LIG    1       -0.731   1.581   1.267  0.00  0.00    +0.270 C 
ATOM      5  N   LIG    1       -2.141   1.172   1.198  0.00  0.00    -0.610 N 
ATOM      6  C   LIG    1       -2.706   0.481   2.208  0.00  0.00    +0.520 C 
ATOM      7  O   LIG    1       -3.871   0.149   2.139  0.00  0.00    -0.520 OA
ATOM      8  C   LIG    1       -2.923   1.530   0.007  0.00  0.00    +0.310 C 
ENDROOT
BRANCH   1  10
ATOM      9  O   LIG    1       -2.330   2.221  -3.269  0.00  0.00    -0.480 OA
ATOM     10  C   LIG    1       -2.898   1.510  -2.475  0.00  0.00    +0.470 C 
BRANCH  10  11
ATOM     11  O   LIG    1       -4.171   1.143  -2.694  0.00  0.00    -0.330 OA
BRANCH  11  12
ATOM     12  C   LIG    1       -4.800   1.637  -3.905  0.00  0.00    +0.160 C 
ATOM     13  C   LIG    1       -6.331   1.728  -3.717  0.00  0.00    +0.070 C 
ATOM     14  C   LIG    1       -6.858   1.090  -5.023  0.00  0.00    +0.270 C 
ATOM     15  O   LIG    1       -5.797   0.179  -5.436  0.00  0.00    -0.340 OA
ATOM     16  C   LIG    1       -4.607   0.653  -5.038  0.00  0.00    +0.470 C 
ATOM     17  O   LIG    1       -3.541   0.341  -5.513  0.00  0.00    -0.430 OA
ENDBRANCH  11  12
ENDBRANCH  10  11
ENDBRANCH   1  10
BRANCH   6  18
ATOM     18  C   LIG    1       -1.891   0.121   3.423  0.00  0.00    +0.120 C 
BRANCH  18  19
ATOM     19  C   LIG    1       -2.751  -0.644   4.396  0.00  0.00    -0.080 A 
ATOM     20  C   LIG    1       -3.465   0.033   5.367  0.00  0.00    +0.050 A 
ATOM     21  C   LIG    1       -4.257  -0.667   6.257  0.00  0.00    -0.010 A 
ATOM     22  C   LIG    1       -4.328  -2.048   6.182  0.00  0.00    +0.100 A 
ATOM     23  C   LIG    1       -3.609  -2.725   5.212  0.00  0.00    -0.010 A 
ATOM     24  F   LIG    1       -5.099  -2.733   7.054  0.00  0.00    -0.140 F 
ATOM     25  C   LIG    1       -2.821  -2.022   4.320  0.00  0.00    +0.050 A 
ENDBRANCH  18  19
ENDBRANCH   6  18
TORSDOF 5
