REMARK  Name = ZINCqH0000002U9i.0
REMARK                            x       y       z     vdW  Elec       q    Type
REMARK                         _______ _______ _______ _____ _____    ______ ____
ROOT
ATOM      1  C   LIG    1        2.462   0.920  -0.017  0.00  0.00    +0.360 C 
ENDROOT
BRANCH   1   4
ATOM      2  N   LIG    1        5.133   3.257   0.688  0.00  0.00    -0.540 N 
ATOM      3  C   LIG    1        4.165   2.401   1.067  0.00  0.00    +0.690 A 
ATOM      4  N   LIG    1        3.562   1.887  -0.022  0.00  0.00    -0.520 N 
ATOM      5  C   LIG    1        4.168   2.427  -1.154  0.00  0.00    +0.100 A 
ATOM      6  C   LIG    1        3.963   2.257  -2.515  0.00  0.00    +0.030 A 
ATOM      7  C   LIG    1        4.744   2.950  -3.419  0.00  0.00    +0.020 A 
ATOM      8  C   LIG    1        5.730   3.813  -2.973  0.00  0.00    +0.020 A 
ATOM      9  C   LIG    1        5.935   3.995  -1.619  0.00  0.00    +0.030 A 
ATOM     10  O   LIG    1        3.878   2.133   2.219  0.00  0.00    -0.550 OA
ATOM     11  C   LIG    1        5.160   3.300  -0.704  0.00  0.00    +0.100 A 
BRANCH   2  12
ATOM     12  C   LIG    1        6.009   4.013   1.587  0.00  0.00    +0.310 C 
BRANCH  12  14
ATOM     13  C   LIG    1        8.180   3.982   2.823  0.00  0.00    +0.030 C 
ATOM     14  C   LIG    1        7.265   3.192   1.884  0.00  0.00    +0.000 C 
ENDBRANCH  12  14
ENDBRANCH   2  12
ENDBRANCH   1   4
BRANCH   1  15
ATOM     15  C   LIG    1        1.147   1.655   0.000  0.00  0.00    +0.500 C 
ATOM     16  N   LIG    1       -0.011   0.966   0.007  0.00  0.00    -0.720 N 
ATOM     17  H   LIG    1        0.002  -0.004   0.002  0.00  0.00    +0.400 HD
ATOM     18  O   LIG    1        1.130   2.868   0.007  0.00  0.00    -0.520 OA
BRANCH  16  19
ATOM     19  C   LIG    1       -1.290   1.681   0.017  0.00  0.00    +0.290 C 
ATOM     20  C   LIG    1       -1.667   2.032   1.458  0.00  0.00    +0.040 C 
BRANCH  19  21
ATOM     21  C   LIG    1       -2.360   0.806  -0.583  0.00  0.00    -0.090 A 
ATOM     22  C   LIG    1       -2.383  -0.548  -0.302  0.00  0.00    +0.030 A 
ATOM     23  C   LIG    1       -3.367  -1.350  -0.848  0.00  0.00    +0.040 A 
ATOM     24  C   LIG    1       -4.322  -0.800  -1.684  0.00  0.00    -0.030 A 
ATOM     25  C   LIG    1       -4.295   0.553  -1.970  0.00  0.00    +0.040 A 
ATOM     26 CL   LIG    1       -5.554  -1.809  -2.376  0.00  0.00    -0.070 Cl
ATOM     27  C   LIG    1       -3.313   1.355  -1.419  0.00  0.00    +0.050 A 
ENDBRANCH  19  21
ENDBRANCH  16  19
ENDBRANCH   1  15
TORSDOF 6
