REMARK  Name = ZINCtV000002Mn2E.0
REMARK                            x       y       z     vdW  Elec       q    Type
REMARK                         _______ _______ _______ _____ _____    ______ ____
ROOT
ATOM      1  C   LIG    1        0.122   0.990  -2.724  0.00  0.00    +0.160 A 
ATOM      2  N   LIG    1        1.196   0.252  -2.547  0.00  0.00    -0.280 NA
ATOM      3  N   LIG    1        1.689  -0.089  -3.683  0.00  0.00    -0.260 NA
ATOM      4  C   LIG    1        0.963   0.409  -4.657  0.00  0.00    +0.230 A 
ATOM      5  N   LIG    1       -0.068   1.112  -4.073  0.00  0.00    -0.410 N 
ENDROOT
BRANCH   4   6
ATOM      6  C   LIG    1        1.203   0.242  -6.106  0.00  0.00    -0.020 A 
ATOM      7  C   LIG    1        0.546   1.063  -7.024  0.00  0.00    +0.050 A 
ATOM      8  C   LIG    1        0.778   0.906  -8.375  0.00  0.00    +0.030 A 
ATOM      9  C   LIG    1        1.651  -0.072  -8.821  0.00  0.00    -0.020 A 
ATOM     10  C   LIG    1        2.301  -0.893  -7.915  0.00  0.00    +0.030 A 
ATOM     11 CL   LIG    1        1.932  -0.269 -10.523  0.00  0.00    -0.060 Cl
ATOM     12  C   LIG    1        2.082  -0.742  -6.562  0.00  0.00    +0.090 A 
ENDBRANCH   4   6
BRANCH   5  13
ATOM     13  C   LIG    1       -1.095   1.809  -4.725  0.00  0.00    +0.090 A 
ATOM     14  C   LIG    1       -2.021   1.121  -5.497  0.00  0.00    +0.030 A 
ATOM     15  C   LIG    1       -3.034   1.810  -6.135  0.00  0.00    +0.040 A 
ATOM     16  C   LIG    1       -3.121   3.184  -6.013  0.00  0.00    +0.040 A 
ATOM     17  C   LIG    1       -2.197   3.873  -5.248  0.00  0.00    +0.040 A 
ATOM     18  C   LIG    1       -1.184   3.189  -4.604  0.00  0.00    +0.030 A 
ENDBRANCH   5  13
BRANCH   1  19
ATOM     19  S   LIG    1       -0.888   1.685  -1.458  0.00  0.00    +0.080 S 
BRANCH  19  20
ATOM     20  C   LIG    1       -0.013   1.086   0.008  0.00  0.00    +0.100 C 
BRANCH  20  22
ATOM     21  O   LIG    1       -1.714   2.256   1.150  0.00  0.00    -0.430 OA
ATOM     22  C   LIG    1       -0.718   1.572   1.248  0.00  0.00    +0.420 C 
BRANCH  22  23
ATOM     23  C   LIG    1       -0.198   1.216   2.577  0.00  0.00    -0.160 A 
ATOM     24  C   LIG    1        0.948   0.422   2.694  0.00  0.00    +0.090 A 
ATOM     25  C   LIG    1        1.432   0.096   3.943  0.00  0.00    +0.020 A 
ATOM     26  C   LIG    1        0.781   0.545   5.080  0.00  0.00    -0.000 A 
ATOM     27  C   LIG    1       -0.358   1.328   4.972  0.00  0.00    +0.020 A 
ATOM     28 CL   LIG    1        1.394   0.124   6.649  0.00  0.00    -0.060 Cl
ATOM     29  C   LIG    1       -0.850   1.666   3.730  0.00  0.00    +0.110 A 
ENDBRANCH  22  23
ENDBRANCH  20  22
ENDBRANCH  19  20
ENDBRANCH   1  19
TORSDOF 6
