REMARK  Name = ZINCvU00000008F8.0
REMARK                            x       y       z     vdW  Elec       q    Type
REMARK                         _______ _______ _______ _____ _____    ______ ____
ROOT
ATOM      1  C   LIG    1       -0.022   1.806   0.012  0.00  0.00    +0.050 C 
ENDROOT
BRANCH   1   2
ATOM      2  C   LIG    1       -0.751   2.305  -1.209  0.00  0.00    -0.080 A 
ATOM      3  C   LIG    1       -0.283   1.989  -2.471  0.00  0.00    +0.030 A 
ATOM      4  C   LIG    1       -0.954   2.443  -3.591  0.00  0.00    +0.000 A 
ATOM      5  C   LIG    1       -2.088   3.221  -3.449  0.00  0.00    +0.010 A 
ATOM      6  C   LIG    1       -2.553   3.542  -2.187  0.00  0.00    +0.000 A 
ATOM      7  C   LIG    1       -1.885   3.084  -1.067  0.00  0.00    +0.050 A 
ENDBRANCH   1   2
BRANCH   1   8
ATOM      8  C   LIG    1        1.391   2.327   0.001  0.00  0.00    +0.450 C 
ATOM      9  O   LIG    1        2.286   1.646  -0.455  0.00  0.00    -0.450 OA
BRANCH   8  15
ATOM     10  C   LIG    1        3.844   6.386   1.383  0.00  0.00    -0.080 A 
ATOM     11  C   LIG    1        2.771   5.523   1.184  0.00  0.00    +0.080 A 
ATOM     12  N   LIG    1        1.421   5.619   1.458  0.00  0.00    -0.560 N 
ATOM     13  H   LIG    1        0.996   6.387   1.871  0.00  0.00    +0.420 HD
ATOM     14  C   LIG    1        0.775   4.504   1.068  0.00  0.00    +0.330 A 
ATOM     15  C   LIG    1        1.676   3.613   0.524  0.00  0.00    -0.270 A 
ATOM     16  C   LIG    1        2.996   4.271   0.590  0.00  0.00    -0.050 A 
ATOM     17  C   LIG    1        4.281   3.901   0.206  0.00  0.00    +0.050 A 
ATOM     18  C   LIG    1        5.332   4.769   0.411  0.00  0.00    +0.000 A 
ATOM     19  C   LIG    1        5.112   6.006   0.998  0.00  0.00    +0.030 A 
BRANCH  10  21
ATOM     20  C   LIG    1        3.644   7.589   3.542  0.00  0.00    +0.020 C 
ATOM     21  C   LIG    1        3.620   7.734   2.019  0.00  0.00    +0.050 C 
ENDBRANCH  10  21
ENDBRANCH   8  15
ENDBRANCH   1   8
BRANCH   1  22
ATOM     22  S   LIG    1        0.002  -0.004   0.002  0.00  0.00    +0.050 S 
BRANCH  22  23
ATOM     23  C   LIG    1       -1.721  -0.334   0.168  0.00  0.00    +0.010 A 
ATOM     24  N   LIG    1       -2.645   0.571   0.267  0.00  0.00    -0.460 NA
ATOM     25  C   LIG    1       -3.889   0.143   0.382  0.00  0.00    +0.090 A 
ATOM     26  C   LIG    1       -4.021  -1.184   0.389  0.00  0.00    -0.220 A 
ATOM     27  C   LIG    1       -5.065   1.079   0.500  0.00  0.00    +0.150 C 
ATOM     28  S   LIG    1       -2.417  -1.894   0.229  0.00  0.00    +0.190 S 
BRANCH  26  29
ATOM     29  C   LIG    1       -5.317  -1.943   0.512  0.00  0.00    +0.170 C 
BRANCH  29  30
ATOM     30  C   LIG    1       -5.888  -2.189  -0.861  0.00  0.00    +0.510 C 
ATOM     31  O   LIG    1       -5.300  -1.788  -1.843  0.00  0.00    -0.530 OA
ATOM     32  N   LIG    1       -7.051  -2.856  -0.998  0.00  0.00    -0.860 N 
ATOM     33  H   LIG    1       -7.418  -3.015  -1.881  0.00  0.00    +0.400 HD
ATOM     34  H   LIG    1       -7.521  -3.177  -0.212  0.00  0.00    +0.400 HD
ENDBRANCH  29  30
ENDBRANCH  26  29
ENDBRANCH  22  23
ENDBRANCH   1  22
TORSDOF 8
