REMARK  Name = ZINCqH0000006ZYc.0
REMARK                            x       y       z     vdW  Elec       q    Type
REMARK                         _______ _______ _______ _____ _____    ______ ____
ROOT
ATOM      1  C   LIG    1       -1.242   2.182   0.020  0.00  0.00    +0.220 C 
ENDROOT
BRANCH   1   5
ATOM      2  C   LIG    1        1.294  -0.366  -0.015  0.00  0.00    +0.220 A 
ATOM      3  N   LIG    1        1.992   0.739  -0.009  0.00  0.00    -0.380 NA
ATOM      4  O   LIG    1        1.252   1.700   0.005  0.00  0.00    +0.080 OA
ATOM      5  C   LIG    1       -0.022   1.296   0.010  0.00  0.00    +0.180 A 
ATOM      6  N   LIG    1       -0.012  -0.013  -0.003  0.00  0.00    -0.470 NA
BRANCH   2  10
ATOM      7  C   LIG    1        2.838  -4.329  -0.062  0.00  0.00    +0.150 A 
ATOM      8  C   LIG    1        3.708  -3.247  -0.058  0.00  0.00    -0.010 A 
ATOM      9  C   LIG    1        3.210  -1.961  -0.043  0.00  0.00    +0.100 A 
ATOM     10  C   LIG    1        1.832  -1.748  -0.032  0.00  0.00    -0.070 A 
ATOM     11  C   LIG    1        0.962  -2.837  -0.031  0.00  0.00    +0.110 A 
ATOM     12  C   LIG    1        1.465  -4.121  -0.052  0.00  0.00    -0.070 A 
BRANCH   7  14
ATOM     13  C   LIG    1        2.380  -6.662  -0.082  0.00  0.00    +0.240 C 
ATOM     14  O   LIG    1        3.331  -5.595  -0.078  0.00  0.00    -0.310 OA
ENDBRANCH   7  14
ENDBRANCH   2  10
ENDBRANCH   1   5
BRANCH   1  15
ATOM     15  C   LIG    1       -1.651   2.468   1.466  0.00  0.00    +0.080 C 
BRANCH  15  16
ATOM     16  C   LIG    1       -2.871   3.353   1.477  0.00  0.00    +0.520 C 
ATOM     17  N   LIG    1       -3.414   3.738   2.649  0.00  0.00    -0.670 N 
ATOM     18  H   LIG    1       -3.061   3.392   3.484  0.00  0.00    +0.420 HD
ATOM     19  O   LIG    1       -3.364   3.719   0.431  0.00  0.00    -0.510 OA
BRANCH  17  20
ATOM     20  C   LIG    1       -4.486   4.637   2.662  0.00  0.00    +0.160 A 
ATOM     21  C   LIG    1       -4.600   5.569   3.685  0.00  0.00    -0.020 A 
ATOM     22  C   LIG    1       -5.657   6.459   3.693  0.00  0.00    +0.070 A 
ATOM     23  C   LIG    1       -6.606   6.418   2.689  0.00  0.00    -0.130 A 
ATOM     24  C   LIG    1       -6.498   5.486   1.669  0.00  0.00    +0.120 A 
ATOM     25  F   LIG    1       -7.428   5.447   0.690  0.00  0.00    -0.130 F 
ATOM     26  C   LIG    1       -7.760   7.387   2.704  0.00  0.00    +0.090 C 
ATOM     27  C   LIG    1       -5.440   4.596   1.654  0.00  0.00    +0.000 A 
ENDBRANCH  17  20
ENDBRANCH  15  16
ENDBRANCH   1  15
TORSDOF 6
