REMARK  Name = ZINCrD0000073z2Q.0
REMARK                            x       y       z     vdW  Elec       q    Type
REMARK                         _______ _______ _______ _____ _____    ______ ____
ROOT
ATOM      1  N   LIG    1       -5.124   0.136  -0.589  0.00  0.00    -0.650 N 
ATOM      2  H   LIG    1       -5.050   1.079  -0.806  0.00  0.00    +0.430 HD
ATOM      3  C   LIG    1       -4.061  -0.526  -0.090  0.00  0.00    +0.540 C 
ATOM      4  O   LIG    1       -4.180  -1.676   0.275  0.00  0.00    -0.490 OA
ENDROOT
BRANCH   1  10
ATOM      5  C   LIG    1       -7.535   0.172  -0.807  0.00  0.00    +0.160 A 
ATOM      6  C   LIG    1       -8.730  -0.499  -1.011  0.00  0.00    -0.030 A 
ATOM      7  C   LIG    1       -8.730  -1.869  -1.200  0.00  0.00    +0.130 A 
ATOM      8  C   LIG    1       -7.541  -2.573  -1.186  0.00  0.00    -0.060 A 
ATOM      9  C   LIG    1       -6.344  -1.910  -0.989  0.00  0.00    +0.140 A 
ATOM     10  C   LIG    1       -6.336  -0.537  -0.794  0.00  0.00    +0.120 A 
BRANCH   8  11
ATOM     11  N   LIG    1       -7.548  -4.039  -1.389  0.00  0.00    +0.030 N 
ATOM     12  O   LIG    1       -6.501  -4.660  -1.378  0.00  0.00    -0.150 OA
ATOM     13  O   LIG    1       -8.601  -4.624  -1.568  0.00  0.00    -0.160 OA
ENDBRANCH   8  11
BRANCH   5  15
ATOM     14  C   LIG    1       -8.800   2.180  -0.648  0.00  0.00    +0.270 C 
ATOM     15  O   LIG    1       -7.533   1.519  -0.622  0.00  0.00    -0.310 OA
ENDBRANCH   5  15
ENDBRANCH   1  10
BRANCH   3  16
ATOM     16  C   LIG    1       -2.725   0.164   0.014  0.00  0.00    +0.010 C 
ATOM     17  C   LIG    1       -2.660   0.956   1.321  0.00  0.00    +0.100 C 
BRANCH  16  18
ATOM     18  S   LIG    1       -1.404  -1.074  -0.008  0.00  0.00    +0.160 S 
BRANCH  18  19
ATOM     19  C   LIG    1        0.005  -0.017  -0.029  0.00  0.00    +0.130 A 
ATOM     20  N   LIG    1       -0.009   1.296  -0.027  0.00  0.00    -0.280 NA
ATOM     21  N   LIG    1        1.199   1.738  -0.046  0.00  0.00    -0.240 NA
ATOM     22  C   LIG    1        2.034   0.724  -0.060  0.00  0.00    +0.250 A 
ATOM     23  O   LIG    1        1.294  -0.408  -0.050  0.00  0.00    -0.190 OA
BRANCH  22  24
ATOM     24  C   LIG    1        3.502   0.805  -0.083  0.00  0.00    +0.030 A 
ATOM     25  C   LIG    1        4.240   1.951  -0.093  0.00  0.00    +0.060 A 
ATOM     26  C   LIG    1        5.593   1.560  -0.115  0.00  0.00    -0.050 A 
ATOM     27  C   LIG    1        5.616   0.212  -0.117  0.00  0.00    +0.230 A 
ATOM     28  O   LIG    1        4.352  -0.241  -0.092  0.00  0.00    -0.160 OA
ENDBRANCH  22  24
ENDBRANCH  18  19
ENDBRANCH  16  18
ENDBRANCH   3  16
TORSDOF 7
