REMARK  Name = ZINCrH000004nhut.0
REMARK                            x       y       z     vdW  Elec       q    Type
REMARK                         _______ _______ _______ _____ _____    ______ ____
ROOT
ATOM      1  N   LIG    1       -1.200  -0.721   0.010  0.00  0.00    -0.460 N 
ATOM      2  C   LIG    1       -1.173  -2.065  -0.105  0.00  0.00    +0.570 A 
ATOM      3  C   LIG    1       -2.446  -2.809  -0.090  0.00  0.00    -0.160 A 
ATOM      4  C   LIG    1       -2.474  -4.197  -0.201  0.00  0.00    +0.130 A 
ATOM      5  C   LIG    1       -3.685  -4.858  -0.188  0.00  0.00    +0.020 A 
ATOM      6  C   LIG    1       -4.869  -4.148  -0.066  0.00  0.00    +0.100 A 
ATOM      7  C   LIG    1       -4.854  -2.771   0.045  0.00  0.00    +0.020 A 
ATOM      8  C   LIG    1       -3.647  -2.090   0.034  0.00  0.00    +0.170 A 
ATOM      9  N   LIG    1       -3.599  -0.706   0.143  0.00  0.00    -0.420 N 
ATOM     10  C   LIG    1       -4.564   0.256   0.273  0.00  0.00    +0.170 A 
ATOM     11  N   LIG    1       -3.946   1.411   0.332  0.00  0.00    -0.250 NA
ATOM     12  N   LIG    1       -2.676   1.237   0.248  0.00  0.00    -0.270 NA
ATOM     13  O   LIG    1       -0.115  -2.655  -0.216  0.00  0.00    -0.470 OA
ATOM     14  C   LIG    1       -2.401  -0.040   0.131  0.00  0.00    +0.420 A 
ENDROOT
BRANCH   1  19
ATOM     15  C   LIG    1        1.722   1.161  -1.201  0.00  0.00    +0.140 A 
ATOM     16  C   LIG    1        2.382   1.414  -0.007  0.00  0.00    -0.050 A 
ATOM     17  C   LIG    1        1.853   0.960   1.187  0.00  0.00    +0.070 A 
ATOM     18  C   LIG    1        0.667   0.253   1.195  0.00  0.00    +0.000 A 
ATOM     19  C   LIG    1        0.002  -0.004   0.002  0.00  0.00    +0.160 A 
ATOM     20  C   LIG    1        0.531   0.451  -1.197  0.00  0.00    +0.010 A 
BRANCH  15  22
ATOM     21  C   LIG    1        3.473   2.333  -2.303  0.00  0.00    +0.250 C 
ATOM     22  O   LIG    1        2.243   1.609  -2.374  0.00  0.00    -0.310 OA
ENDBRANCH  15  22
ENDBRANCH   1  19
BRANCH  10  23
ATOM     23  S   LIG    1       -6.305  -0.008   0.346  0.00  0.00    +0.010 S 
BRANCH  23  24
ATOM     24  C   LIG    1       -6.965   1.673   0.517  0.00  0.00    +0.100 C 
BRANCH  24  25
ATOM     25  C   LIG    1       -8.492   1.615   0.595  0.00  0.00    +0.000 C 
ATOM     26  C   LIG    1       -9.056   3.037   0.614  0.00  0.00    +0.040 C 
ATOM     27  C   LIG    1       -8.910   0.884   1.872  0.00  0.00    +0.020 C 
ENDBRANCH  24  25
ENDBRANCH  23  24
ENDBRANCH  10  23
TORSDOF 5
