REMARK  Name = ZINCpk000000o6tE.0
REMARK                            x       y       z     vdW  Elec       q    Type
REMARK                         _______ _______ _______ _____ _____    ______ ____
ROOT
ATOM      1  C   LIG    1        3.308   1.378  -1.434  0.00  0.00    +0.420 A 
ATOM      2  N   LIG    1        3.670   1.183  -2.678  0.00  0.00    -0.340 NA
ATOM      3  N   LIG    1        2.655   0.457  -3.316  0.00  0.00    -0.300 NA
ATOM      4  C   LIG    1        1.709   0.228  -2.438  0.00  0.00    +0.190 A 
ATOM      5  N   LIG    1        2.086   0.796  -1.253  0.00  0.00    -0.460 N 
ENDROOT
BRANCH   1  10
ATOM      6  C   LIG    1        6.182   4.894   1.906  0.00  0.00    +0.030 C 
ATOM      7  C   LIG    1        5.371   4.314   0.745  0.00  0.00    -0.030 C 
ATOM      8  C   LIG    1        6.150   3.163   0.102  0.00  0.00    +0.050 C 
ATOM      9  C   LIG    1        5.309   2.550  -1.020  0.00  0.00    +0.220 C 
ATOM     10  N   LIG    1        4.040   2.058  -0.469  0.00  0.00    -0.450 N 
ATOM     11  C   LIG    1        3.253   3.154   0.112  0.00  0.00    +0.190 C 
ATOM     12  C   LIG    1        4.033   3.785   1.268  0.00  0.00    +0.050 C 
ENDBRANCH   1  10
BRANCH   5  13
ATOM     13  C   LIG    1        1.317   0.779  -0.006  0.00  0.00    +0.190 C 
ATOM     14  C   LIG    1       -0.145   1.227  -0.072  0.00  0.00    +0.050 C 
ATOM     15  C   LIG    1        0.194  -0.253   0.117  0.00  0.00    +0.070 C 
ENDBRANCH   5  13
BRANCH   4  16
ATOM     16  S   LIG    1        0.212  -0.654  -2.734  0.00  0.00    +0.080 S 
BRANCH  16  17
ATOM     17  C   LIG    1        0.354  -1.123  -4.480  0.00  0.00    +0.130 C 
BRANCH  17  18
ATOM     18  C   LIG    1       -0.871  -1.898  -4.893  0.00  0.00    +0.570 C 
ATOM     19  N   LIG    1       -0.987  -2.353  -6.156  0.00  0.00    -0.580 N 
ATOM     20  C   LIG    1       -2.123  -3.123  -6.684  0.00  0.00    +0.280 C 
ATOM     21  C   LIG    1       -1.746  -3.376  -8.156  0.00  0.00    +0.280 C 
ATOM     22  N   LIG    1       -0.433  -2.729  -8.300  0.00  0.00    -0.730 N 
ATOM     23  H   LIG    1        0.096  -2.704  -9.113  0.00  0.00    +0.440 HD
ATOM     24  C   LIG    1       -0.083  -2.180  -7.129  0.00  0.00    +0.700 C 
ATOM     25  O   LIG    1        0.961  -1.579  -6.965  0.00  0.00    -0.540 OA
ATOM     26  O   LIG    1       -1.753  -2.112  -4.088  0.00  0.00    -0.480 OA
ENDBRANCH  17  18
ENDBRANCH  16  17
ENDBRANCH   4  16
TORSDOF 5
