REMARK  Name = ZINCpk000000omcL.0
REMARK                            x       y       z     vdW  Elec       q    Type
REMARK                         _______ _______ _______ _____ _____    ______ ____
ROOT
ATOM      1  N   LIG    1        1.304  -0.351  -0.012  0.00  0.00    -0.560 N 
ATOM      2  C   LIG    1        2.101   0.724  -0.014  0.00  0.00    +0.710 C 
ATOM      3  N   LIG    1        1.409   1.877  -0.001  0.00  0.00    -0.710 N 
ATOM      4  H   LIG    1        1.777   2.775  -0.000  0.00  0.00    +0.440 HD
ATOM      5  C   LIG    1       -0.018   1.512   0.010  0.00  0.00    +0.170 C 
ATOM      6  C   LIG    1       -0.722   2.047  -1.238  0.00  0.00    +0.110 C 
ATOM      7  O   LIG    1        3.315   0.665  -0.026  0.00  0.00    -0.530 OA
ATOM      8  C   LIG    1        0.002  -0.004   0.002  0.00  0.00    +0.540 C 
ATOM      9  O   LIG    1       -0.954  -0.749   0.008  0.00  0.00    -0.450 OA
ENDROOT
BRANCH   5  10
ATOM     10  C   LIG    1       -0.687   2.026   1.259  0.00  0.00    -0.090 A 
ATOM     11  C   LIG    1       -1.685   1.284   1.864  0.00  0.00    +0.060 A 
ATOM     12  C   LIG    1       -2.295   1.754   3.013  0.00  0.00    +0.030 A 
ATOM     13  C   LIG    1       -1.916   2.969   3.550  0.00  0.00    +0.060 A 
ATOM     14  C   LIG    1       -0.922   3.714   2.941  0.00  0.00    -0.090 A 
ATOM     15 BR   LIG    1       -0.402   5.377   3.676  0.00  0.00    -0.040 Br
ATOM     16  C   LIG    1       -0.308   3.242   1.796  0.00  0.00    +0.060 A 
ENDBRANCH   5  10
BRANCH   1  17
ATOM     17  C   LIG    1        1.788  -1.734  -0.025  0.00  0.00    +0.380 C 
BRANCH  17  23
ATOM     18  N   LIG    1        2.946  -5.114  -3.240  0.00  0.00    -0.740 N 
ATOM     19  H   LIG    1        3.161  -5.714  -2.509  0.00  0.00    +0.400 HD
ATOM     20  C   LIG    1        2.511  -3.865  -2.983  0.00  0.00    +0.690 C 
ATOM     21  N   LIG    1        2.375  -3.449  -1.708  0.00  0.00    -0.690 N 
ATOM     22  H   LIG    1        2.590  -4.048  -0.976  0.00  0.00    +0.410 HD
ATOM     23  C   LIG    1        1.940  -2.199  -1.450  0.00  0.00    +0.510 C 
ATOM     24  O   LIG    1        1.672  -1.450  -2.365  0.00  0.00    -0.450 OA
ATOM     25  O   LIG    1        2.242  -3.114  -3.899  0.00  0.00    -0.530 OA
BRANCH  18  26
ATOM     26  C   LIG    1        3.095  -5.567  -4.626  0.00  0.00    +0.270 C 
BRANCH  26  28
ATOM     27  C   LIG    1        3.754  -7.484  -6.086  0.00  0.00    +0.030 C 
ATOM     28  C   LIG    1        3.599  -7.011  -4.639  0.00  0.00    +0.000 C 
ENDBRANCH  26  28
ENDBRANCH  18  26
ENDBRANCH  17  23
ENDBRANCH   1  17
TORSDOF 5
