REMARK  Name = ZINCrD000000CO5W.0
REMARK                            x       y       z     vdW  Elec       q    Type
REMARK                         _______ _______ _______ _____ _____    ______ ____
ROOT
ATOM      1  S   LIG    1        2.141   4.882  -2.596  0.00  0.00    +2.700 S 
ATOM      2  O   LIG    1        1.756   6.202  -2.956  0.00  0.00    -0.940 OA
ATOM      3  O   LIG    1        1.357   3.736  -2.897  0.00  0.00    -0.930 OA
ENDROOT
BRANCH   1  10
ATOM      4  O   LIG    1        8.704   2.857  -6.507  0.00  0.00    -0.510 OA
ATOM      5  C   LIG    1        7.607   3.047  -6.025  0.00  0.00    +0.520 C 
ATOM      6  C   LIG    1        6.427   2.261  -6.530  0.00  0.00    +0.090 C 
ATOM      7  C   LIG    1        5.467   1.965  -5.378  0.00  0.00    +0.110 C 
ATOM      8  C   LIG    1        5.202   3.230  -4.605  0.00  0.00    -0.150 A 
ATOM      9  C   LIG    1        3.964   3.447  -4.034  0.00  0.00    +0.200 A 
ATOM     10  C   LIG    1        3.722   4.609  -3.324  0.00  0.00    -0.740 A 
ATOM     11  C   LIG    1        4.719   5.561  -3.189  0.00  0.00    +0.230 A 
ATOM     12  C   LIG    1        5.963   5.346  -3.755  0.00  0.00    -0.060 A 
ATOM     13  F   LIG    1        4.479   6.697  -2.500  0.00  0.00    -0.110 F 
ATOM     14  C   LIG    1        6.206   4.180  -4.468  0.00  0.00    +0.250 A 
ATOM     15  N   LIG    1        7.460   3.958  -5.047  0.00  0.00    -0.660 N 
ATOM     16  H   LIG    1        8.228   4.465  -4.741  0.00  0.00    +0.420 HD
ENDBRANCH   1  10
BRANCH   1  17
ATOM     17  N   LIG    1        2.352   4.888  -0.954  0.00  0.00    -1.000 NA
ATOM     18  C   LIG    1        2.535   6.087  -0.110  0.00  0.00    +0.270 C 
ATOM     19  C   LIG    1        3.284   5.577   1.146  0.00  0.00    +0.040 C 
ATOM     20  C   LIG    1        2.633   4.184   1.354  0.00  0.00    +0.050 C 
ATOM     21  C   LIG    1        2.387   3.699  -0.091  0.00  0.00    +0.280 C 
BRANCH  21  22
ATOM     22  C   LIG    1        1.071   2.969  -0.169  0.00  0.00    -0.070 A 
ATOM     23  C   LIG    1        1.051   1.592  -0.288  0.00  0.00    +0.020 A 
ATOM     24  C   LIG    1       -0.156   0.920  -0.359  0.00  0.00    +0.040 A 
ATOM     25  C   LIG    1       -1.343   1.626  -0.318  0.00  0.00    -0.010 A 
ATOM     26  C   LIG    1       -1.324   3.005  -0.194  0.00  0.00    +0.100 A 
ATOM     27  F   LIG    1       -2.484   3.696  -0.148  0.00  0.00    -0.140 F 
ATOM     28  C   LIG    1       -0.115   3.676  -0.122  0.00  0.00    -0.010 A 
ENDBRANCH  21  22
ENDBRANCH   1  17
TORSDOF 3
