REMARK  Name = ZINCrH000004pDHq.0
REMARK                            x       y       z     vdW  Elec       q    Type
REMARK                         _______ _______ _______ _____ _____    ______ ____
ROOT
ATOM      1  C   LIG    1       -9.024   1.437   2.417  0.00  0.00    +0.060 C 
ATOM      2  C   LIG    1       -7.729   2.175   2.759  0.00  0.00    +0.290 C 
ATOM      3  C   LIG    1       -7.628   2.328   4.237  0.00  0.00    +0.520 C 
ATOM      4  N   LIG    1       -7.136   1.461   5.075  0.00  0.00    -0.650 N 
ATOM      5  H   LIG    1       -7.439   1.628   5.981  0.00  0.00    +0.400 HD
ATOM      6  C   LIG    1       -6.301   0.371   5.013  0.00  0.00    +0.190 A 
ATOM      7  C   LIG    1       -5.787  -0.055   6.250  0.00  0.00    -0.030 A 
ATOM      8  C   LIG    1       -4.933  -1.128   6.340  0.00  0.00    +0.050 A 
ATOM      9  C   LIG    1       -4.566  -1.808   5.194  0.00  0.00    -0.010 A 
ATOM     10  C   LIG    1       -5.064  -1.401   3.977  0.00  0.00    +0.050 A 
ATOM     11  C   LIG    1       -5.932  -0.316   3.875  0.00  0.00    -0.150 A 
ATOM     12  C   LIG    1       -6.402   0.018   2.493  0.00  0.00    +0.330 C 
ATOM     13  O   LIG    1       -8.044   3.365   4.708  0.00  0.00    -0.520 OA
ATOM     14  N   LIG    1       -6.597   1.422   2.247  0.00  0.00    -0.620 N 
ATOM     15  C   LIG    1       -5.677   2.074   1.508  0.00  0.00    +0.710 C 
ATOM     16  N   LIG    1       -4.662   1.393   0.942  0.00  0.00    -0.740 N 
ATOM     17  H   LIG    1       -4.548   0.448   1.128  0.00  0.00    +0.400 HD
ATOM     18  O   LIG    1       -5.765   3.277   1.353  0.00  0.00    -0.570 OA
ENDROOT
BRANCH  16  19
ATOM     19  C   LIG    1       -3.729   2.081   0.045  0.00  0.00    +0.300 C 
ATOM     20  C   LIG    1       -4.308   2.106  -1.371  0.00  0.00    +0.040 C 
BRANCH  19  21
ATOM     21  C   LIG    1       -2.410   1.351   0.036  0.00  0.00    -0.090 A 
ATOM     22  C   LIG    1       -2.385  -0.031   0.039  0.00  0.00    +0.010 A 
ATOM     23  C   LIG    1       -1.175  -0.698   0.030  0.00  0.00    +0.020 A 
ATOM     24  C   LIG    1        0.013   0.013   0.018  0.00  0.00    -0.090 A 
ATOM     25  C   LIG    1        1.446  -0.472   0.006  0.00  0.00    +0.080 C 
ATOM     26  C   LIG    1        2.289   0.748   0.436  0.00  0.00    +0.030 C 
ATOM     27  C   LIG    1        1.402   1.933   0.002  0.00  0.00    +0.070 C 
ATOM     28  C   LIG    1       -0.013   1.396   0.016  0.00  0.00    -0.090 A 
ATOM     29  C   LIG    1       -1.226   2.062   0.021  0.00  0.00    +0.030 A 
ENDBRANCH  19  21
ENDBRANCH  16  19
TORSDOF 2
