REMARK  Name = ZINCpk000000nL4V.0
REMARK                            x       y       z     vdW  Elec       q    Type
REMARK                         _______ _______ _______ _____ _____    ______ ____
ROOT
ATOM      1  C   LIG    1       -7.820   2.726  -0.531  0.00  0.00    +0.470 A 
ATOM      2  C   LIG    1       -6.502   2.296  -0.424  0.00  0.00    -0.230 A 
ATOM      3  C   LIG    1       -6.223   0.955  -0.673  0.00  0.00    +0.460 A 
ATOM      4  N   LIG    1       -7.221   0.139  -1.007  0.00  0.00    -0.610 NA
ATOM      5  C   LIG    1       -8.459   0.584  -1.093  0.00  0.00    +0.570 A 
ATOM      6  N   LIG    1       -8.762   1.845  -0.866  0.00  0.00    -0.610 NA
ENDROOT
BRANCH   1   7
ATOM      7  N   LIG    1       -8.149   4.051  -0.293  0.00  0.00    -0.700 N 
ATOM      8  H   LIG    1       -9.071   4.344  -0.370  0.00  0.00    +0.410 HD
BRANCH   7  14
ATOM      9  C   LIG    1       -7.736   6.202   0.800  0.00  0.00    +0.160 C 
ATOM     10  O   LIG    1       -8.643   6.867  -0.080  0.00  0.00    -0.370 OA
ATOM     11  C   LIG    1       -8.031   7.396  -1.258  0.00  0.00    +0.210 C 
ATOM     12  C   LIG    1       -7.412   6.253  -2.067  0.00  0.00    -0.010 C 
ATOM     13  C   LIG    1       -6.399   5.509  -1.191  0.00  0.00    +0.010 C 
ATOM     14  C   LIG    1       -7.104   5.011   0.074  0.00  0.00    +0.220 C 
BRANCH   9  16
ATOM     15  C   LIG    1       -7.500   5.119   3.039  0.00  0.00    +0.030 C 
ATOM     16  C   LIG    1       -8.493   5.705   2.033  0.00  0.00    -0.010 C 
ATOM     17  C   LIG    1       -9.243   6.873   2.676  0.00  0.00    +0.020 C 
ENDBRANCH   9  16
ENDBRANCH   7  14
ENDBRANCH   1   7
BRANCH   3  18
ATOM     18  N   LIG    1       -4.926   0.477  -0.579  0.00  0.00    -0.720 N 
ATOM     19  H   LIG    1       -4.740  -0.459  -0.754  0.00  0.00    +0.410 HD
BRANCH  18  20
ATOM     20  C   LIG    1       -3.835   1.385  -0.216  0.00  0.00    +0.270 C 
BRANCH  20  21
ATOM     21  C   LIG    1       -2.516   0.610  -0.184  0.00  0.00    +0.020 C 
BRANCH  21  22
ATOM     22  C   LIG    1       -1.377   1.559   0.195  0.00  0.00    +0.280 C 
BRANCH  22  23
ATOM     23  N   LIG    1       -0.114   0.817   0.226  0.00  0.00    -1.120 NA
ATOM     24  H   LIG    1       -0.121  -0.153   0.239  0.00  0.00    +0.420 HD
BRANCH  23  25
ATOM     25  S   LIG    1        1.327   1.634   0.232  0.00  0.00    +2.620 S 
ATOM     26  O   LIG    1        1.217   2.545  -0.854  0.00  0.00    -0.950 OA
ATOM     27  O   LIG    1        2.311   0.609   0.231  0.00  0.00    -0.960 OA
ATOM     28  C   LIG    1        1.336   2.525   1.812  0.00  0.00    -0.280 C 
ENDBRANCH  23  25
ENDBRANCH  22  23
ENDBRANCH  21  22
ENDBRANCH  20  21
ENDBRANCH  18  20
ENDBRANCH   3  18
TORSDOF 9
