REMARK  Name = ZINCqH0000000kmz.0
REMARK                            x       y       z     vdW  Elec       q    Type
REMARK                         _______ _______ _______ _____ _____    ______ ____
ROOT
ATOM      1  C   LIG    1        0.069   7.535  -0.249  0.00  0.00    +0.000 C 
ATOM      2  C   LIG    1        1.218   8.033   0.629  0.00  0.00    +0.090 C 
ENDROOT
BRANCH   1   3
ATOM      3  C   LIG    1        0.189   6.045  -0.436  0.00  0.00    +0.420 C 
ATOM      4  O   LIG    1        0.747   5.599  -1.416  0.00  0.00    -0.440 OA
BRANCH   3   5
ATOM      5  C   LIG    1       -0.371   5.131   0.570  0.00  0.00    -0.170 A 
ATOM      6  C   LIG    1       -1.015   5.643   1.702  0.00  0.00    +0.080 A 
ATOM      7  C   LIG    1       -1.539   4.785   2.643  0.00  0.00    -0.040 A 
ATOM      8  C   LIG    1       -1.429   3.411   2.472  0.00  0.00    +0.140 A 
ATOM      9  C   LIG    1       -0.787   2.893   1.346  0.00  0.00    +0.090 A 
ATOM     10  C   LIG    1       -0.256   3.746   0.401  0.00  0.00    +0.040 A 
BRANCH   9  11
ATOM     11  O   LIG    1       -0.682   1.547   1.184  0.00  0.00    -0.300 OA
ATOM     12  C   LIG    1       -0.013   1.086   0.008  0.00  0.00    +0.240 C 
ENDBRANCH   9  11
BRANCH   8  13
ATOM     13  O   LIG    1       -1.946   2.570   3.403  0.00  0.00    -0.300 OA
ATOM     14  C   LIG    1       -2.589   3.167   4.531  0.00  0.00    +0.250 C 
ENDBRANCH   8  13
ENDBRANCH   3   5
ENDBRANCH   1   3
BRANCH   1  15
ATOM     15  S   LIG    1        0.144   8.353  -1.862  0.00  0.00    +0.050 S 
BRANCH  15  17
ATOM     16  N   LIG    1       -0.221  11.107  -2.197  0.00  0.00    -0.450 N 
ATOM     17  C   LIG    1       -0.165  10.018  -1.375  0.00  0.00    +0.150 A 
ATOM     18  N   LIG    1       -0.378  10.447  -0.153  0.00  0.00    -0.290 NA
ATOM     19  N   LIG    1       -0.567  11.719  -0.164  0.00  0.00    -0.280 NA
ATOM     20  C   LIG    1       -0.487  12.173  -1.382  0.00  0.00    +0.220 A 
BRANCH  20  21
ATOM     21  C   LIG    1       -0.649  13.608  -1.813  0.00  0.00    +0.030 C 
ATOM     22  C   LIG    1       -0.731  14.670  -0.715  0.00  0.00    +0.070 C 
ATOM     23  C   LIG    1       -1.984  14.290  -1.509  0.00  0.00    +0.060 C 
ENDBRANCH  20  21
BRANCH  16  24
ATOM     24  C   LIG    1       -0.039  11.129  -3.651  0.00  0.00    +0.340 C 
BRANCH  24  26
ATOM     25  C   LIG    1       -1.797  11.803  -5.205  0.00  0.00    +0.060 C 
ATOM     26  C   LIG    1       -1.371  10.930  -4.327  0.00  0.00    -0.070 C 
ENDBRANCH  24  26
ENDBRANCH  16  24
ENDBRANCH  15  17
ENDBRANCH   1  15
TORSDOF 9
