REMARK  Name = ZINCqH0000003Fk8.0
REMARK                            x       y       z     vdW  Elec       q    Type
REMARK                         _______ _______ _______ _____ _____    ______ ____
ROOT
ATOM      1  C   LIG    1        1.408  -2.101  -0.116  0.00  0.00    +0.570 C 
ATOM      2  N   LIG    1        2.558  -2.792   0.016  0.00  0.00    -0.580 N 
ATOM      3  C   LIG    1        3.833  -2.079   0.125  0.00  0.00    +0.310 C 
ATOM      4  O   LIG    1        1.437  -0.893  -0.244  0.00  0.00    -0.520 OA
ENDROOT
BRANCH   1   7
ATOM      5  C   LIG    1       -2.289  -2.820  -0.126  0.00  0.00    +0.320 A 
ATOM      6  C   LIG    1       -1.095  -2.111  -0.138  0.00  0.00    +0.020 A 
ATOM      7  C   LIG    1        0.110  -2.815  -0.106  0.00  0.00    -0.050 A 
ATOM      8  C   LIG    1        0.058  -4.212  -0.064  0.00  0.00    -0.050 A 
ATOM      9  C   LIG    1       -1.171  -4.840  -0.055  0.00  0.00    +0.300 A 
ATOM     10  N   LIG    1       -2.290  -4.141  -0.086  0.00  0.00    -0.520 NA
BRANCH   5  11
ATOM     11  O   LIG    1       -3.468  -2.149  -0.151  0.00  0.00    -0.300 OA
BRANCH  11  13
ATOM     12  C   LIG    1       -5.881  -2.011  -0.169  0.00  0.00    +0.060 C 
ATOM     13  C   LIG    1       -4.662  -2.935  -0.137  0.00  0.00    +0.210 C 
ENDBRANCH  11  13
ENDBRANCH   5  11
ENDBRANCH   1   7
BRANCH   2  14
ATOM     14  C   LIG    1        2.532  -4.256   0.052  0.00  0.00    +0.340 C 
BRANCH  14  15
ATOM     15  C   LIG    1        1.899  -4.717   1.339  0.00  0.00    +0.120 A 
ATOM     16  C   LIG    1        1.382  -5.996   1.427  0.00  0.00    -0.030 A 
ATOM     17  C   LIG    1        0.805  -6.411   2.617  0.00  0.00    +0.070 A 
ATOM     18  C   LIG    1        0.761  -5.518   3.676  0.00  0.00    -0.030 A 
ATOM     19  C   LIG    1        1.294  -4.253   3.513  0.00  0.00    +0.270 A 
ATOM     20  N   LIG    1        1.839  -3.893   2.367  0.00  0.00    -0.470 NA
ENDBRANCH  14  15
BRANCH  14  21
ATOM     21  C   LIG    1        3.941  -4.785  -0.033  0.00  0.00    -0.110 A 
ATOM     22  C   LIG    1        4.939  -4.218   0.738  0.00  0.00    +0.040 A 
ATOM     23  C   LIG    1        6.231  -4.706   0.663  0.00  0.00    +0.000 A 
ATOM     24  C   LIG    1        6.525  -5.755  -0.187  0.00  0.00    +0.020 A 
ATOM     25  C   LIG    1        5.528  -6.319  -0.961  0.00  0.00    +0.010 A 
ATOM     26  C   LIG    1        4.236  -5.834  -0.884  0.00  0.00    +0.030 A 
ENDBRANCH  14  21
ENDBRANCH   2  14
TORSDOF 6
