REMARK  Name = ZINCqH00000h45OX.0
REMARK                            x       y       z     vdW  Elec       q    Type
REMARK                         _______ _______ _______ _____ _____    ______ ____
ROOT
ATOM      1  O   LIG    1       -3.008   2.676  -2.621  0.00  0.00    -0.520 OA
ATOM      2  C   LIG    1       -3.190   2.407  -1.449  0.00  0.00    +0.720 C 
ATOM      3  N   LIG    1       -2.183   1.902  -0.710  0.00  0.00    -0.620 N 
ATOM      4  C   LIG    1       -2.264   1.534   0.716  0.00  0.00    +0.250 C 
ATOM      5  C   LIG    1       -0.802   1.617   1.234  0.00  0.00    +0.050 C 
ATOM      6  C   LIG    1       -0.013   1.086   0.008  0.00  0.00    +0.060 C 
ATOM      7  C   LIG    1       -0.821   1.627  -1.190  0.00  0.00    +0.340 C 
ATOM      8  N   LIG    1       -4.399   2.614  -0.890  0.00  0.00    -0.640 N 
ATOM      9  H   LIG    1       -4.544   2.400   0.044  0.00  0.00    +0.420 HD
ENDROOT
BRANCH   7  10
ATOM     10  C   LIG    1       -0.859   0.598  -2.290  0.00  0.00    +0.130 A 
ATOM     11  N   LIG    1       -1.578  -0.495  -2.301  0.00  0.00    -0.230 NA
ATOM     12  N   LIG    1       -1.377  -1.150  -3.390  0.00  0.00    -0.290 NA
ATOM     13  C   LIG    1       -0.500  -0.502  -4.139  0.00  0.00    +0.200 A 
ATOM     14  C   LIG    1        0.075  -0.759  -5.399  0.00  0.00    +0.080 A 
ATOM     15  C   LIG    1        0.971   0.126  -5.912  0.00  0.00    +0.060 A 
ATOM     16  C   LIG    1        1.310   1.278  -5.183  0.00  0.00    +0.030 A 
ATOM     17  C   LIG    1        0.751   1.511  -3.977  0.00  0.00    +0.240 A 
ATOM     18  N   LIG    1       -0.149   0.632  -3.450  0.00  0.00    -0.380 N 
ENDBRANCH   7  10
BRANCH   8  19
ATOM     19  C   LIG    1       -5.433   3.133  -1.651  0.00  0.00    +0.360 A 
ATOM     20  N   LIG    1       -5.342   3.455  -2.894  0.00  0.00    -0.470 NA
ATOM     21  C   LIG    1       -6.441   3.946  -3.501  0.00  0.00    +0.110 A 
ATOM     22  C   LIG    1       -6.598   4.364  -4.839  0.00  0.00    +0.070 A 
ATOM     23  C   LIG    1       -7.805   4.847  -5.279  0.00  0.00    +0.040 A 
ATOM     24  C   LIG    1       -8.888   4.933  -4.417  0.00  0.00    +0.030 A 
ATOM     25  C   LIG    1       -8.758   4.530  -3.106  0.00  0.00    +0.060 A 
ATOM     26  C   LIG    1       -7.541   4.038  -2.642  0.00  0.00    -0.180 A 
ATOM     27  S   LIG    1       -7.056   3.453  -1.053  0.00  0.00    +0.060 S 
ENDBRANCH   8  19
TORSDOF 2
