REMARK  Name = ZINCvU00000004by.0
REMARK                            x       y       z     vdW  Elec       q    Type
REMARK                         _______ _______ _______ _____ _____    ______ ____
ROOT
ATOM      1  C   LIG    1       -3.744   3.157   0.050  0.00  0.00    +0.520 C 
ATOM      2  O   LIG    1       -4.271   2.860   1.103  0.00  0.00    -0.480 OA
ENDROOT
BRANCH   1  15
ATOM      3  C   LIG    1       -4.740   8.262   0.296  0.00  0.00    +0.030 C 
ATOM      4  C   LIG    1       -3.458   7.454   0.509  0.00  0.00    -0.010 C 
ATOM      5  C   LIG    1       -2.327   8.045  -0.340  0.00  0.00    +0.030 C 
ATOM      6  C   LIG    1       -1.014   7.387   0.076  0.00  0.00    +0.110 C 
ATOM      7  C   LIG    1       -1.144   5.883   0.054  0.00  0.00    +0.170 A 
ATOM      8  N   LIG    1       -0.025   5.185   0.035  0.00  0.00    -0.460 NA
ATOM      9  C   LIG    1       -0.007   3.854   0.024  0.00  0.00    +0.140 A 
ATOM     10  C   LIG    1        1.206   3.141   0.008  0.00  0.00    +0.060 A 
ATOM     11  C   LIG    1        1.189   1.780   0.000  0.00  0.00    +0.040 A 
ATOM     12  C   LIG    1       -0.013   1.076   0.008  0.00  0.00    +0.030 A 
ATOM     13  C   LIG    1       -1.207   1.733   0.017  0.00  0.00    +0.010 A 
ATOM     14  C   LIG    1       -1.227   3.133   0.031  0.00  0.00    -0.070 A 
ATOM     15  C   LIG    1       -2.442   3.858   0.046  0.00  0.00    -0.060 A 
ATOM     16  C   LIG    1       -2.381   5.251   0.059  0.00  0.00    -0.070 A 
ATOM     17  C   LIG    1       -3.682   6.008   0.071  0.00  0.00    +0.080 C 
ENDBRANCH   1  15
BRANCH   1  18
ATOM     18  O   LIG    1       -4.345   2.848  -1.115  0.00  0.00    -0.330 OA
BRANCH  18  19
ATOM     19  C   LIG    1       -5.621   2.160  -1.036  0.00  0.00    +0.240 C 
BRANCH  19  20
ATOM     20  C   LIG    1       -6.138   1.899  -2.427  0.00  0.00    +0.400 C 
ATOM     21  O   LIG    1       -5.495   2.258  -3.391  0.00  0.00    -0.420 OA
BRANCH  20  22
ATOM     22  C   LIG    1       -7.422   1.210  -2.616  0.00  0.00    -0.200 A 
ATOM     23  C   LIG    1       -8.164   0.790  -1.506  0.00  0.00    +0.110 A 
ATOM     24  C   LIG    1       -9.364   0.152  -1.688  0.00  0.00    -0.060 A 
ATOM     25  C   LIG    1       -9.839  -0.088  -2.973  0.00  0.00    +0.140 A 
ATOM     26  C   LIG    1       -9.103   0.323  -4.079  0.00  0.00    +0.000 A 
ATOM     27  C   LIG    1       -7.905   0.967  -3.908  0.00  0.00    +0.130 A 
BRANCH  25  28
ATOM     28  O   LIG    1      -11.024  -0.725  -3.147  0.00  0.00    -0.320 OA
BRANCH  28  29
ATOM     29  C   LIG    1      -11.728  -1.120  -1.968  0.00  0.00    +0.600 C 
ATOM     30  F   LIG    1      -12.019   0.011  -1.198  0.00  0.00    -0.190 F 
ATOM     31  F   LIG    1      -10.935  -1.999  -1.224  0.00  0.00    -0.200 F 
ENDBRANCH  28  29
ENDBRANCH  25  28
ENDBRANCH  20  22
ENDBRANCH  19  20
ENDBRANCH  18  19
ENDBRANCH   1  18
TORSDOF 7
