REMARK  Name = ZINCvU0000000IK9.0
REMARK                            x       y       z     vdW  Elec       q    Type
REMARK                         _______ _______ _______ _____ _____    ______ ____
ROOT
ATOM      1  C   LIG    1       -2.500   4.447  -0.400  0.00  0.00    +0.120 C 
ENDROOT
BRANCH   1   3
ATOM      2  N   LIG    1       -1.134   2.417  -0.041  0.00  0.00    -0.470 N 
ATOM      3  C   LIG    1       -1.179   3.757  -0.176  0.00  0.00    +0.540 C 
ATOM      4  O   LIG    1       -0.158   4.408  -0.118  0.00  0.00    -0.450 OA
BRANCH   2   9
ATOM      5  C   LIG    1        3.653   2.191   0.789  0.00  0.00    +0.160 C 
ATOM      6  C   LIG    1        2.259   1.635   0.658  0.00  0.00    +0.090 A 
ATOM      7  C   LIG    1        1.978   0.343   0.837  0.00  0.00    -0.100 A 
ATOM      8  S   LIG    1        0.248   0.120   0.591  0.00  0.00    +0.150 S 
ATOM      9  C   LIG    1        0.069   1.790   0.271  0.00  0.00    +0.270 A 
ATOM     10  N   LIG    1        1.216   2.386   0.356  0.00  0.00    -0.470 NA
ENDBRANCH   2   9
BRANCH   2  11
ATOM     11  C   LIG    1       -2.296   1.656  -0.214  0.00  0.00    +0.090 A 
ATOM     12  C   LIG    1       -3.317   1.720   0.726  0.00  0.00    +0.030 A 
ATOM     13  C   LIG    1       -4.464   0.972   0.550  0.00  0.00    +0.040 A 
ATOM     14  C   LIG    1       -4.593   0.150  -0.556  0.00  0.00    +0.030 A 
ATOM     15  C   LIG    1       -3.576   0.080  -1.490  0.00  0.00    +0.040 A 
ATOM     16  C   LIG    1       -2.429   0.830  -1.323  0.00  0.00    +0.030 A 
ENDBRANCH   2  11
ENDBRANCH   1   3
BRANCH   1  17
ATOM     17  S   LIG    1       -2.239   6.236  -0.490  0.00  0.00    +0.090 S 
BRANCH  17  18
ATOM     18  C   LIG    1       -3.897   6.775  -0.748  0.00  0.00    +0.140 A 
ATOM     19  N   LIG    1       -4.960   6.011  -0.842  0.00  0.00    -0.290 NA
ATOM     20  N   LIG    1       -6.005   6.737  -1.025  0.00  0.00    -0.280 NA
ATOM     21  C   LIG    1       -5.675   7.997  -1.070  0.00  0.00    +0.230 A 
ATOM     22  N   LIG    1       -4.318   8.068  -0.894  0.00  0.00    -0.410 N 
BRANCH  22  23
ATOM     23  C   LIG    1       -3.527   9.226  -0.871  0.00  0.00    +0.100 A 
ATOM     24  C   LIG    1       -3.695  10.163   0.139  0.00  0.00    +0.030 A 
ATOM     25  C   LIG    1       -2.910  11.300   0.162  0.00  0.00    +0.040 A 
ATOM     26  C   LIG    1       -1.966  11.510  -0.826  0.00  0.00    +0.030 A 
ATOM     27  C   LIG    1       -1.800  10.580  -1.836  0.00  0.00    +0.040 A 
ATOM     28  C   LIG    1       -2.578   9.439  -1.861  0.00  0.00    +0.030 A 
ENDBRANCH  22  23
BRANCH  21  29
ATOM     29  C   LIG    1       -6.612   9.159  -1.275  0.00  0.00    +0.040 C 
ATOM     30  C   LIG    1       -8.114   8.869  -1.248  0.00  0.00    +0.080 C 
ATOM     31  C   LIG    1       -7.421   9.194  -2.573  0.00  0.00    +0.060 C 
ENDBRANCH  21  29
ENDBRANCH  17  18
ENDBRANCH   1  17
TORSDOF 7
