REMARK  Name = ZINCpe000000XjoC.1
REMARK                            x       y       z     vdW  Elec       q    Type
REMARK                         _______ _______ _______ _____ _____    ______ ____
ROOT
ATOM      1  N   LIG    1       -2.539   5.713  -3.563  0.00  0.00    -0.720 N 
ATOM      2  H   LIG    1       -2.947   5.079  -4.174  0.00  0.00    +0.400 HD
ATOM      3  C   LIG    1       -1.815   5.269  -2.517  0.00  0.00    +0.570 C 
ATOM      4  O   LIG    1       -1.304   6.062  -1.751  0.00  0.00    -0.520 OA
ENDROOT
BRANCH   3   5
ATOM      5  C   LIG    1       -1.641   3.813  -2.300  0.00  0.00    -0.070 A 
ATOM      6  C   LIG    1       -2.221   2.883  -3.170  0.00  0.00    -0.030 A 
ATOM      7  C   LIG    1       -2.037   1.536  -2.935  0.00  0.00    +0.300 A 
ATOM      8  N   LIG    1       -1.325   1.117  -1.907  0.00  0.00    -0.500 NA
ATOM      9  C   LIG    1       -0.758   1.960  -1.058  0.00  0.00    +0.320 A 
ATOM     10  C   LIG    1       -0.900   3.334  -1.220  0.00  0.00    +0.020 A 
BRANCH   9  11
ATOM     11  N   LIG    1       -0.018   1.465   0.010  0.00  0.00    -0.480 N 
ATOM     12  C   LIG    1        1.348   2.008   0.000  0.00  0.00    +0.210 C 
ATOM     13  C   LIG    1        2.103   1.504   1.232  0.00  0.00    +0.190 C 
ATOM     14  N   LIG    1        2.123   0.034   1.224  0.00  0.00    -0.550 NA
ATOM     15  C   LIG    1        0.757  -0.508   1.234  0.00  0.00    +0.180 C 
ATOM     16  C   LIG    1        2.905  -0.488   2.352  0.00  0.00    +0.190 C 
ATOM     17  C   LIG    1        0.002  -0.004   0.002  0.00  0.00    +0.220 C 
ENDBRANCH   9  11
ENDBRANCH   3   5
BRANCH   1  19
ATOM     18  C   LIG    1       -1.516   7.697  -4.562  0.00  0.00    +0.040 C 
ATOM     19  C   LIG    1       -2.711   7.152  -3.777  0.00  0.00    +0.230 C 
BRANCH  19  20
ATOM     20  C   LIG    1       -3.997   7.399  -4.569  0.00  0.00    +0.260 C 
ATOM     21  C   LIG    1       -5.192   6.854  -3.784  0.00  0.00    +0.070 C 
BRANCH  20  22
ATOM     22  N   LIG    1       -4.168   8.838  -4.783  0.00  0.00    -0.370 N 
ATOM     23  C   LIG    1       -4.739   9.716  -3.939  0.00  0.00    +0.480 A 
ATOM     24  N   LIG    1       -4.696  10.900  -4.495  0.00  0.00    -0.540 NA
ATOM     25  C   LIG    1       -4.116  10.817  -5.692  0.00  0.00    +0.420 A 
ATOM     26  N   LIG    1       -3.775   9.574  -5.913  0.00  0.00    -0.310 NA
ENDBRANCH  20  22
ENDBRANCH  19  20
ENDBRANCH   1  19
TORSDOF 5
