REMARK  Name = ZINCpe000027pHd4.0
REMARK                            x       y       z     vdW  Elec       q    Type
REMARK                         _______ _______ _______ _____ _____    ______ ____
ROOT
ATOM      1  N   LIG    1       -0.018   1.475   0.010  0.00  0.00    -0.460 N 
ATOM      2  C   LIG    1       -0.038  -0.004  -0.022  0.00  0.00    +0.230 C 
ATOM      3  C   LIG    1        1.288  -0.460  -0.658  0.00  0.00    +0.270 C 
ATOM      4  C   LIG    1        2.064   0.844  -0.952  0.00  0.00    +0.280 C 
ATOM      5  C   LIG    1        1.417   1.860   0.022  0.00  0.00    +0.210 C 
ENDROOT
BRANCH   1   9
ATOM      6  C   LIG    1        0.064   3.952   4.250  0.00  0.00    +0.150 C 
ATOM      7  C   LIG    1       -0.672   3.155   3.204  0.00  0.00    +0.180 A 
ATOM      8  C   LIG    1        0.014   2.689   2.102  0.00  0.00    -0.070 A 
ATOM      9  C   LIG    1       -0.671   1.956   1.134  0.00  0.00    +0.190 A 
ATOM     10  C   LIG    1       -2.045   1.715   1.333  0.00  0.00    -0.110 A 
ATOM     11  C   LIG    1       -2.655   2.221   2.481  0.00  0.00    +0.360 A 
ATOM     12  N   LIG    1       -1.961   2.911   3.361  0.00  0.00    -0.490 NA
BRANCH  10  13
ATOM     13  C   LIG    1       -2.800   0.964   0.375  0.00  0.00    +0.260 C 
ATOM     14  N   LIG    1       -3.399   0.369  -0.384  0.00  0.00    -0.400 NA
ENDBRANCH  10  13
ENDBRANCH   1   9
BRANCH   3  15
ATOM     15  N   LIG    1        2.038  -1.302   0.278  0.00  0.00    -0.290 N 
ATOM     16  C   LIG    1        2.053  -1.170   1.625  0.00  0.00    +0.130 A 
ATOM     17  C   LIG    1        2.868  -2.146   2.089  0.00  0.00    +0.160 A 
ATOM     18  N   LIG    1        3.305  -2.818   1.018  0.00  0.00    -0.260 NA
ATOM     19  N   LIG    1        2.791  -2.296  -0.039  0.00  0.00    -0.070 NA
ENDBRANCH   3  15
BRANCH   4  20
ATOM     20  N   LIG    1        3.489   0.676  -0.654  0.00  0.00    -0.720 N 
ATOM     21  H   LIG    1        3.775   0.011  -0.009  0.00  0.00    +0.400 HD
ATOM     22  C   LIG    1        4.403   1.448  -1.276  0.00  0.00    +0.550 C 
ATOM     23  O   LIG    1        4.045   2.281  -2.082  0.00  0.00    -0.530 OA
BRANCH  22  24
ATOM     24  C   LIG    1        5.868   1.276  -0.970  0.00  0.00    -0.070 C 
ATOM     25  C   LIG    1        6.572   2.411  -0.223  0.00  0.00    +0.060 C 
ATOM     26  C   LIG    1        6.855   2.182  -1.709  0.00  0.00    +0.080 C 
ENDBRANCH  22  24
ENDBRANCH   4  20
TORSDOF 5
