REMARK  Name = ZINCrg00000BvNWz.0
REMARK                            x       y       z     vdW  Elec       q    Type
REMARK                         _______ _______ _______ _____ _____    ______ ____
ROOT
ATOM      1  O   LIG    1        1.218   7.375  -2.739  0.00  0.00    -0.520 OA
ATOM      2  C   LIG    1        1.467   6.572  -1.860  0.00  0.00    +0.600 C 
ATOM      3  N   LIG    1        0.932   6.729  -0.633  0.00  0.00    -0.710 N 
ATOM      4  H   LIG    1        1.073   6.053   0.048  0.00  0.00    +0.400 HD
ENDROOT
BRANCH   2   5
ATOM      5  C   LIG    1        2.351   5.428  -2.137  0.00  0.00    -0.080 A 
ATOM      6  C   LIG    1        2.730   4.444  -1.262  0.00  0.00    +0.200 A 
ATOM      7  N   LIG    1        3.531   3.624  -1.944  0.00  0.00    -0.270 NA
ATOM      8  N   LIG    1        3.649   4.047  -3.151  0.00  0.00    -0.050 NA
ATOM      9  N   LIG    1        2.969   5.127  -3.322  0.00  0.00    -0.240 N 
BRANCH   9  10
ATOM     10  C   LIG    1        2.868   5.894  -4.566  0.00  0.00    +0.400 C 
BRANCH  10  11
ATOM     11  C   LIG    1        1.794   5.296  -5.439  0.00  0.00    -0.130 A 
ATOM     12  C   LIG    1        0.488   5.731  -5.323  0.00  0.00    +0.050 A 
ATOM     13  C   LIG    1       -0.497   5.184  -6.124  0.00  0.00    +0.000 A 
ATOM     14  C   LIG    1       -0.176   4.197  -7.037  0.00  0.00    +0.030 A 
ATOM     15  C   LIG    1        1.132   3.765  -7.157  0.00  0.00    +0.000 A 
ATOM     16  C   LIG    1        2.117   4.313  -6.356  0.00  0.00    +0.040 A 
ENDBRANCH  10  11
ENDBRANCH   9  10
ENDBRANCH   2   5
BRANCH   3  17
ATOM     17  C   LIG    1        0.138   7.922  -0.327  0.00  0.00    +0.260 C 
ATOM     18  C   LIG    1        0.153   8.192   1.191  0.00  0.00    +0.060 C 
ATOM     19  C   LIG    1       -1.145   7.526   1.710  0.00  0.00    -0.020 C 
ATOM     20  C   LIG    1       -2.159   7.827   0.578  0.00  0.00    +0.000 C 
ATOM     21  C   LIG    1       -1.333   7.690  -0.718  0.00  0.00    +0.150 C 
BRANCH  21  22
ATOM     22  O   LIG    1       -1.747   8.672  -1.670  0.00  0.00    -0.550 OA
ATOM     23  H   LIG    1       -2.666   8.579  -1.956  0.00  0.00    +0.380 HD
ENDBRANCH  21  22
BRANCH  19  24
ATOM     24  C   LIG    1       -1.592   8.161   3.028  0.00  0.00    +0.310 C 
BRANCH  24  25
ATOM     25  N   LIG    1       -2.750   7.433   3.553  0.00  0.00    -0.460 N 
ATOM     26  C   LIG    1       -2.718   6.356   4.397  0.00  0.00    +0.110 A 
ATOM     27  C   LIG    1       -3.997   6.002   4.625  0.00  0.00    +0.140 A 
ATOM     28  N   LIG    1       -4.789   6.840   3.938  0.00  0.00    -0.500 NA
ATOM     29  C   LIG    1       -4.049   7.703   3.298  0.00  0.00    +0.380 A 
ENDBRANCH  24  25
ENDBRANCH  19  24
ENDBRANCH   3  17
TORSDOF 7
