REMARK  Name = ZINCpk000000oTPu.0
REMARK                            x       y       z     vdW  Elec       q    Type
REMARK                         _______ _______ _______ _____ _____    ______ ____
ROOT
ATOM      1  C   LIG    1       -2.648  -1.151  -2.791  0.00  0.00    +0.100 A 
ATOM      2  C   LIG    1       -2.086  -0.742  -1.591  0.00  0.00    +0.170 A 
ATOM      3  C   LIG    1       -0.727  -0.503  -1.509  0.00  0.00    -0.700 A 
ATOM      4  C   LIG    1        0.077  -0.682  -2.620  0.00  0.00    +0.160 A 
ATOM      5  C   LIG    1       -0.475  -1.096  -3.818  0.00  0.00    -0.070 A 
ATOM      6  C   LIG    1       -1.837  -1.332  -3.909  0.00  0.00    +0.160 A 
ENDROOT
BRANCH   1   8
ATOM      7  C   LIG    1       -4.688  -1.903  -1.821  0.00  0.00    +0.510 C 
ATOM      8  N   LIG    1       -4.026  -1.389  -2.877  0.00  0.00    -0.660 N 
ATOM      9  H   LIG    1       -4.503  -1.183  -3.696  0.00  0.00    +0.420 HD
ATOM     10  O   LIG    1       -4.109  -2.084  -0.772  0.00  0.00    -0.510 OA
BRANCH   7  11
ATOM     11  C   LIG    1       -6.149  -2.252  -1.946  0.00  0.00    +0.090 C 
BRANCH  11  12
ATOM     12  C   LIG    1       -6.655  -2.812  -0.615  0.00  0.00    +0.140 C 
BRANCH  12  13
ATOM     13  C   LIG    1       -8.115  -3.162  -0.740  0.00  0.00    +0.460 C 
ATOM     14  O   LIG    1       -8.693  -2.980  -1.786  0.00  0.00    -0.510 OA
BRANCH  13  15
ATOM     15  O   LIG    1       -8.775  -3.674   0.311  0.00  0.00    -0.360 OA
BRANCH  15  17
ATOM     16  C   LIG    1      -10.758  -4.555   1.416  0.00  0.00    +0.070 C 
ATOM     17  C   LIG    1      -10.180  -3.986   0.119  0.00  0.00    +0.200 C 
ENDBRANCH  15  17
ENDBRANCH  13  15
ENDBRANCH  12  13
ENDBRANCH  11  12
ENDBRANCH   7  11
ENDBRANCH   1   8
BRANCH   3  18
ATOM     18  S   LIG    1       -0.016   0.023   0.015  0.00  0.00    +2.700 S 
ATOM     19  O   LIG    1       -0.903  -0.405   1.040  0.00  0.00    -0.940 OA
ATOM     20  O   LIG    1        1.354  -0.349  -0.032  0.00  0.00    -0.960 OA
BRANCH  18  21
ATOM     21  N   LIG    1       -0.052   1.678   0.026  0.00  0.00    -1.090 NA
ATOM     22  H   LIG    1        0.778   2.181   0.024  0.00  0.00    +0.420 HD
BRANCH  21  23
ATOM     23  C   LIG    1       -1.336   2.384   0.034  0.00  0.00    +0.220 C 
ATOM     24  C   LIG    1       -1.414   3.718  -0.710  0.00  0.00    +0.010 C 
ATOM     25  C   LIG    1       -1.418   3.694   0.820  0.00  0.00    +0.030 C 
ENDBRANCH  21  23
ENDBRANCH  18  21
ENDBRANCH   3  18
BRANCH   6  26
ATOM     26  O   LIG    1       -2.381  -1.738  -5.087  0.00  0.00    -0.310 OA
ATOM     27  C   LIG    1       -1.489  -1.902  -6.191  0.00  0.00    +0.250 C 
ENDBRANCH   6  26
TORSDOF 10
