REMARK  Name = ZINCrD00000F5LB9.0
REMARK                            x       y       z     vdW  Elec       q    Type
REMARK                         _______ _______ _______ _____ _____    ______ ____
ROOT
ATOM      1  C   LIG    1       -6.119   3.903   1.389  0.00  0.00    +0.260 C 
ENDROOT
BRANCH   1   2
ATOM      2  C   LIG    1       -5.807   4.240   2.825  0.00  0.00    -0.100 A 
ATOM      3  C   LIG    1       -4.949   5.282   3.119  0.00  0.00    +0.020 A 
ATOM      4  C   LIG    1       -4.666   5.594   4.436  0.00  0.00    +0.000 A 
ATOM      5  C   LIG    1       -5.235   4.856   5.458  0.00  0.00    +0.010 A 
ATOM      6  C   LIG    1       -6.089   3.810   5.163  0.00  0.00    +0.010 A 
ATOM      7  C   LIG    1       -6.375   3.502   3.846  0.00  0.00    +0.030 A 
ENDBRANCH   1   2
BRANCH   1  10
ATOM      8  O   LIG    1       -4.274   1.960   1.098  0.00  0.00    -0.530 OA
ATOM      9  C   LIG    1       -4.041   2.991   0.503  0.00  0.00    +0.520 C 
ATOM     10  N   LIG    1       -4.902   4.025   0.583  0.00  0.00    -0.720 N 
ATOM     11  H   LIG    1       -4.715   4.849   0.108  0.00  0.00    +0.410 HD
BRANCH   9  12
ATOM     12  C   LIG    1       -2.788   3.116  -0.325  0.00  0.00    +0.060 C 
BRANCH  12  13
ATOM     13  C   LIG    1       -1.992   1.811  -0.246  0.00  0.00    +0.030 C 
ATOM     14  C   LIG    1       -1.014   1.751   0.964  0.00  0.00    +0.040 C 
ATOM     15  C   LIG    1       -0.013   1.086   0.008  0.00  0.00    -0.020 C 
ATOM     16  C   LIG    1        1.369   1.766  -0.002  0.00  0.00    +0.200 C 
ATOM     17  O   LIG    1        1.189   3.072  -0.553  0.00  0.00    -0.380 OA
ATOM     18  C   LIG    1       -0.043   3.150  -1.272  0.00  0.00    +0.200 C 
ATOM     19  C   LIG    1       -0.754   1.791  -1.157  0.00  0.00    -0.050 C 
ENDBRANCH  12  13
ENDBRANCH   9  12
ENDBRANCH   1  10
BRANCH   1  20
ATOM     20  C   LIG    1       -7.165   4.855   0.866  0.00  0.00    +0.360 C 
ATOM     21  O   LIG    1       -6.849   5.742   0.110  0.00  0.00    -0.430 OA
BRANCH  20  22
ATOM     22  C   LIG    1       -8.604   4.698   1.286  0.00  0.00    +0.090 C 
BRANCH  22  23
ATOM     23  C   LIG    1       -9.438   5.767   0.628  0.00  0.00    -0.080 A 
ATOM     24  C   LIG    1       -9.632   6.980   1.261  0.00  0.00    +0.010 A 
ATOM     25  C   LIG    1      -10.393   7.962   0.655  0.00  0.00    +0.000 A 
ATOM     26  C   LIG    1      -10.969   7.727  -0.579  0.00  0.00    +0.000 A 
ATOM     27  C   LIG    1      -10.780   6.511  -1.210  0.00  0.00    +0.000 A 
ATOM     28  C   LIG    1      -10.014   5.531  -0.607  0.00  0.00    +0.010 A 
ENDBRANCH  22  23
ENDBRANCH  20  22
ENDBRANCH   1  20
TORSDOF 7
