REMARK  Name = ZINCrg000000sN4N.0
REMARK                            x       y       z     vdW  Elec       q    Type
REMARK                         _______ _______ _______ _____ _____    ______ ____
ROOT
ATOM      1  C   LIG    1        0.942   1.356  -0.179  0.00  0.00    -0.050 C 
ATOM      2  C   LIG    1       -0.095   0.565  -0.019  0.00  0.00    -0.030 C 
ATOM      3  C   LIG    1       -1.519   1.042  -0.086  0.00  0.00    +0.330 C 
ATOM      4  N   LIG    1       -1.534   2.513  -0.074  0.00  0.00    -0.630 N 
ATOM      5  C   LIG    1       -0.549   3.204  -0.925  0.00  0.00    +0.300 C 
ATOM      6  C   LIG    1       -2.413   3.202   0.680  0.00  0.00    +0.720 C 
ATOM      7  N   LIG    1       -3.303   2.543   1.449  0.00  0.00    -0.720 N 
ATOM      8  H   LIG    1       -3.310   1.573   1.460  0.00  0.00    +0.400 HD
ATOM      9  O   LIG    1       -2.404   4.418   0.667  0.00  0.00    -0.590 OA
ATOM     10  C   LIG    1        0.849   2.833  -0.425  0.00  0.00    +0.080 C 
ENDROOT
BRANCH   7  11
ATOM     11  C   LIG    1       -4.258   3.291   2.269  0.00  0.00    +0.270 C 
ATOM     12  C   LIG    1       -3.613   3.649   3.613  0.00  0.00    +0.030 C 
ATOM     13  C   LIG    1       -3.047   2.370   4.235  0.00  0.00    +0.070 C 
ATOM     14  C   LIG    1       -4.083   1.283   4.201  0.00  0.00    +0.520 C 
ATOM     15  N   LIG    1       -5.161   1.318   3.417  0.00  0.00    -0.710 N 
ATOM     16  H   LIG    1       -5.761   0.557   3.436  0.00  0.00    +0.400 HD
ATOM     17  O   LIG    1       -3.931   0.323   4.925  0.00  0.00    -0.550 OA
ATOM     18  C   LIG    1       -5.493   2.429   2.533  0.00  0.00    +0.220 C 
BRANCH  18  19
ATOM     19  C   LIG    1       -6.019   1.879   1.206  0.00  0.00    +0.170 C 
ATOM     20  C   LIG    1       -7.261   0.997   1.459  0.00  0.00    +0.010 C 
ATOM     21  C   LIG    1       -7.051  -0.166   0.453  0.00  0.00    +0.020 C 
ATOM     22  C   LIG    1       -5.506  -0.292   0.467  0.00  0.00    +0.190 C 
ATOM     23  O   LIG    1       -5.022   1.055   0.592  0.00  0.00    -0.370 OA
ENDBRANCH  18  19
ENDBRANCH   7  11
BRANCH   1  29
ATOM     24  C   LIG    1        2.143  -0.215   2.212  0.00  0.00    +0.340 C 
ATOM     25  N   LIG    1        2.812   0.062   0.939  0.00  0.00    -0.370 N 
ATOM     26  N   LIG    1        4.107  -0.335   0.583  0.00  0.00    -0.290 NA
ATOM     27  C   LIG    1        4.361   0.092  -0.628  0.00  0.00    +0.240 A 
ATOM     28  C   LIG    1        3.242   0.776  -1.105  0.00  0.00    -0.100 A 
ATOM     29  C   LIG    1        2.284   0.753  -0.113  0.00  0.00    +0.110 A 
ENDBRANCH   1  29
TORSDOF 3
