REMARK  Name = ZINCrD00000F5LpX.0
REMARK                            x       y       z     vdW  Elec       q    Type
REMARK                         _______ _______ _______ _____ _____    ______ ____
ROOT
ATOM      1  C   LIG    1       -3.715   3.146   0.033  0.00  0.00    -0.670 A 
ATOM      2  C   LIG    1       -3.700   1.762   0.025  0.00  0.00    +0.130 A 
ATOM      3  C   LIG    1       -2.501   1.082   0.016  0.00  0.00    +0.030 A 
ATOM      4  C   LIG    1       -1.297   1.794   0.015  0.00  0.00    -0.020 A 
ATOM      5  C   LIG    1       -1.321   3.192   0.027  0.00  0.00    +0.020 A 
ATOM      6  C   LIG    1       -2.528   3.858   0.031  0.00  0.00    +0.120 A 
ENDROOT
BRANCH   1   7
ATOM      7  S   LIG    1       -5.253   4.006   0.043  0.00  0.00    +2.690 S 
ATOM      8  O   LIG    1       -6.215   3.114  -0.502  0.00  0.00    -0.950 OA
ATOM      9  O   LIG    1       -4.995   5.296  -0.495  0.00  0.00    -0.950 OA
BRANCH   7  10
ATOM     10  N   LIG    1       -5.674   4.237   1.628  0.00  0.00    -1.000 NA
BRANCH  10  12
ATOM     11  C   LIG    1       -6.349   6.500   2.265  0.00  0.00    +0.010 C 
ATOM     12  C   LIG    1       -5.241   5.446   2.333  0.00  0.00    +0.280 C 
ENDBRANCH  10  12
BRANCH  10  13
ATOM     13  C   LIG    1       -6.480   3.232   2.326  0.00  0.00    +0.290 C 
ATOM     14  C   LIG    1       -5.558   2.279   3.090  0.00  0.00    +0.010 C 
ENDBRANCH  10  13
ENDBRANCH   7  10
ENDBRANCH   1   7
BRANCH   4  15
ATOM     15  C   LIG    1       -0.013   1.076   0.006  0.00  0.00    +0.120 C 
ATOM     16  C   LIG    1        1.146   1.766  -0.001  0.00  0.00    -0.060 C 
BRANCH  16  17
ATOM     17  C   LIG    1        2.423   1.051  -0.015  0.00  0.00    +0.560 C 
ATOM     18  N   LIG    1        3.578   1.738  -0.124  0.00  0.00    -0.550 N 
ATOM     19  C   LIG    1        3.689   3.199  -0.129  0.00  0.00    +0.280 C 
ATOM     20  C   LIG    1        5.192   3.488  -0.274  0.00  0.00    +0.090 C 
ATOM     21  C   LIG    1        5.838   2.122  -0.342  0.00  0.00    -0.140 A 
ATOM     22  C   LIG    1        7.162   1.751  -0.472  0.00  0.00    +0.050 A 
ATOM     23  C   LIG    1        7.510   0.413  -0.494  0.00  0.00    -0.010 A 
ATOM     24  C   LIG    1        6.526  -0.554  -0.402  0.00  0.00    +0.040 A 
ATOM     25  C   LIG    1        5.202  -0.189  -0.277  0.00  0.00    +0.010 A 
ATOM     26  C   LIG    1        4.845   1.160  -0.244  0.00  0.00    +0.140 A 
ATOM     27  O   LIG    1        2.443  -0.163   0.071  0.00  0.00    -0.520 OA
ENDBRANCH  16  17
ENDBRANCH   4  15
TORSDOF 6
