REMARK  Name = ZINCrD00000F5LD1.0
REMARK                            x       y       z     vdW  Elec       q    Type
REMARK                         _______ _______ _______ _____ _____    ______ ____
ROOT
ATOM      1  N   LIG    1        5.854  10.160  -0.909  0.00  0.00    -0.670 N 
ATOM      2  H   LIG    1        6.715   9.901  -0.547  0.00  0.00    +0.410 HD
ATOM      3  C   LIG    1        4.771   9.387  -0.692  0.00  0.00    +0.520 C 
ATOM      4  O   LIG    1        3.679   9.752  -1.072  0.00  0.00    -0.500 OA
ENDROOT
BRANCH   1   8
ATOM      5  C   LIG    1        5.497  13.670  -3.132  0.00  0.00    +0.130 A 
ATOM      6  C   LIG    1        4.459  13.264  -2.304  0.00  0.00    +0.000 A 
ATOM      7  C   LIG    1        4.577  12.102  -1.568  0.00  0.00    +0.040 A 
ATOM      8  C   LIG    1        5.734  11.339  -1.656  0.00  0.00    +0.130 A 
ATOM      9  C   LIG    1        6.774  11.748  -2.480  0.00  0.00    +0.010 A 
ATOM     10  C   LIG    1        6.654  12.907  -3.220  0.00  0.00    +0.040 A 
BRANCH   5  13
ATOM     11  C   LIG    1        5.707  16.155  -5.954  0.00  0.00    +0.110 C 
ATOM     12  C   LIG    1        5.924  14.926  -5.109  0.00  0.00    +0.510 C 
ATOM     13  N   LIG    1        5.378  14.849  -3.879  0.00  0.00    -0.670 N 
ATOM     14  H   LIG    1        4.902  15.610  -3.511  0.00  0.00    +0.410 HD
ATOM     15  O   LIG    1        6.589  14.007  -5.536  0.00  0.00    -0.530 OA
ENDBRANCH   5  13
ENDBRANCH   1   8
BRANCH   3  16
ATOM     16  C   LIG    1        4.918   8.068   0.021  0.00  0.00    +0.180 C 
ATOM     17  C   LIG    1        5.370   8.315   1.462  0.00  0.00    +0.070 C 
BRANCH  16  18
ATOM     18  O   LIG    1        3.663   7.386   0.026  0.00  0.00    -0.320 OA
BRANCH  18  19
ATOM     19  C   LIG    1        3.698   6.037   0.030  0.00  0.00    +0.500 C 
ATOM     20  O   LIG    1        4.767   5.457   0.029  0.00  0.00    -0.510 OA
BRANCH  19  21
ATOM     21  C   LIG    1        2.452   5.274   0.035  0.00  0.00    -0.050 C 
ATOM     22  C   LIG    1        2.488   3.924   0.038  0.00  0.00    +0.140 C 
BRANCH  22  23
ATOM     23  C   LIG    1        1.234   3.155   0.043  0.00  0.00    -0.100 A 
ATOM     24  C   LIG    1        1.267   1.757   0.047  0.00  0.00    +0.080 A 
ATOM     25  C   LIG    1        0.088   1.043   0.052  0.00  0.00    -0.020 A 
ATOM     26  C   LIG    1       -1.129   1.708   0.048  0.00  0.00    +0.120 A 
ATOM     27  C   LIG    1       -1.169   3.094   0.049  0.00  0.00    -0.020 A 
ATOM     28  F   LIG    1       -2.281   1.002   0.047  0.00  0.00    -0.130 F 
ATOM     29  C   LIG    1        0.002   3.820   0.044  0.00  0.00    +0.070 A 
ENDBRANCH  22  23
ENDBRANCH  19  21
ENDBRANCH  18  19
ENDBRANCH  16  18
ENDBRANCH   3  16
TORSDOF 7
