REMARK  Name = ZINCtV00000L6k3O.0
REMARK                            x       y       z     vdW  Elec       q    Type
REMARK                         _______ _______ _______ _____ _____    ______ ____
ROOT
ATOM      1  P   LIG    1        6.698   0.252   0.104  0.00  0.00    +2.730 P 
ATOM      2  N   LIG    1        6.130  -1.175  -0.129  0.00  0.00    -1.200 NA
ENDROOT
BRANCH   1   3
ATOM      3  C   LIG    1        8.401   0.133   0.718  0.00  0.00    -0.730 A 
ATOM      4  C   LIG    1        9.462   0.259  -0.159  0.00  0.00    +0.080 A 
ATOM      5  C   LIG    1       10.760   0.173   0.309  0.00  0.00    +0.000 A 
ATOM      6  C   LIG    1       10.996  -0.050   1.653  0.00  0.00    +0.060 A 
ATOM      7  C   LIG    1        9.935  -0.182   2.529  0.00  0.00    +0.000 A 
ATOM      8  C   LIG    1        8.637  -0.090   2.061  0.00  0.00    +0.060 A 
ENDBRANCH   1   3
BRANCH   2   9
ATOM      9  C   LIG    1        4.833  -1.382  -0.080  0.00  0.00    +0.610 C 
ATOM     10  S   LIG    1        3.760  -0.057   0.066  0.00  0.00    -0.720 S 
BRANCH   9  11
ATOM     11  N   LIG    1        4.349  -2.638  -0.145  0.00  0.00    -0.630 N 
ATOM     12  H   LIG    1        4.958  -3.393  -0.163  0.00  0.00    +0.410 HD
BRANCH  11  13
ATOM     13  C   LIG    1        2.968  -2.854  -0.186  0.00  0.00    +0.150 A 
ATOM     14  C   LIG    1        2.135  -2.204   0.715  0.00  0.00    +0.080 A 
ATOM     15  C   LIG    1        0.771  -2.419   0.671  0.00  0.00    +0.050 A 
ATOM     16  C   LIG    1        0.235  -3.281  -0.268  0.00  0.00    -0.100 A 
ATOM     17  C   LIG    1        1.062  -3.930  -1.167  0.00  0.00    -0.050 A 
ATOM     18  C   LIG    1        0.474  -4.868  -2.189  0.00  0.00    +0.100 C 
ATOM     19  I   LIG    1       -1.835  -3.597  -0.335  0.00  0.00    -0.050 I 
ATOM     20  C   LIG    1        2.426  -3.719  -1.129  0.00  0.00    +0.000 A 
ENDBRANCH  11  13
ENDBRANCH   9  11
ENDBRANCH   2   9
BRANCH   1  21
ATOM     21  N   LIG    1        6.683   1.106  -1.347  0.00  0.00    -0.940 NA
BRANCH  21  23
ATOM     22  C   LIG    1        7.928   0.952  -3.450  0.00  0.00    +0.030 C 
ATOM     23  C   LIG    1        6.995   0.224  -2.479  0.00  0.00    +0.200 C 
ENDBRANCH  21  23
BRANCH  21  24
ATOM     24  C   LIG    1        5.395   1.782  -1.546  0.00  0.00    +0.240 C 
ATOM     25  C   LIG    1        5.525   2.805  -2.676  0.00  0.00    +0.030 C 
ENDBRANCH  21  24
ENDBRANCH   1  21
BRANCH   1  26
ATOM     26  N   LIG    1        5.748   1.056   1.237  0.00  0.00    -0.880 NA
BRANCH  26  27
ATOM     27  C   LIG    1        6.233   2.425   1.454  0.00  0.00    +0.160 C 
ATOM     28  C   LIG    1        5.040   3.374   1.582  0.00  0.00    +0.060 C 
ENDBRANCH  26  27
BRANCH  26  29
ATOM     29  C   LIG    1        5.694   0.310   2.502  0.00  0.00    +0.180 C 
ATOM     30  C   LIG    1        4.325   0.514   3.155  0.00  0.00    +0.060 C 
ENDBRANCH  26  29
ENDBRANCH   1  26
TORSDOF 10
