REMARK  Name = ZINCpe00000MJInn.0
REMARK                            x       y       z     vdW  Elec       q    Type
REMARK                         _______ _______ _______ _____ _____    ______ ____
ROOT
ATOM      1  O   LIG    1        2.943   2.896  -0.979  0.00  0.00    -0.540 OA
ATOM      2  C   LIG    1        1.792   2.519  -1.031  0.00  0.00    +0.490 C 
ATOM      3  C   LIG    1        1.056   2.632  -2.336  0.00  0.00    +0.290 C 
ATOM      4  O   LIG    1       -0.147   1.857  -2.301  0.00  0.00    -0.360 OA
ATOM      5  C   LIG    1       -0.904   2.070  -1.109  0.00  0.00    +0.150 C 
ATOM      6  C   LIG    1       -2.279   1.410  -1.182  0.00  0.00    +0.060 C 
ATOM      7  C   LIG    1       -3.050   1.734   0.104  0.00  0.00    +0.280 C 
ATOM      8  N   LIG    1       -2.239   1.350   1.266  0.00  0.00    -0.630 N 
ATOM      9  C   LIG    1       -0.874   1.840   1.358  0.00  0.00    +0.310 C 
ATOM     10  C   LIG    1       -2.756   0.559   2.227  0.00  0.00    +0.710 C 
ATOM     11  N   LIG    1       -4.054   0.202   2.180  0.00  0.00    -0.740 N 
ATOM     12  H   LIG    1       -4.599   0.454   1.418  0.00  0.00    +0.400 HD
ATOM     13  O   LIG    1       -2.050   0.168   3.136  0.00  0.00    -0.580 OA
ATOM     14  C   LIG    1       -0.127   1.483   0.072  0.00  0.00    +0.190 C 
ATOM     15  N   LIG    1        1.229   2.017   0.079  0.00  0.00    -0.710 N 
ATOM     16  H   LIG    1        1.736   2.010   0.905  0.00  0.00    +0.410 HD
ENDROOT
BRANCH  11  17
ATOM     17  C   LIG    1       -4.643  -0.567   3.279  0.00  0.00    +0.300 C 
BRANCH  17  18
ATOM     18  C   LIG    1       -6.082  -0.945   2.924  0.00  0.00    +0.040 C 
ATOM     19  C   LIG    1       -6.927   0.326   2.801  0.00  0.00    +0.000 C 
ATOM     20  C   LIG    1       -8.405  -0.082   2.739  0.00  0.00    +0.240 C 
ATOM     21  O   LIG    1       -8.757  -0.686   3.984  0.00  0.00    -0.310 OA
ATOM     22  C   LIG    1       -7.943  -1.659   4.470  0.00  0.00    +0.140 A 
ATOM     23  C   LIG    1       -8.433  -2.499   5.465  0.00  0.00    -0.020 A 
ATOM     24  C   LIG    1       -7.634  -3.494   5.990  0.00  0.00    +0.050 A 
ATOM     25  C   LIG    1       -6.342  -3.659   5.525  0.00  0.00    -0.020 A 
ATOM     26  C   LIG    1       -5.853  -2.828   4.536  0.00  0.00    +0.050 A 
ATOM     27  C   LIG    1       -6.650  -1.829   4.005  0.00  0.00    -0.160 A 
ENDBRANCH  17  18
ENDBRANCH  11  17
TORSDOF 2
