REMARK  Name = ZINCb80000003NS3.0
REMARK                            x       y       z     vdW  Elec       q    Type
REMARK                         _______ _______ _______ _____ _____    ______ ____
ROOT
ATOM      1  N   LIG    1       -0.110   7.184  -1.623  0.00  0.00    -0.580 N 
ATOM      2  H   LIG    1       -0.112   7.810  -0.882  0.00  0.00    +0.400 HD
ATOM      3  C   LIG    1       -0.090   5.858  -1.385  0.00  0.00    +0.510 C 
ATOM      4  O   LIG    1       -0.087   5.075  -2.312  0.00  0.00    -0.520 OA
ENDROOT
BRANCH   1   5
ATOM      5  N   LIG    1       -0.128   7.647  -2.909  0.00  0.00    -0.600 NA
ATOM      6  H   LIG    1        0.654   7.286  -3.434  0.00  0.00    +0.350 HD
ATOM      7  H   LIG    1       -0.141   8.656  -2.929  0.00  0.00    +0.360 HD
ENDBRANCH   1   5
BRANCH   3   8
ATOM      8  C   LIG    1       -0.070   5.347   0.032  0.00  0.00    +0.110 C 
BRANCH   8   9
ATOM      9  C   LIG    1       -0.050   3.840   0.023  0.00  0.00    -0.070 A 
ATOM     10  C   LIG    1        1.156   3.165   0.008  0.00  0.00    +0.010 A 
ATOM     11  C   LIG    1        1.175   1.783   0.000  0.00  0.00    +0.000 A 
ATOM     12  C   LIG    1       -0.013   1.076   0.008  0.00  0.00    +0.000 A 
ATOM     13  C   LIG    1       -1.219   1.751   0.017  0.00  0.00    +0.000 A 
ATOM     14  C   LIG    1       -1.238   3.133   0.029  0.00  0.00    +0.020 A 
ENDBRANCH   8   9
ENDBRANCH   3   8
TORSDOF 3
