REMARK  Name = ZINCrH000004k4uV.0
REMARK                            x       y       z     vdW  Elec       q    Type
REMARK                         _______ _______ _______ _____ _____    ______ ____
ROOT
ATOM      1  C   LIG    1        4.003   2.583   3.921  0.00  0.00    -0.110 A 
ATOM      2  C   LIG    1        4.370   3.732   3.246  0.00  0.00    +0.050 A 
ATOM      3  C   LIG    1        5.164   4.676   3.867  0.00  0.00    -0.080 A 
ATOM      4  C   LIG    1        5.602   4.465   5.167  0.00  0.00    +0.130 A 
ATOM      5  C   LIG    1        5.237   3.309   5.840  0.00  0.00    -0.020 A 
ATOM      6  C   LIG    1        4.438   2.370   5.216  0.00  0.00    +0.070 A 
ENDROOT
BRANCH   1   7
ATOM      7  C   LIG    1        3.132   1.557   3.243  0.00  0.00    +0.210 C 
BRANCH   7  17
ATOM      8  C   LIG    1       -0.013   1.086   0.008  0.00  0.00    +0.330 C 
ATOM      9  N   LIG    1       -0.698   1.558   1.213  0.00  0.00    -0.620 N 
ATOM     10  C   LIG    1       -2.014   1.806   1.320  0.00  0.00    +0.700 C 
ATOM     11  N   LIG    1       -2.391   2.227   2.536  0.00  0.00    -0.740 N 
ATOM     12  H   LIG    1       -3.297   2.451   2.799  0.00  0.00    +0.430 HD
ATOM     13  C   LIG    1       -1.206   2.301   3.409  0.00  0.00    +0.300 C 
ATOM     14  O   LIG    1       -2.794   1.660   0.398  0.00  0.00    -0.580 OA
ATOM     15  C   LIG    1       -0.065   1.844   2.497  0.00  0.00    +0.120 C 
ATOM     16  C   LIG    1        1.164   2.752   2.460  0.00  0.00    +0.180 C 
ATOM     17  N   LIG    1        1.720   1.862   3.507  0.00  0.00    -0.470 NA
ATOM     18  C   LIG    1        0.844   0.752   3.063  0.00  0.00    +0.180 C 
ENDBRANCH   7  17
ENDBRANCH   1   7
BRANCH   4  19
ATOM     19  O   LIG    1        6.387   5.391   5.779  0.00  0.00    -0.310 OA
BRANCH  19  20
ATOM     20  C   LIG    1        6.724   6.557   5.024  0.00  0.00    +0.260 C 
BRANCH  20  21
ATOM     21  C   LIG    1        7.593   7.462   5.859  0.00  0.00    -0.080 A 
ATOM     22  C   LIG    1        7.015   8.432   6.656  0.00  0.00    +0.060 A 
ATOM     23  C   LIG    1        7.811   9.259   7.427  0.00  0.00    +0.050 A 
ATOM     24  C   LIG    1        9.187   9.123   7.392  0.00  0.00    -0.020 A 
ATOM     25  C   LIG    1        9.766   8.154   6.590  0.00  0.00    -0.030 A 
ATOM     26 CL   LIG    1       11.493   7.982   6.546  0.00  0.00    -0.040 Cl
ATOM     27 CL   LIG    1       10.187  10.166   8.354  0.00  0.00    -0.040 Cl
ATOM     28  C   LIG    1        8.968   7.324   5.824  0.00  0.00    +0.080 A 
ENDBRANCH  20  21
ENDBRANCH  19  20
ENDBRANCH   4  19
TORSDOF 5
