REMARK  Name = ZINCpe000000YEoK.1
REMARK                            x       y       z     vdW  Elec       q    Type
REMARK                         _______ _______ _______ _____ _____    ______ ____
ROOT
ATOM      1  C   LIG    1       -2.375  -2.721   3.445  0.00  0.00    +0.240 C 
ATOM      2  C   LIG    1       -2.891  -3.128   2.063  0.00  0.00    +0.030 C 
ATOM      3  C   LIG    1       -3.087  -1.873   1.206  0.00  0.00    +0.310 C 
ATOM      4  N   LIG    1       -1.827  -1.116   1.181  0.00  0.00    -0.610 N 
ATOM      5  C   LIG    1       -1.194  -0.757   2.458  0.00  0.00    +0.280 C 
ATOM      6  C   LIG    1       -1.261  -0.763   0.011  0.00  0.00    +0.580 C 
ATOM      7  O   LIG    1       -1.793  -1.070  -1.039  0.00  0.00    -0.510 OA
ATOM      8  C   LIG    1       -1.023  -2.020   3.300  0.00  0.00    +0.030 C 
ENDROOT
BRANCH   6   9
ATOM      9  C   LIG    1        0.002  -0.004   0.002  0.00  0.00    -0.190 A 
ATOM     10  C   LIG    1       -0.017   1.398   0.010  0.00  0.00    +0.170 A 
ATOM     11  C   LIG    1        1.177   2.102   0.002  0.00  0.00    +0.000 A 
ATOM     12  C   LIG    1        2.382   1.425  -0.013  0.00  0.00    +0.090 A 
ATOM     13  C   LIG    1        2.408   0.041  -0.021  0.00  0.00    -0.010 A 
ATOM     14  C   LIG    1        1.228  -0.678  -0.013  0.00  0.00    +0.150 A 
ATOM     15  F   LIG    1        1.259  -2.029  -0.021  0.00  0.00    -0.130 F 
BRANCH  10  16
ATOM     16  O   LIG    1       -1.199   2.063   0.019  0.00  0.00    -0.480 OA
ATOM     17  H   LIG    1       -1.538   2.251   0.905  0.00  0.00    +0.400 HD
ENDBRANCH  10  16
ENDBRANCH   6   9
BRANCH   1  20
ATOM     18  C   LIG    1       -2.406  -5.403   5.893  0.00  0.00    -0.160 A 
ATOM     19  C   LIG    1       -2.853  -4.163   5.460  0.00  0.00    +0.370 A 
ATOM     20  N   LIG    1       -2.218  -3.916   4.278  0.00  0.00    -0.480 N 
ATOM     21  C   LIG    1       -1.415  -4.985   4.009  0.00  0.00    +0.390 A 
ATOM     22  N   LIG    1       -1.522  -5.860   4.964  0.00  0.00    -0.430 NA
BRANCH  18  26
ATOM     23  N   LIG    1       -2.292  -7.300   7.417  0.00  0.00    -0.840 N 
ATOM     24  H   LIG    1       -2.560  -7.757   8.230  0.00  0.00    +0.400 HD
ATOM     25  H   LIG    1       -1.651  -7.713   6.817  0.00  0.00    +0.410 HD
ATOM     26  C   LIG    1       -2.811  -6.092   7.120  0.00  0.00    +0.620 C 
ATOM     27  O   LIG    1       -3.615  -5.574   7.873  0.00  0.00    -0.570 OA
ENDBRANCH  18  26
BRANCH  19  28
ATOM     28  N   LIG    1       -3.761  -3.342   6.098  0.00  0.00    -0.830 N 
ATOM     29  H   LIG    1       -4.155  -3.617   6.940  0.00  0.00    +0.430 HD
ATOM     30  H   LIG    1       -4.005  -2.490   5.704  0.00  0.00    +0.400 HD
ENDBRANCH  19  28
ENDBRANCH   1  20
TORSDOF 5
