REMARK  Name = ZINCpe000000XEUL.0
REMARK                            x       y       z     vdW  Elec       q    Type
REMARK                         _______ _______ _______ _____ _____    ______ ____
ROOT
ATOM      1  C   LIG    1        3.295   7.966   2.204  0.00  0.00    +0.610 C 
ATOM      2  N   LIG    1        4.557   7.939   1.731  0.00  0.00    -0.690 N 
ATOM      3  H   LIG    1        5.301   8.132   2.323  0.00  0.00    +0.430 HD
ATOM      4  O   LIG    1        2.363   7.725   1.462  0.00  0.00    -0.510 OA
ENDROOT
BRANCH   1  12
ATOM      5  C   LIG    1       -0.264   8.728   6.427  0.00  0.00    +0.160 C 
ATOM      6  C   LIG    1        1.226   8.872   6.599  0.00  0.00    +0.210 A 
ATOM      7  C   LIG    1        1.752   9.191   7.808  0.00  0.00    -0.040 A 
ATOM      8  C   LIG    1        3.141   9.324   7.939  0.00  0.00    +0.240 A 
ATOM      9  N   LIG    1        3.926   9.131   6.904  0.00  0.00    -0.460 NA
ATOM     10  C   LIG    1        3.418   8.809   5.707  0.00  0.00    +0.450 A 
ATOM     11  N   LIG    1        3.984   8.569   4.533  0.00  0.00    -0.500 NA
ATOM     12  C   LIG    1        3.044   8.288   3.628  0.00  0.00    +0.240 A 
ATOM     13  N   LIG    1        1.856   8.343   4.200  0.00  0.00    -0.270 NA
ATOM     14  C   LIG    1        3.738   9.683   9.275  0.00  0.00    +0.180 C 
ATOM     15  N   LIG    1        2.066   8.678   5.544  0.00  0.00    -0.330 N 
ENDBRANCH   1  12
BRANCH   2  16
ATOM     16  C   LIG    1        4.805   7.621   0.323  0.00  0.00    +0.280 C 
BRANCH  16  17
ATOM     17  C   LIG    1        6.305   7.708   0.037  0.00  0.00    +0.130 C 
BRANCH  17  18
ATOM     18  N   LIG    1        7.039   6.899   1.020  0.00  0.00    -0.530 NA
ATOM     19  C   LIG    1        8.485   6.939   0.761  0.00  0.00    +0.160 C 
ATOM     20  C   LIG    1        9.214   6.135   1.840  0.00  0.00    +0.220 C 
ATOM     21  O   LIG    1        8.704   4.799   1.858  0.00  0.00    -0.380 OA
ATOM     22  C   LIG    1        7.298   4.723   2.108  0.00  0.00    +0.220 C 
ATOM     23  C   LIG    1        6.550   5.513   1.032  0.00  0.00    +0.150 C 
ENDBRANCH  17  18
BRANCH  17  24
ATOM     24  C   LIG    1        6.760   9.166   0.135  0.00  0.00    -0.010 C 
ATOM     25  C   LIG    1        6.500   9.687   1.550  0.00  0.00    +0.030 C 
ATOM     26  C   LIG    1        5.978  10.012  -0.871  0.00  0.00    +0.030 C 
ENDBRANCH  17  24
ENDBRANCH  16  17
ENDBRANCH   2  16
TORSDOF 5
