REMARK  Name = ZINCpe00000MJKig.0
REMARK                            x       y       z     vdW  Elec       q    Type
REMARK                         _______ _______ _______ _____ _____    ______ ____
ROOT
ATOM      1  C   LIG    1       -3.069   0.923   1.444  0.00  0.00    +0.160 C 
ATOM      2  O   LIG    1       -4.406   0.412   1.395  0.00  0.00    -0.340 OA
ATOM      3  C   LIG    1       -5.324   1.314   0.773  0.00  0.00    +0.290 C 
ATOM      4  C   LIG    1       -4.765   1.785  -0.540  0.00  0.00    +0.490 C 
ATOM      5  N   LIG    1       -3.474   1.641  -0.862  0.00  0.00    -0.600 N 
ATOM      6  C   LIG    1       -3.004   2.166  -2.146  0.00  0.00    +0.290 C 
ATOM      7  O   LIG    1       -5.510   2.315  -1.337  0.00  0.00    -0.530 OA
ATOM      8  C   LIG    1       -2.514   0.980   0.019  0.00  0.00    +0.270 C 
ENDROOT
BRANCH   8   9
ATOM      9  C   LIG    1       -1.219   1.751   0.017  0.00  0.00    -0.120 A 
ATOM     10  C   LIG    1       -0.013   1.076   0.008  0.00  0.00    +0.030 A 
ATOM     11  C   LIG    1        1.175   1.783   0.000  0.00  0.00    +0.010 A 
ATOM     12  C   LIG    1        1.156   3.165   0.008  0.00  0.00    +0.030 A 
ATOM     13  C   LIG    1       -0.050   3.840   0.023  0.00  0.00    +0.010 A 
ATOM     14  C   LIG    1       -1.238   3.133   0.029  0.00  0.00    +0.020 A 
ENDBRANCH   8   9
BRANCH   1  17
ATOM     15  N   LIG    1       -0.931   0.341   2.542  0.00  0.00    -0.730 N 
ATOM     16  H   LIG    1       -0.560   1.163   2.185  0.00  0.00    +0.400 HD
ATOM     17  C   LIG    1       -2.212   0.013   2.285  0.00  0.00    +0.530 C 
ATOM     18  O   LIG    1       -2.676  -1.015   2.731  0.00  0.00    -0.500 OA
BRANCH  15  19
ATOM     19  C   LIG    1       -0.098  -0.544   3.360  0.00  0.00    +0.280 C 
BRANCH  19  20
ATOM     20  C   LIG    1        1.303   0.057   3.497  0.00  0.00    +0.080 C 
BRANCH  20  22
ATOM     21  C   LIG    1        3.321  -1.300   3.865  0.00  0.00    -0.050 C 
ATOM     22  C   LIG    1        2.160  -0.854   4.338  0.00  0.00    +0.080 C 
BRANCH  21  23
ATOM     23  C   LIG    1        4.156  -2.188   4.685  0.00  0.00    +0.490 C 
ATOM     24  O   LIG    1        3.787  -2.514   5.796  0.00  0.00    -0.510 OA
BRANCH  23  26
ATOM     25  C   LIG    1        6.105  -3.513   5.071  0.00  0.00    +0.260 C 
ATOM     26  O   LIG    1        5.332  -2.640   4.206  0.00  0.00    -0.360 OA
ENDBRANCH  23  26
ENDBRANCH  21  23
ENDBRANCH  20  22
ENDBRANCH  19  20
ENDBRANCH  15  19
ENDBRANCH   1  17
TORSDOF 7
