REMARK  Name = ZINCyk0000000aAH.1
REMARK                            x       y       z     vdW  Elec       q    Type
REMARK                         _______ _______ _______ _____ _____    ______ ____
ROOT
ATOM      1  C   LIG    1        3.681   3.844   9.804  0.00  0.00    -0.790 A 
ATOM      2  C   LIG    1        2.578   3.543   9.030  0.00  0.00    +0.440 A 
ATOM      3  N   LIG    1        2.700   3.312   7.737  0.00  0.00    -0.530 NA
ATOM      4  C   LIG    1        3.878   3.346   7.134  0.00  0.00    +0.470 A 
ATOM      5  C   LIG    1        5.033   3.643   7.852  0.00  0.00    -0.180 A 
ATOM      6 CL   LIG    1        6.575   3.695   7.057  0.00  0.00    -0.040 Cl
ATOM      7  C   LIG    1        4.935   3.896   9.209  0.00  0.00    +0.240 A 
ENDROOT
BRANCH   1   8
ATOM      8  S   LIG    1        3.500   4.157  11.528  0.00  0.00    +2.710 S 
ATOM      9  O   LIG    1        4.762   3.883  12.120  0.00  0.00    -0.940 OA
ATOM     10  O   LIG    1        2.297   3.514  11.929  0.00  0.00    -0.950 OA
BRANCH   8  11
ATOM     11  N   LIG    1        3.243   5.783  11.706  0.00  0.00    -1.120 NA
ATOM     12  H   LIG    1        3.897   6.330  12.169  0.00  0.00    +0.420 HD
BRANCH  11  13
ATOM     13  C   LIG    1        2.027   6.396  11.165  0.00  0.00    +0.290 C 
BRANCH  13  14
ATOM     14  C   LIG    1        1.846   7.790  11.771  0.00  0.00    +0.040 C 
BRANCH  14  15
ATOM     15  C   LIG    1        0.576   8.430  11.206  0.00  0.00    +0.270 C 
BRANCH  15  16
ATOM     16  N   LIG    1        0.402   9.768  11.787  0.00  0.00    -0.390 N 
ATOM     17  C   LIG    1        0.167   9.648  13.232  0.00  0.00    +0.320 C 
ATOM     18  H   LIG    1        1.234  10.315  11.626  0.00  0.00    +0.430 HD
BRANCH  16  19
ATOM     19  C   LIG    1       -0.748  10.430  11.157  0.00  0.00    +0.280 C 
BRANCH  19  20
ATOM     20  C   LIG    1       -0.855  11.867  11.671  0.00  0.00    +0.210 C 
BRANCH  20  22
ATOM     21  C   LIG    1        0.289  13.973  11.675  0.00  0.00    +0.240 C 
ATOM     22  O   LIG    1        0.289  12.611  11.245  0.00  0.00    -0.400 OA
ENDBRANCH  20  22
ENDBRANCH  19  20
ENDBRANCH  16  19
ENDBRANCH  15  16
ENDBRANCH  14  15
ENDBRANCH  13  14
ENDBRANCH  11  13
ENDBRANCH   8  11
ENDBRANCH   1   8
BRANCH   4  23
ATOM     23  N   LIG    1        3.961   3.090   5.769  0.00  0.00    -0.690 N 
ATOM     24  H   LIG    1        4.822   3.118   5.322  0.00  0.00    +0.420 HD
BRANCH  23  25
ATOM     25  C   LIG    1        2.750   2.777   5.007  0.00  0.00    +0.250 C 
ATOM     26  C   LIG    1        2.963   3.144   3.536  0.00  0.00    +0.040 C 
ATOM     27  C   LIG    1        1.627   3.055   2.788  0.00  0.00    +0.130 C 
ATOM     28  C   LIG    1        0.991   1.728   3.108  0.00  0.00    -0.040 A 
ATOM     29  C   LIG    1        1.352   0.937   4.141  0.00  0.00    +0.020 A 
ATOM     30  N   LIG    1        0.581  -0.153   4.116  0.00  0.00    -0.480 NA
ATOM     31  C   LIG    1       -0.251  -0.067   3.110  0.00  0.00    +0.210 A 
ATOM     32  C   LIG    1       -1.292  -1.092   2.741  0.00  0.00    +0.170 C 
ATOM     33  N   LIG    1       -0.020   1.094   2.454  0.00  0.00    -0.440 N 
ATOM     34  C   LIG    1        2.446   1.278   5.123  0.00  0.00    +0.130 C 
BRANCH  33  35
ATOM     35  C   LIG    1       -0.729   1.579   1.267  0.00  0.00    +0.300 C 
BRANCH  35  36
ATOM     36  C   LIG    1       -0.013   1.086   0.008  0.00  0.00    +0.170 C 
BRANCH  36  37
ATOM     37  O   LIG    1       -0.704   1.559  -1.150  0.00  0.00    -0.570 OA
ATOM     38  H   LIG    1       -0.304   1.284  -1.986  0.00  0.00    +0.390 HD
ENDBRANCH  36  37
ENDBRANCH  35  36
ENDBRANCH  33  35
ENDBRANCH  23  25
ENDBRANCH   4  23
TORSDOF 14
