REMARK  Name = ZINCyk0000000aAH.0
REMARK                            x       y       z     vdW  Elec       q    Type
REMARK                         _______ _______ _______ _____ _____    ______ ____
ROOT
ATOM      1  C   LIG    1        3.782   4.389   9.007  0.00  0.00    -0.790 A 
ATOM      2  C   LIG    1        2.672   4.178   8.214  0.00  0.00    +0.440 A 
ATOM      3  N   LIG    1        2.774   4.149   6.899  0.00  0.00    -0.530 NA
ATOM      4  C   LIG    1        3.939   4.308   6.289  0.00  0.00    +0.470 A 
ATOM      5  C   LIG    1        5.100   4.525   7.026  0.00  0.00    -0.180 A 
ATOM      6 CL   LIG    1        6.624   4.741   6.224  0.00  0.00    -0.040 Cl
ATOM      7  C   LIG    1        5.022   4.566   8.407  0.00  0.00    +0.240 A 
ENDROOT
BRANCH   1   8
ATOM      8  S   LIG    1        3.627   4.432  10.761  0.00  0.00    +2.710 S 
ATOM      9  O   LIG    1        4.908   4.107  11.285  0.00  0.00    -0.940 OA
ATOM     10  O   LIG    1        2.450   3.702  11.079  0.00  0.00    -0.950 OA
BRANCH   8  11
ATOM     11  N   LIG    1        3.332   6.004  11.189  0.00  0.00    -1.120 NA
ATOM     12  H   LIG    1        3.981   6.493  11.719  0.00  0.00    +0.420 HD
BRANCH  11  13
ATOM     13  C   LIG    1        2.090   6.657  10.767  0.00  0.00    +0.290 C 
BRANCH  13  14
ATOM     14  C   LIG    1        1.885   7.937  11.580  0.00  0.00    +0.040 C 
BRANCH  14  15
ATOM     15  C   LIG    1        0.589   8.619  11.139  0.00  0.00    +0.250 C 
BRANCH  15  16
ATOM     16  N   LIG    1        0.392   9.848  11.920  0.00  0.00    -0.390 N 
ATOM     17  C   LIG    1        1.461  10.805  11.604  0.00  0.00    +0.330 C 
ATOM     18  H   LIG    1        0.417   9.629  12.905  0.00  0.00    +0.430 HD
BRANCH  16  19
ATOM     19  C   LIG    1       -0.910  10.439  11.583  0.00  0.00    +0.280 C 
BRANCH  19  20
ATOM     20  C   LIG    1       -2.030   9.508  12.052  0.00  0.00    +0.200 C 
BRANCH  20  22
ATOM     21  C   LIG    1       -3.002   8.547  14.021  0.00  0.00    +0.240 C 
ATOM     22  O   LIG    1       -1.992   9.398  13.477  0.00  0.00    -0.400 OA
ENDBRANCH  20  22
ENDBRANCH  19  20
ENDBRANCH  16  19
ENDBRANCH  15  16
ENDBRANCH  14  15
ENDBRANCH  13  14
ENDBRANCH  11  13
ENDBRANCH   8  11
ENDBRANCH   1   8
BRANCH   4  23
ATOM     23  N   LIG    1        4.002   4.264   4.901  0.00  0.00    -0.690 N 
ATOM     24  H   LIG    1        4.852   4.384   4.450  0.00  0.00    +0.420 HD
BRANCH  23  25
ATOM     25  C   LIG    1        2.784   4.036   4.119  0.00  0.00    +0.250 C 
ATOM     26  C   LIG    1        2.958   4.628   2.718  0.00  0.00    +0.040 C 
ATOM     27  C   LIG    1        1.610   4.615   1.986  0.00  0.00    +0.130 C 
ATOM     28  C   LIG    1        1.015   3.237   2.111  0.00  0.00    -0.040 A 
ATOM     29  C   LIG    1        1.417   2.309   3.006  0.00  0.00    +0.020 A 
ATOM     30  N   LIG    1        0.673   1.214   2.826  0.00  0.00    -0.480 NA
ATOM     31  C   LIG    1       -0.180   1.429   1.859  0.00  0.00    +0.210 A 
ATOM     32  C   LIG    1       -1.202   0.442   1.355  0.00  0.00    +0.170 C 
ATOM     33  N   LIG    1        0.007   2.682   1.383  0.00  0.00    -0.440 N 
ATOM     34  C   LIG    1        2.521   2.529   4.010  0.00  0.00    +0.130 C 
BRANCH  33  35
ATOM     35  C   LIG    1       -0.737   3.321   0.295  0.00  0.00    +0.300 C 
BRANCH  35  36
ATOM     36  C   LIG    1       -0.034   3.045  -1.035  0.00  0.00    +0.170 C 
BRANCH  36  37
ATOM     37  O   LIG    1       -0.759   3.668  -2.096  0.00  0.00    -0.570 OA
ATOM     38  H   LIG    1       -0.370   3.535  -2.971  0.00  0.00    +0.390 HD
ENDBRANCH  36  37
ENDBRANCH  35  36
ENDBRANCH  33  35
ENDBRANCH  23  25
ENDBRANCH   4  23
TORSDOF 14
