REMARK  Name = ZINCkj000005iFNu.0
REMARK                            x       y       z     vdW  Elec       q    Type
REMARK                         _______ _______ _______ _____ _____    ______ ____
ROOT
ATOM      1  N   LIG    1        1.234  -2.082  -0.021  0.00  0.00    -0.660 N 
ATOM      2  H   LIG    1        2.077  -2.553  -0.112  0.00  0.00    +0.410 HD
ATOM      3  C   LIG    1        0.083  -2.774   0.089  0.00  0.00    +0.520 C 
ATOM      4  O   LIG    1       -0.979  -2.187   0.102  0.00  0.00    -0.500 OA
ENDROOT
BRANCH   1  11
ATOM      5  C   LIG    1        2.241   0.041  -0.607  0.00  0.00    +0.090 A 
ATOM      6  C   LIG    1        2.216   1.426  -0.585  0.00  0.00    -0.050 A 
ATOM      7  C   LIG    1        1.173   2.089   0.036  0.00  0.00    +0.040 A 
ATOM      8  C   LIG    1        0.153   1.373   0.636  0.00  0.00    -0.100 A 
ATOM      9  C   LIG    1        0.171  -0.009   0.619  0.00  0.00    +0.050 A 
ATOM     10  C   LIG    1       -0.983   2.102   1.305  0.00  0.00    +0.100 C 
ATOM     11  C   LIG    1        1.214  -0.681  -0.002  0.00  0.00    +0.120 A 
BRANCH   5  13
ATOM     12  C   LIG    1        4.284   0.192  -1.815  0.00  0.00    +0.250 C 
ATOM     13  O   LIG    1        3.266  -0.613  -1.216  0.00  0.00    -0.320 OA
ENDBRANCH   5  13
ENDBRANCH   1  11
BRANCH   3  14
ATOM     14  C   LIG    1        0.115  -4.277   0.195  0.00  0.00    +0.140 C 
ATOM     15  C   LIG    1        0.882  -4.698   1.461  0.00  0.00    +0.050 C 
ATOM     16  C   LIG    1       -0.131  -5.514   2.296  0.00  0.00    +0.050 C 
ATOM     17  C   LIG    1       -1.163  -5.974   1.235  0.00  0.00    +0.170 C 
ATOM     18  N   LIG    1       -1.262  -4.802   0.327  0.00  0.00    -0.480 NA
BRANCH  18  19
ATOM     19  C   LIG    1       -1.804  -5.193  -0.981  0.00  0.00    +0.180 C 
BRANCH  19  20
ATOM     20  C   LIG    1       -3.116  -5.955  -0.781  0.00  0.00    +0.270 C 
BRANCH  20  21
ATOM     21  N   LIG    1       -3.658  -6.347  -2.089  0.00  0.00    -0.630 N 
ATOM     22  H   LIG    1       -3.830  -5.521  -2.643  0.00  0.00    +0.440 HD
ATOM     23  H   LIG    1       -4.524  -6.849  -1.958  0.00  0.00    +0.440 HD
ATOM     24  H   LIG    1       -2.994  -6.939  -2.565  0.00  0.00    +0.430 HD
ENDBRANCH  20  21
ENDBRANCH  19  20
ENDBRANCH  18  19
ENDBRANCH   3  14
TORSDOF 6
