REMARK  Name = ZINCvU0000000A7O.0
REMARK                            x       y       z     vdW  Elec       q    Type
REMARK                         _______ _______ _______ _____ _____    ______ ____
ROOT
ATOM      1  C   LIG    1       -2.057   2.913  -2.183  0.00  0.00    +0.040 C 
ATOM      2  C   LIG    1       -1.957   2.803  -0.661  0.00  0.00    +0.280 C 
ENDROOT
BRANCH   2   3
ATOM      3  C   LIG    1       -3.261   3.232  -0.039  0.00  0.00    -0.090 A 
ATOM      4  C   LIG    1       -4.330   2.355  -0.004  0.00  0.00    +0.010 A 
ATOM      5  C   LIG    1       -5.525   2.741   0.568  0.00  0.00    +0.030 A 
ATOM      6  C   LIG    1       -5.657   4.021   1.101  0.00  0.00    -0.050 A 
ATOM      7  C   LIG    1       -4.579   4.903   1.059  0.00  0.00    +0.030 A 
ATOM      8  C   LIG    1       -3.386   4.504   0.489  0.00  0.00    +0.030 A 
BRANCH   6   9
ATOM      9  C   LIG    1       -6.941   4.444   1.713  0.00  0.00    -0.040 A 
ATOM     10  C   LIG    1       -7.071   5.725   2.247  0.00  0.00    +0.050 A 
ATOM     11  C   LIG    1       -8.266   6.122   2.817  0.00  0.00    +0.030 A 
ATOM     12  C   LIG    1       -9.338   5.254   2.862  0.00  0.00    +0.070 A 
ATOM     13  C   LIG    1       -9.220   3.968   2.330  0.00  0.00    -0.020 A 
ATOM     14  C   LIG    1       -8.018   3.565   1.750  0.00  0.00    +0.080 A 
BRANCH  13  15
ATOM     15  C   LIG    1      -10.333   3.067   2.376  0.00  0.00    +0.250 C 
ATOM     16  N   LIG    1      -11.215   2.353   2.412  0.00  0.00    -0.410 NA
ENDBRANCH  13  15
ENDBRANCH   6   9
ENDBRANCH   2   3
BRANCH   2  17
ATOM     17  N   LIG    1       -1.673   1.414  -0.289  0.00  0.00    -0.730 N 
ATOM     18  H   LIG    1       -2.400   0.817  -0.053  0.00  0.00    +0.400 HD
ATOM     19  C   LIG    1       -0.401   0.967  -0.276  0.00  0.00    +0.520 C 
ATOM     20  O   LIG    1        0.507   1.713  -0.576  0.00  0.00    -0.530 OA
BRANCH  19  21
ATOM     21  C   LIG    1       -0.109  -0.461   0.107  0.00  0.00    +0.110 C 
BRANCH  21  22
ATOM     22  C   LIG    1        1.376  -0.706   0.036  0.00  0.00    -0.080 A 
ATOM     23  C   LIG    1        1.952  -1.123  -1.148  0.00  0.00    +0.030 A 
ATOM     24  C   LIG    1        3.316  -1.343  -1.215  0.00  0.00    -0.020 A 
ATOM     25  C   LIG    1        4.106  -1.157  -0.095  0.00  0.00    +0.020 A 
ATOM     26  C   LIG    1        3.535  -0.746   1.094  0.00  0.00    -0.040 A 
ATOM     27  C   LIG    1        2.167  -0.518   1.163  0.00  0.00    +0.110 A 
BRANCH  27  28
ATOM     28  N   LIG    1        1.586  -0.102   2.364  0.00  0.00    -0.470 N 
ATOM     29  C   LIG    1        2.596  -0.046   3.451  0.00  0.00    +0.180 C 
ATOM     30  C   LIG    1        1.942   0.895   4.494  0.00  0.00    +0.040 C 
ATOM     31  C   LIG    1        1.236   1.951   3.611  0.00  0.00    +0.010 C 
ATOM     32  C   LIG    1        1.045   1.269   2.244  0.00  0.00    +0.190 C 
ENDBRANCH  27  28
ENDBRANCH  21  22
ENDBRANCH  19  21
ENDBRANCH   2  17
TORSDOF 7
