REMARK  Name = ZINCpe000000YloF.0
REMARK                            x       y       z     vdW  Elec       q    Type
REMARK                         _______ _______ _______ _____ _____    ______ ____
ROOT
ATOM      1  C   LIG    1       -3.502   3.214   1.139  0.00  0.00    +0.230 C 
ATOM      2  C   LIG    1       -3.177   1.727   1.296  0.00  0.00    +0.040 C 
ATOM      3  C   LIG    1       -2.267   1.283   0.146  0.00  0.00    +0.310 C 
ATOM      4  N   LIG    1       -1.087   2.159   0.111  0.00  0.00    -0.640 N 
ATOM      5  C   LIG    1       -1.288   3.613   0.058  0.00  0.00    +0.290 C 
ATOM      6  C   LIG    1       -2.209   4.030   1.204  0.00  0.00    +0.040 C 
ENDROOT
BRANCH   4   7
ATOM      7  C   LIG    1        0.182   1.626   0.134  0.00  0.00    +0.470 A 
ATOM      8  C   LIG    1        0.619   0.804  -0.887  0.00  0.00    -0.230 A 
ATOM      9  C   LIG    1       -0.075   0.328  -2.142  0.00  0.00    +0.120 C 
ATOM     10  C   LIG    1        1.056  -0.182  -3.061  0.00  0.00    +0.050 C 
ATOM     11  C   LIG    1        2.151  -0.587  -2.051  0.00  0.00    +0.140 C 
ATOM     12  C   LIG    1        1.906   0.275  -0.831  0.00  0.00    +0.240 A 
ATOM     13  N   LIG    1        2.694   0.562   0.188  0.00  0.00    -0.470 NA
ATOM     14  C   LIG    1        2.286   1.357   1.183  0.00  0.00    +0.460 A 
ATOM     15  N   LIG    1        2.882   1.782   2.292  0.00  0.00    -0.530 NA
ATOM     16  C   LIG    1        2.055   2.566   2.973  0.00  0.00    +0.480 A 
ATOM     17  N   LIG    1        0.917   2.668   2.332  0.00  0.00    -0.330 NA
ATOM     18  N   LIG    1        1.031   1.897   1.168  0.00  0.00    -0.340 N 
ENDBRANCH   4   7
BRANCH   1  24
ATOM     19  C   LIG    1       -6.418   2.266   1.587  0.00  0.00    +0.320 C 
ATOM     20  N   LIG    1       -5.694   3.221   2.429  0.00  0.00    -0.450 N 
ATOM     21  C   LIG    1       -6.176   3.848   3.547  0.00  0.00    +0.130 A 
ATOM     22  C   LIG    1       -5.189   4.640   4.006  0.00  0.00    +0.140 A 
ATOM     23  N   LIG    1       -4.130   4.497   3.195  0.00  0.00    -0.470 NA
ATOM     24  C   LIG    1       -4.424   3.646   2.250  0.00  0.00    +0.170 A 
ENDBRANCH   1  24
BRANCH   1  25
ATOM     25  O   LIG    1       -4.140   3.432  -0.121  0.00  0.00    -0.550 OA
ATOM     26  H   LIG    1       -4.375   4.355  -0.288  0.00  0.00    +0.380 HD
ENDBRANCH   1  25
TORSDOF 3
