REMARK  Name = ZINCpk000000oLmH.0
REMARK                            x       y       z     vdW  Elec       q    Type
REMARK                         _______ _______ _______ _____ _____    ______ ____
ROOT
ATOM      1  C   LIG    1        0.392  -2.900   2.137  0.00  0.00    +0.530 C 
ATOM      2  N   LIG    1        1.355  -2.441   2.960  0.00  0.00    -0.610 N 
ATOM      3  C   LIG    1        2.605  -1.890   2.416  0.00  0.00    +0.270 C 
ATOM      4  C   LIG    1        2.796  -0.471   2.979  0.00  0.00    +0.270 C 
ATOM      5  N   LIG    1        2.618  -0.518   4.437  0.00  0.00    -0.610 N 
ATOM      6  C   LIG    1        1.371  -1.073   4.981  0.00  0.00    +0.290 C 
ATOM      7  C   LIG    1        3.581  -0.059   5.260  0.00  0.00    +0.570 C 
ATOM      8  O   LIG    1        3.394  -0.037   6.461  0.00  0.00    -0.520 OA
ATOM      9  C   LIG    1        1.177  -2.487   4.418  0.00  0.00    +0.290 C 
ATOM     10  O   LIG    1       -0.632  -3.356   2.598  0.00  0.00    -0.530 OA
ENDROOT
BRANCH   7  11
ATOM     11  C   LIG    1        4.864   0.419   4.703  0.00  0.00    -0.120 A 
ATOM     12  C   LIG    1        6.071  -0.073   5.203  0.00  0.00    +0.070 A 
ATOM     13  C   LIG    1        7.266   0.376   4.678  0.00  0.00    +0.040 A 
ATOM     14  C   LIG    1        7.270   1.311   3.659  0.00  0.00    +0.050 A 
ATOM     15  C   LIG    1        6.076   1.803   3.158  0.00  0.00    -0.040 A 
ATOM     16 CL   LIG    1        6.092   2.977   1.879  0.00  0.00    -0.060 Cl
ATOM     17  C   LIG    1        4.874   1.358   3.671  0.00  0.00    +0.050 A 
ENDBRANCH   7  11
BRANCH   1  20
ATOM     18  N   LIG    1        0.058  -4.221  -1.251  0.00  0.00    -0.620 N 
ATOM     19  C   LIG    1       -0.566  -3.564  -0.096  0.00  0.00    +0.300 C 
ATOM     20  C   LIG    1        0.589  -2.846   0.644  0.00  0.00    -0.010 C 
ATOM     21  C   LIG    1        1.809  -3.694   0.215  0.00  0.00    +0.070 C 
ATOM     22  C   LIG    1        1.390  -4.312  -1.101  0.00  0.00    +0.520 C 
ATOM     23  O   LIG    1        2.147  -4.818  -1.902  0.00  0.00    -0.520 OA
BRANCH  18  25
ATOM     24  C   LIG    1       -1.094  -6.168  -2.181  0.00  0.00    +0.020 C 
ATOM     25  C   LIG    1       -0.678  -4.715  -2.418  0.00  0.00    +0.280 C 
ENDBRANCH  18  25
ENDBRANCH   1  20
TORSDOF 3
