REMARK  Name = ZINCkj000005i6W2.0
REMARK                            x       y       z     vdW  Elec       q    Type
REMARK                         _______ _______ _______ _____ _____    ______ ____
ROOT
ATOM      1  C   LIG    1        0.538  -2.722  -2.287  0.00  0.00    +0.500 C 
ATOM      2  N   LIG    1        0.771  -1.973  -1.192  0.00  0.00    -0.530 N 
ATOM      3  C   LIG    1        0.719  -0.502  -1.248  0.00  0.00    +0.280 C 
ATOM      4  C   LIG    1       -0.009  -0.015   0.012  0.00  0.00    +0.160 C 
ATOM      5  O   LIG    1        0.696  -0.486   1.163  0.00  0.00    -0.300 OA
ATOM      6  C   LIG    1        1.024  -1.804   1.209  0.00  0.00    +0.120 A 
ATOM      7  C   LIG    1        1.316  -2.396   2.429  0.00  0.00    +0.010 A 
ATOM      8  C   LIG    1        1.653  -3.736   2.484  0.00  0.00    -0.050 A 
ATOM      9  C   LIG    1        1.702  -4.492   1.328  0.00  0.00    +0.000 A 
ATOM     10  C   LIG    1        1.411  -3.910   0.107  0.00  0.00    +0.070 A 
ATOM     11  C   LIG    1        1.970  -4.375   3.812  0.00  0.00    +0.100 C 
ATOM     12  C   LIG    1       -0.046   1.515   0.024  0.00  0.00    +0.090 C 
ATOM     13  C   LIG    1        1.071  -2.568   0.046  0.00  0.00    +0.040 A 
ATOM     14  O   LIG    1        0.661  -3.928  -2.235  0.00  0.00    -0.510 OA
ENDROOT
BRANCH   1  15
ATOM     15  C   LIG    1        0.126  -2.062  -3.578  0.00  0.00    +0.300 C 
BRANCH  15  16
ATOM     16  N   LIG    1       -0.181  -3.093  -4.579  0.00  0.00    -0.500 N 
ATOM     17  H   LIG    1       -0.934  -3.674  -4.243  0.00  0.00    +0.440 HD
ATOM     18  H   LIG    1        0.638  -3.661  -4.738  0.00  0.00    +0.440 HD
BRANCH  16  19
ATOM     19  C   LIG    1       -0.583  -2.449  -5.837  0.00  0.00    +0.290 C 
BRANCH  19  20
ATOM     20  C   LIG    1       -0.902  -3.522  -6.879  0.00  0.00    +0.210 C 
BRANCH  20  22
ATOM     21  C   LIG    1       -2.427  -5.306  -7.365  0.00  0.00    +0.240 C 
ATOM     22  O   LIG    1       -2.043  -4.272  -6.457  0.00  0.00    -0.400 OA
ENDBRANCH  20  22
ENDBRANCH  19  20
ENDBRANCH  16  19
ENDBRANCH  15  16
ENDBRANCH   1  15
TORSDOF 5
