REMARK  Name = ZINCqH0000037ArF.0
REMARK                            x       y       z     vdW  Elec       q    Type
REMARK                         _______ _______ _______ _____ _____    ______ ____
ROOT
ATOM      1  C   LIG    1       -3.170  -2.006  -0.224  0.00  0.00    +0.610 C 
ATOM      2  N   LIG    1       -1.886  -1.686  -0.477  0.00  0.00    -0.630 N 
ATOM      3  H   LIG    1       -1.221  -2.386  -0.572  0.00  0.00    +0.440 HD
ATOM      4  O   LIG    1       -4.003  -1.128  -0.104  0.00  0.00    -0.520 OA
ENDROOT
BRANCH   2   5
ATOM      5  C   LIG    1       -1.520  -0.376  -0.599  0.00  0.00    +0.470 A 
ATOM      6  C   LIG    1       -0.218   0.095  -0.861  0.00  0.00    -0.280 A 
ATOM      7  C   LIG    1        1.012  -0.555  -1.064  0.00  0.00    +0.110 A 
ATOM      8  C   LIG    1        2.134   0.172  -1.304  0.00  0.00    -0.100 A 
ATOM      9  C   LIG    1        2.076   1.577  -1.351  0.00  0.00    +0.410 A 
ATOM     10  C   LIG    1        0.857   2.239  -1.151  0.00  0.00    -0.230 A 
ATOM     11  O   LIG    1        3.094   2.224  -1.569  0.00  0.00    -0.550 OA
ATOM     12  C   LIG    1       -0.285   1.508  -0.907  0.00  0.00    +0.260 A 
ATOM     13  N   LIG    1       -1.603   1.862  -0.671  0.00  0.00    -0.500 N 
ATOM     14  H   LIG    1       -1.953   2.767  -0.642  0.00  0.00    +0.460 HD
ATOM     15  N   LIG    1       -2.344   0.688  -0.489  0.00  0.00    -0.440 N 
ATOM     16  H   LIG    1       -3.296   0.646  -0.309  0.00  0.00    +0.460 HD
ENDBRANCH   2   5
BRANCH   1  19
ATOM     17  C   LIG    1       -6.075  -3.062   0.376  0.00  0.00    +0.180 C 
ATOM     18  C   LIG    1       -4.835  -3.894   0.171  0.00  0.00    +0.190 A 
ATOM     19  C   LIG    1       -3.565  -3.418  -0.092  0.00  0.00    -0.310 A 
ATOM     20  C   LIG    1       -2.714  -4.542  -0.205  0.00  0.00    +0.300 A 
ATOM     21  N   LIG    1       -3.435  -5.615  -0.026  0.00  0.00    -0.270 NA
ATOM     22  N   LIG    1       -4.762  -5.237   0.206  0.00  0.00    -0.310 N 
BRANCH  22  23
ATOM     23  C   LIG    1       -5.833  -6.109   0.441  0.00  0.00    +0.140 A 
ATOM     24  C   LIG    1       -7.064  -5.877  -0.158  0.00  0.00    +0.040 A 
ATOM     25  C   LIG    1       -8.118  -6.739   0.075  0.00  0.00    +0.060 A 
ATOM     26  C   LIG    1       -7.949  -7.832   0.904  0.00  0.00    +0.070 A 
ATOM     27  C   LIG    1       -6.723  -8.067   1.502  0.00  0.00    -0.080 A 
ATOM     28 BR   LIG    1       -6.497  -9.564   2.635  0.00  0.00    -0.030 Br
ATOM     29  C   LIG    1       -5.664  -7.212   1.268  0.00  0.00    +0.080 A 
ENDBRANCH  22  23
ENDBRANCH   1  19
TORSDOF 3
