REMARK  Name = ZINCqH0000051aZS.0
REMARK                            x       y       z     vdW  Elec       q    Type
REMARK                         _______ _______ _______ _____ _____    ______ ____
ROOT
ATOM      1  C   LIG    1       -4.870   0.855   0.030  0.00  0.00    +0.250 C 
ENDROOT
BRANCH   1   3
ATOM      2  O   LIG    1       -5.934   2.961   0.046  0.00  0.00    -0.510 OA
ATOM      3  C   LIG    1       -6.077   1.757   0.040  0.00  0.00    +0.520 C 
ATOM      4  N   LIG    1       -7.316   1.226   0.043  0.00  0.00    -0.730 N 
ATOM      5  H   LIG    1       -7.430   0.263   0.038  0.00  0.00    +0.400 HD
BRANCH   4   6
ATOM      6  C   LIG    1       -8.489   2.103   0.053  0.00  0.00    +0.260 C 
BRANCH   6   7
ATOM      7  C   LIG    1       -9.761   1.253   0.055  0.00  0.00    +0.010 C 
BRANCH   7   8
ATOM      8  C   LIG    1      -10.986   2.169   0.066  0.00  0.00    +0.080 C 
BRANCH   8   9
ATOM      9  C   LIG    1      -12.240   1.332   0.067  0.00  0.00    -0.080 A 
ATOM     10  C   LIG    1      -12.823   0.959  -1.130  0.00  0.00    +0.000 A 
ATOM     11  C   LIG    1      -13.970   0.187  -1.129  0.00  0.00    +0.000 A 
ATOM     12  C   LIG    1      -14.539  -0.203   0.069  0.00  0.00    +0.000 A 
ATOM     13  C   LIG    1      -13.958   0.174   1.266  0.00  0.00    +0.000 A 
ATOM     14  C   LIG    1      -12.809   0.941   1.264  0.00  0.00    +0.000 A 
ENDBRANCH   8   9
ENDBRANCH   7   8
ENDBRANCH   6   7
ENDBRANCH   4   6
ENDBRANCH   1   3
BRANCH   1  15
ATOM     15  O   LIG    1       -3.663   1.661   0.028  0.00  0.00    -0.330 OA
BRANCH  15  16
ATOM     16  C   LIG    1       -2.487   1.003   0.019  0.00  0.00    +0.510 C 
ATOM     17  O   LIG    1       -2.471  -0.212   0.013  0.00  0.00    -0.500 OA
BRANCH  16  18
ATOM     18  C   LIG    1       -1.218   1.758   0.017  0.00  0.00    -0.120 A 
ATOM     19  C   LIG    1       -0.013   1.076   0.008  0.00  0.00    +0.130 A 
ATOM     20  C   LIG    1        1.189   1.800   0.000  0.00  0.00    -0.070 A 
ATOM     21  C   LIG    1        2.433   1.143  -0.016  0.00  0.00    +0.040 A 
ATOM     22  C   LIG    1        3.581   1.875  -0.023  0.00  0.00    +0.010 A 
ATOM     23  C   LIG    1        3.543   3.268  -0.015  0.00  0.00    +0.030 A 
ATOM     24  C   LIG    1        2.357   3.937   0.001  0.00  0.00    +0.020 A 
ATOM     25  C   LIG    1        1.151   3.217   0.009  0.00  0.00    -0.020 A 
ATOM     26  C   LIG    1       -0.090   3.881   0.024  0.00  0.00    +0.030 A 
ATOM     27  C   LIG    1       -1.243   3.165   0.032  0.00  0.00    +0.070 A 
ENDBRANCH  16  18
ENDBRANCH  15  16
ENDBRANCH   1  15
TORSDOF 8
