REMARK  Name = ZINCrD00000l6jvl.0
REMARK                            x       y       z     vdW  Elec       q    Type
REMARK                         _______ _______ _______ _____ _____    ______ ____
ROOT
ATOM      1  O   LIG    1        4.185   1.716  -0.029  0.00  0.00    -0.430 OA
ATOM      2  C   LIG    1        3.571   0.670  -0.028  0.00  0.00    +0.440 C 
ENDROOT
BRANCH   2   3
ATOM      3  C   LIG    1        2.105   0.679  -0.014  0.00  0.00    -0.260 A 
ATOM      4  C   LIG    1        1.274  -0.430  -0.012  0.00  0.00    +0.280 A 
ATOM      5  N   LIG    1        0.002  -0.004   0.002  0.00  0.00    -0.530 N 
ATOM      6  H   LIG    1       -0.781  -0.576   0.007  0.00  0.00    +0.420 HD
ATOM      7  C   LIG    1       -0.017   1.374   0.010  0.00  0.00    -0.060 A 
ATOM      8  C   LIG    1        1.270   1.822  -0.000  0.00  0.00    +0.120 A 
BRANCH   7   9
ATOM      9  C   LIG    1       -1.219   2.217   0.020  0.00  0.00    +0.600 C 
ATOM     10  N   LIG    1       -2.441   1.648   0.024  0.00  0.00    -0.620 N 
ATOM     11  C   LIG    1       -2.713   0.203   0.011  0.00  0.00    +0.220 C 
ATOM     12  C   LIG    1       -4.246   0.026  -0.004  0.00  0.00    +0.040 C 
ATOM     13  C   LIG    1       -4.744   1.378  -0.579  0.00  0.00    +0.040 C 
ATOM     14  C   LIG    1       -3.725   2.371   0.034  0.00  0.00    +0.250 C 
ATOM     15  O   LIG    1       -1.113   3.429   0.026  0.00  0.00    -0.520 OA
ENDBRANCH   7   9
ENDBRANCH   2   3
BRANCH   2  16
ATOM     16  C   LIG    1        4.317  -0.640  -0.042  0.00  0.00    +0.060 C 
BRANCH  16  17
ATOM     17  S   LIG    1        6.102  -0.320  -0.058  0.00  0.00    -0.040 S 
BRANCH  17  18
ATOM     18  C   LIG    1        6.795  -1.940  -0.072  0.00  0.00    -0.090 A 
ATOM     19  C   LIG    1        5.963  -3.051  -0.070  0.00  0.00    +0.000 A 
ATOM     20  C   LIG    1        6.503  -4.324  -0.081  0.00  0.00    +0.050 A 
ATOM     21  C   LIG    1        7.878  -4.488  -0.094  0.00  0.00    +0.060 A 
ATOM     22  O   LIG    1        8.421  -5.741  -0.104  0.00  0.00    -0.320 OA
ATOM     23  C   LIG    1        9.095  -6.121  -1.305  0.00  0.00    +0.230 C 
ATOM     24  C   LIG    1       10.531  -5.620  -1.298  0.00  0.00    -0.010 C 
ATOM     25  C   LIG    1       10.615  -4.102  -1.310  0.00  0.00    +0.230 C 
ATOM     26  O   LIG    1       10.066  -3.555  -0.109  0.00  0.00    -0.320 OA
ATOM     27  C   LIG    1        8.713  -3.380  -0.097  0.00  0.00    +0.090 A 
ATOM     28  C   LIG    1        8.176  -2.104  -0.092  0.00  0.00    +0.040 A 
ENDBRANCH  17  18
ENDBRANCH  16  17
ENDBRANCH   2  16
TORSDOF 5
