REMARK  Name = ZINCpk00000xVxE8.0
REMARK                            x       y       z     vdW  Elec       q    Type
REMARK                         _______ _______ _______ _____ _____    ______ ____
ROOT
ATOM      1  C   LIG    1        2.536  -9.801   4.600  0.00  0.00    +0.240 C 
ATOM      2  C   LIG    1        3.950  -9.745   4.007  0.00  0.00    +0.310 C 
ATOM      3  N   LIG    1        3.619  -8.413   3.478  0.00  0.00    -0.670 N 
ATOM      4  C   LIG    1        4.018  -7.655   2.437  0.00  0.00    +0.740 C 
ATOM      5  N   LIG    1        3.480  -6.434   2.248  0.00  0.00    -0.740 N 
ATOM      6  H   LIG    1        2.806  -6.101   2.860  0.00  0.00    +0.400 HD
ATOM      7  O   LIG    1        4.863  -8.073   1.670  0.00  0.00    -0.580 OA
ATOM      8  C   LIG    1        2.665  -8.269   4.588  0.00  0.00    +0.260 C 
ENDROOT
BRANCH   1  11
ATOM      9  O   LIG    1        0.236 -10.976   5.375  0.00  0.00    -0.530 OA
ATOM     10  C   LIG    1        0.403 -10.900   4.176  0.00  0.00    +0.550 C 
ATOM     11  N   LIG    1        1.521 -10.330   3.685  0.00  0.00    -0.710 N 
ATOM     12  H   LIG    1        1.654 -10.269   2.726  0.00  0.00    +0.410 HD
BRANCH  10  13
ATOM     13  C   LIG    1       -0.641 -11.444   3.234  0.00  0.00    -0.070 C 
ATOM     14  C   LIG    1       -1.983 -10.711   3.168  0.00  0.00    +0.060 C 
ATOM     15  C   LIG    1       -1.889 -12.077   3.853  0.00  0.00    +0.070 C 
ENDBRANCH  10  13
ENDBRANCH   1  11
BRANCH   5  16
ATOM     16  C   LIG    1        3.914  -5.611   1.116  0.00  0.00    +0.280 C 
BRANCH  16  17
ATOM     17  C   LIG    1        3.154  -4.283   1.131  0.00  0.00    +0.040 C 
BRANCH  17  18
ATOM     18  C   LIG    1        3.607  -3.423  -0.050  0.00  0.00    +0.150 C 
BRANCH  18  19
ATOM     19  C   LIG    1        2.858  -2.115  -0.036  0.00  0.00    +0.290 A 
ATOM     20  N   LIG    1        1.562  -1.998  -0.023  0.00  0.00    -0.490 NA
ATOM     21  C   LIG    1        1.223  -0.684  -0.013  0.00  0.00    +0.050 A 
ATOM     22  C   LIG    1        0.002  -0.004   0.002  0.00  0.00    +0.070 A 
ATOM     23  C   LIG    1       -0.017   1.362   0.009  0.00  0.00    +0.000 A 
ATOM     24  C   LIG    1        1.167   2.086   0.002  0.00  0.00    +0.030 A 
ATOM     25  C   LIG    1        2.383   1.437  -0.014  0.00  0.00    +0.010 A 
ATOM     26  C   LIG    1        2.422   0.049  -0.021  0.00  0.00    +0.050 A 
ATOM     27  N   LIG    1        3.439  -0.884  -0.035  0.00  0.00    -0.600 N 
ATOM     28  H   LIG    1        4.391  -0.698  -0.043  0.00  0.00    +0.420 HD
ENDBRANCH  18  19
ENDBRANCH  17  18
ENDBRANCH  16  17
ENDBRANCH   5  16
TORSDOF 6
