REMARK  Name = ZINCpk000000nSVo.0
REMARK                            x       y       z     vdW  Elec       q    Type
REMARK                         _______ _______ _______ _____ _____    ______ ____
ROOT
ATOM      1  C   LIG    1        0.484   5.449  -1.033  0.00  0.00    +0.180 C 
ATOM      2  C   LIG    1        1.886   5.215  -1.599  0.00  0.00    +0.070 C 
ENDROOT
BRANCH   1   3
ATOM      3  N   LIG    1       -0.043   4.188  -0.494  0.00  0.00    -0.510 NA
ATOM      4  C   LIG    1       -1.464   4.319  -0.142  0.00  0.00    +0.190 C 
ATOM      5  C   LIG    1       -1.953   3.013   0.488  0.00  0.00    +0.220 C 
ATOM      6  N   LIG    1       -1.748   1.909  -0.459  0.00  0.00    -0.470 N 
ATOM      7  C   LIG    1       -0.328   1.777  -0.811  0.00  0.00    +0.210 C 
ATOM      8  C   LIG    1        0.162   3.084  -1.441  0.00  0.00    +0.200 C 
BRANCH   6   9
ATOM      9  C   LIG    1       -2.248   0.716   0.051  0.00  0.00    +0.270 A 
ATOM     10  C   LIG    1       -2.152  -0.457  -0.694  0.00  0.00    +0.210 A 
ATOM     11  N   LIG    1       -2.627  -1.587  -0.206  0.00  0.00    -0.420 NA
ATOM     12  C   LIG    1       -3.192  -1.607   0.990  0.00  0.00    +0.180 A 
ATOM     13  C   LIG    1       -3.288  -0.446   1.733  0.00  0.00    +0.250 A 
ATOM     14  N   LIG    1       -2.811   0.690   1.252  0.00  0.00    -0.480 NA
ENDBRANCH   6   9
ENDBRANCH   1   3
BRANCH   1  17
ATOM     15  N   LIG    1       -0.520   7.266  -2.378  0.00  0.00    -0.650 N 
ATOM     16  H   LIG    1       -0.005   7.897  -1.852  0.00  0.00    +0.410 HD
ATOM     17  C   LIG    1       -0.424   5.945  -2.129  0.00  0.00    +0.490 C 
ATOM     18  O   LIG    1       -1.067   5.155  -2.787  0.00  0.00    -0.490 OA
BRANCH  15  23
ATOM     19  N   LIG    1       -1.552   9.016  -3.748  0.00  0.00    -0.380 N 
ATOM     20  N   LIG    1       -2.469   9.039  -4.806  0.00  0.00    -0.280 NA
ATOM     21  C   LIG    1       -2.817   7.808  -5.078  0.00  0.00    +0.250 A 
ATOM     22  C   LIG    1       -2.131   6.955  -4.208  0.00  0.00    -0.110 A 
ATOM     23  C   LIG    1       -1.360   7.725  -3.392  0.00  0.00    +0.300 A 
BRANCH  19  25
ATOM     24  C   LIG    1       -0.105  10.938  -4.192  0.00  0.00    +0.050 C 
ATOM     25  C   LIG    1       -0.913  10.183  -3.135  0.00  0.00    +0.250 C 
ATOM     26  C   LIG    1       -1.988  11.108  -2.558  0.00  0.00    +0.050 C 
ENDBRANCH  19  25
ENDBRANCH  15  23
ENDBRANCH   1  17
TORSDOF 5
