REMARK  Name = ZINCpe00000gLIjC.0
REMARK                            x       y       z     vdW  Elec       q    Type
REMARK                         _______ _______ _______ _____ _____    ______ ____
ROOT
ATOM      1  N   LIG    1       -4.149  -1.768   3.937  0.00  0.00    -0.660 N 
ATOM      2  H   LIG    1       -4.721  -2.293   3.355  0.00  0.00    +0.410 HD
ATOM      3  C   LIG    1       -3.147  -1.035   3.413  0.00  0.00    +0.510 C 
ATOM      4  O   LIG    1       -2.432  -0.378   4.140  0.00  0.00    -0.440 OA
ENDROOT
BRANCH   1  10
ATOM      5  C   LIG    1       -5.404  -2.533   5.852  0.00  0.00    +0.060 A 
ATOM      6  C   LIG    1       -5.604  -2.525   7.227  0.00  0.00    +0.100 A 
ATOM      7  C   LIG    1       -4.757  -1.756   8.013  0.00  0.00    -0.040 A 
ATOM      8  C   LIG    1       -3.750  -1.028   7.412  0.00  0.00    +0.270 A 
ATOM      9  N   LIG    1       -3.578  -1.058   6.104  0.00  0.00    -0.460 NA
ATOM     10  C   LIG    1       -4.364  -1.771   5.315  0.00  0.00    +0.340 A 
BRANCH   5  13
ATOM     11  C   LIG    1       -8.327  -4.534   4.577  0.00  0.00    +0.110 C 
ATOM     12  C   LIG    1       -7.481  -3.612   5.416  0.00  0.00    +0.510 C 
ATOM     13  N   LIG    1       -6.233  -3.293   5.018  0.00  0.00    -0.670 N 
ATOM     14  H   LIG    1       -5.910  -3.590   4.153  0.00  0.00    +0.410 HD
ATOM     15  O   LIG    1       -7.921  -3.158   6.451  0.00  0.00    -0.520 OA
ENDBRANCH   5  13
ENDBRANCH   1  10
BRANCH   3  16
ATOM     16  C   LIG    1       -2.915  -1.031   1.924  0.00  0.00    +0.160 C 
ATOM     17  C   LIG    1       -2.414  -2.414   1.454  0.00  0.00    +0.020 C 
ATOM     18  C   LIG    1       -1.384  -2.086   0.350  0.00  0.00    +0.010 C 
ATOM     19  C   LIG    1       -1.384  -0.543   0.284  0.00  0.00    +0.150 C 
ATOM     20  O   LIG    1       -1.849  -0.117   1.584  0.00  0.00    -0.320 OA
BRANCH  19  21
ATOM     21  C   LIG    1        0.031  -0.021   0.028  0.00  0.00    +0.200 C 
BRANCH  21  22
ATOM     22  N   LIG    1        0.021   1.448   0.043  0.00  0.00    -0.530 NA
ATOM     23  C   LIG    1       -0.752   1.982  -1.087  0.00  0.00    +0.150 C 
ATOM     24  C   LIG    1       -0.786   3.510  -0.999  0.00  0.00    +0.220 C 
ATOM     25  O   LIG    1        0.553   4.012  -0.974  0.00  0.00    -0.390 OA
ATOM     26  C   LIG    1        1.335   3.512   0.115  0.00  0.00    +0.220 C 
ATOM     27  C   LIG    1        1.390   1.984   0.038  0.00  0.00    +0.150 C 
ENDBRANCH  21  22
ENDBRANCH  19  21
ENDBRANCH   3  16
TORSDOF 5
