REMARK  Name = ZINCpe00000MJJIo.0
REMARK                            x       y       z     vdW  Elec       q    Type
REMARK                         _______ _______ _______ _____ _____    ______ ____
ROOT
ATOM      1  C   LIG    1       -5.641   0.798   1.548  0.00  0.00    +0.540 C 
ATOM      2  N   LIG    1       -4.614   0.291   2.257  0.00  0.00    -0.600 N 
ATOM      3  C   LIG    1       -4.741  -1.006   2.937  0.00  0.00    +0.270 C 
ATOM      4  C   LIG    1       -4.371  -0.827   4.412  0.00  0.00    +0.030 C 
ATOM      5  C   LIG    1       -2.979  -0.199   4.513  0.00  0.00    +0.020 C 
ATOM      6  C   LIG    1       -2.990   1.179   3.847  0.00  0.00    +0.110 C 
ATOM      7  C   LIG    1       -3.345   1.024   2.365  0.00  0.00    +0.340 C 
ATOM      8  O   LIG    1       -5.552   1.903   1.056  0.00  0.00    -0.530 OA
ENDROOT
BRANCH   1   9
ATOM      9  C   LIG    1       -6.902  -0.008   1.366  0.00  0.00    -0.030 C 
ATOM     10  C   LIG    1       -7.819   0.695   0.360  0.00  0.00    +0.040 C 
ATOM     11  C   LIG    1       -8.231   2.058   0.926  0.00  0.00    +0.210 C 
ATOM     12  O   LIG    1       -8.874   1.875   2.189  0.00  0.00    -0.380 OA
ATOM     13  C   LIG    1       -8.048   1.264   3.182  0.00  0.00    +0.210 C 
ATOM     14  C   LIG    1       -7.630  -0.131   2.708  0.00  0.00    +0.030 C 
BRANCH   9  19
ATOM     15  C   LIG    1       -5.561  -5.277  -0.593  0.00  0.00    +0.090 C 
ATOM     16  C   LIG    1       -5.911  -3.903  -0.083  0.00  0.00    -0.080 A 
ATOM     17  C   LIG    1       -5.442  -2.781  -0.740  0.00  0.00    +0.010 A 
ATOM     18  C   LIG    1       -5.763  -1.520  -0.272  0.00  0.00    +0.020 A 
ATOM     19  C   LIG    1       -6.552  -1.382   0.855  0.00  0.00    -0.080 A 
ATOM     20  C   LIG    1       -7.016  -2.504   1.516  0.00  0.00    +0.010 A 
ATOM     21  C   LIG    1       -6.700  -3.764   1.044  0.00  0.00    +0.010 A 
ENDBRANCH   9  19
ENDBRANCH   1   9
BRANCH   6  22
ATOM     22  C   LIG    1       -1.628   1.811   3.975  0.00  0.00    +0.500 C 
ATOM     23  O   LIG    1       -0.822   1.701   3.075  0.00  0.00    -0.530 OA
ATOM     24  N   LIG    1       -1.305   2.498   5.089  0.00  0.00    -0.850 N 
ATOM     25  H   LIG    1       -0.427   2.901   5.172  0.00  0.00    +0.410 HD
ATOM     26  H   LIG    1       -1.950   2.586   5.808  0.00  0.00    +0.400 HD
ENDBRANCH   6  22
BRANCH   6  27
ATOM     27  O   LIG    1       -3.962   2.010   4.486  0.00  0.00    -0.530 OA
ATOM     28  H   LIG    1       -3.801   2.151   5.429  0.00  0.00    +0.370 HD
ENDBRANCH   6  27
TORSDOF 4
