REMARK  Name = ZINCpe00000MJKY2.0
REMARK                            x       y       z     vdW  Elec       q    Type
REMARK                         _______ _______ _______ _____ _____    ______ ____
ROOT
ATOM      1  C   LIG    1        1.578   3.413   0.014  0.00  0.00    +0.300 C 
ATOM      2  N   LIG    1        1.237   1.988   0.001  0.00  0.00    -0.620 N 
ATOM      3  C   LIG    1       -0.018   1.509   0.010  0.00  0.00    +0.520 C 
ATOM      4  C   LIG    1        0.002  -0.004   0.002  0.00  0.00    +0.050 C 
ATOM      5  C   LIG    1        1.450  -0.366   0.406  0.00  0.00    +0.270 C 
ATOM      6  O   LIG    1       -1.022   2.190   0.019  0.00  0.00    -0.520 OA
ATOM      7  C   LIG    1        2.223   0.901  -0.024  0.00  0.00    +0.280 C 
ENDROOT
BRANCH   7   8
ATOM      8  C   LIG    1        3.340   1.185   0.947  0.00  0.00    -0.160 A 
ATOM      9  C   LIG    1        4.643   0.821   0.643  0.00  0.00    +0.080 A 
ATOM     10  C   LIG    1        5.639   1.103   1.567  0.00  0.00    -0.030 A 
ATOM     11  C   LIG    1        5.302   1.732   2.750  0.00  0.00    +0.260 A 
ATOM     12  N   LIG    1        4.051   2.064   3.005  0.00  0.00    -0.480 NA
ATOM     13  C   LIG    1        3.079   1.817   2.148  0.00  0.00    +0.270 A 
ENDBRANCH   7   8
BRANCH   5  14
ATOM     14  N   LIG    1        1.921  -1.542  -0.330  0.00  0.00    -0.720 N 
ATOM     15  H   LIG    1        2.417  -1.431  -1.156  0.00  0.00    +0.400 HD
ATOM     16  C   LIG    1        1.666  -2.779   0.142  0.00  0.00    +0.600 C 
ATOM     17  O   LIG    1        1.045  -2.918   1.179  0.00  0.00    -0.520 OA
BRANCH  16  18
ATOM     18  C   LIG    1        2.138  -3.955  -0.594  0.00  0.00    -0.300 A 
ATOM     19  C   LIG    1        1.955  -5.302  -0.226  0.00  0.00    +0.330 A 
ATOM     20  N   LIG    1        1.339  -5.879   0.808  0.00  0.00    -0.450 NA
ATOM     21  C   LIG    1        1.300  -7.188   0.924  0.00  0.00    +0.380 A 
ATOM     22  C   LIG    1        1.904  -7.998  -0.044  0.00  0.00    -0.040 A 
ATOM     23  C   LIG    1        2.527  -7.418  -1.102  0.00  0.00    +0.360 A 
ATOM     24  N   LIG    1        2.550  -6.058  -1.195  0.00  0.00    -0.310 N 
ATOM     25  N   LIG    1        3.102  -5.192  -2.145  0.00  0.00    -0.310 NA
ATOM     26  C   LIG    1        2.864  -3.955  -1.798  0.00  0.00    +0.330 A 
ENDBRANCH  16  18
ENDBRANCH   5  14
TORSDOF 3
