REMARK  Name = ZINCpk00000eaQfb.0
REMARK                            x       y       z     vdW  Elec       q    Type
REMARK                         _______ _______ _______ _____ _____    ______ ____
ROOT
ATOM      1  C   LIG    1       -0.843   3.297   1.437  0.00  0.00    +0.520 C 
ATOM      2  N   LIG    1       -0.704   1.975   1.216  0.00  0.00    -0.730 N 
ATOM      3  H   LIG    1       -1.058   1.337   1.854  0.00  0.00    +0.400 HD
ATOM      4  O   LIG    1       -0.401   4.096   0.639  0.00  0.00    -0.530 OA
ENDROOT
BRANCH   1   5
ATOM      5  C   LIG    1       -1.548   3.783   2.677  0.00  0.00    +0.050 C 
BRANCH   5   6
ATOM      6  C   LIG    1       -1.569   5.313   2.686  0.00  0.00    +0.290 C 
BRANCH   6   8
ATOM      7  C   LIG    1       -2.394   7.108   4.113  0.00  0.00    +0.540 C 
ATOM      8  N   LIG    1       -2.255   5.786   3.891  0.00  0.00    -0.730 N 
ATOM      9  H   LIG    1       -2.609   5.147   4.529  0.00  0.00    +0.400 HD
ATOM     10  O   LIG    1       -1.952   7.906   3.314  0.00  0.00    -0.530 OA
BRANCH   7  14
ATOM     11  C   LIG    1       -4.497   9.631   6.213  0.00  0.00    +0.060 C 
ATOM     12  C   LIG    1       -3.223   9.106   5.548  0.00  0.00    +0.000 C 
ATOM     13  C   LIG    1       -2.254   8.299   6.416  0.00  0.00    +0.060 C 
ATOM     14  C   LIG    1       -3.099   7.594   5.353  0.00  0.00    -0.070 C 
ENDBRANCH   7  14
ENDBRANCH   6   8
ENDBRANCH   5   6
ENDBRANCH   1   5
BRANCH   2  15
ATOM     15  C   LIG    1       -0.018   1.503   0.010  0.00  0.00    +0.320 C 
BRANCH  15  16
ATOM     16  C   LIG    1        0.002  -0.004   0.002  0.00  0.00    -0.080 A 
ATOM     17  C   LIG    1        1.057  -0.684   0.582  0.00  0.00    +0.010 A 
ATOM     18  C   LIG    1        1.077  -2.067   0.582  0.00  0.00    +0.040 A 
ATOM     19  C   LIG    1        0.048  -2.773  -0.009  0.00  0.00    -0.020 A 
ATOM     20  C   LIG    1       -1.011  -2.093  -0.598  0.00  0.00    +0.180 A 
ATOM     21  C   LIG    1       -1.030  -0.705  -0.590  0.00  0.00    +0.030 A 
BRANCH  20  22
ATOM     22  N   LIG    1       -2.056  -2.806  -1.196  0.00  0.00    -0.570 N 
ATOM     23  C   LIG    1       -2.158  -4.271  -1.273  0.00  0.00    +0.260 C 
ATOM     24  C   LIG    1       -3.482  -4.508  -2.024  0.00  0.00    +0.260 C 
ATOM     25  O   LIG    1       -3.983  -3.166  -2.288  0.00  0.00    -0.320 OA
ATOM     26  C   LIG    1       -3.130  -2.265  -1.788  0.00  0.00    +0.640 C 
ATOM     27  O   LIG    1       -3.309  -1.066  -1.867  0.00  0.00    -0.500 OA
ENDBRANCH  20  22
ENDBRANCH  15  16
ENDBRANCH   2  15
TORSDOF 7
