REMARK  Name = ZINCpk00000kTPHQ.0
REMARK                            x       y       z     vdW  Elec       q    Type
REMARK                         _______ _______ _______ _____ _____    ______ ____
ROOT
ATOM      1  C   LIG    1       -1.187   1.624   0.017  0.00  0.00    +0.520 C 
ATOM      2  N   LIG    1       -0.011   0.966   0.007  0.00  0.00    -0.690 N 
ATOM      3  H   LIG    1        0.002  -0.004   0.002  0.00  0.00    +0.420 HD
ATOM      4  O   LIG    1       -1.204   2.837   0.023  0.00  0.00    -0.510 OA
ENDROOT
BRANCH   1   7
ATOM      5  N   LIG    1       -3.647   1.518   0.028  0.00  0.00    -0.600 N 
ATOM      6  H   LIG    1       -3.660   2.487   0.033  0.00  0.00    +0.430 HD
ATOM      7  C   LIG    1       -2.470   0.860   0.018  0.00  0.00    +0.510 C 
ATOM      8  O   LIG    1       -2.454  -0.354   0.012  0.00  0.00    -0.510 OA
BRANCH   5  12
ATOM      9  C   LIG    1       -6.889  -2.184   0.023  0.00  0.00    +0.380 C 
ATOM     10  N   LIG    1       -6.301  -0.842   0.027  0.00  0.00    -0.350 N 
ATOM     11  C   LIG    1       -4.980  -0.554   0.017  0.00  0.00    +0.270 A 
ATOM     12  C   LIG    1       -4.853   0.799   0.029  0.00  0.00    +0.010 A 
ATOM     13  C   LIG    1       -6.144   1.349   0.038  0.00  0.00    -0.010 A 
ATOM     14  N   LIG    1       -7.008   0.367   0.037  0.00  0.00    -0.240 NA
BRANCH  13  15
ATOM     15  C   LIG    1       -6.478   2.819   0.049  0.00  0.00    +0.490 C 
ATOM     16  F   LIG    1       -5.943   3.426  -1.093  0.00  0.00    -0.190 F 
ATOM     17  F   LIG    1       -5.933   3.413   1.192  0.00  0.00    -0.190 F 
ENDBRANCH  13  15
ENDBRANCH   5  12
ENDBRANCH   1   7
BRANCH   2  18
ATOM     18  C   LIG    1        1.248   1.716  -0.001  0.00  0.00    +0.400 C 
BRANCH  18  19
ATOM     19  C   LIG    1        2.406   0.752  -0.017  0.00  0.00    +0.000 A 
ATOM     20  N   LIG    1        3.001   0.255  -1.069  0.00  0.00    -0.350 NA
ATOM     21  O   LIG    1        3.906  -0.495  -0.760  0.00  0.00    +0.120 OA
ATOM     22  C   LIG    1        4.025  -0.589   0.562  0.00  0.00    -0.030 A 
ATOM     23  C   LIG    1        5.000  -1.389   1.386  0.00  0.00    +0.150 C 
ATOM     24  C   LIG    1        4.991  -0.834   2.817  0.00  0.00    +0.030 C 
ATOM     25  C   LIG    1        3.549  -0.722   3.319  0.00  0.00    +0.030 C 
ATOM     26  C   LIG    1        2.828   0.403   2.561  0.00  0.00    +0.110 C 
ATOM     27  C   LIG    1        3.069   0.211   1.092  0.00  0.00    -0.190 A 
ENDBRANCH  18  19
ENDBRANCH   2  18
TORSDOF 5
