REMARK  Name = ZINCnE000004vFr3.0
REMARK                            x       y       z     vdW  Elec       q    Type
REMARK                         _______ _______ _______ _____ _____    ______ ____
ROOT
ATOM      1  C   LIG    1       -1.236   1.149  -4.814  0.00  0.00    -0.030 A 
ATOM      2  C   LIG    1       -2.024   1.784  -5.775  0.00  0.00    -0.070 A 
ATOM      3  C   LIG    1       -1.976   1.365  -7.089  0.00  0.00    +0.020 A 
ATOM      4  C   LIG    1       -1.148   0.319  -7.455  0.00  0.00    +0.020 A 
ATOM      5  C   LIG    1       -0.364  -0.315  -6.507  0.00  0.00    +0.010 A 
ATOM      6  C   LIG    1       -0.400   0.097  -5.191  0.00  0.00    -0.010 A 
ENDROOT
BRANCH   1  14
ATOM      7  C   LIG    1       -1.433   3.637   2.507  0.00  0.00    +0.030 C 
ATOM      8  C   LIG    1       -0.949   3.095   1.161  0.00  0.00    -0.020 C 
ATOM      9  C   LIG    1       -0.734   1.582   1.262  0.00  0.00    +0.030 C 
ATOM     10  C   LIG    1       -0.013   1.086   0.008  0.00  0.00    +0.130 C 
ATOM     11  C   LIG    1       -0.755   1.593  -1.222  0.00  0.00    +0.080 A 
ATOM     12  C   LIG    1       -1.634   2.614  -1.165  0.00  0.00    -0.240 A 
ATOM     13  S   LIG    1       -2.278   2.903  -2.777  0.00  0.00    +0.040 S 
ATOM     14  C   LIG    1       -1.283   1.592  -3.405  0.00  0.00    +0.130 A 
ATOM     15  N   LIG    1       -0.597   1.079  -2.430  0.00  0.00    -0.430 NA
ATOM     16  C   LIG    1       -2.002   3.380   0.084  0.00  0.00    +0.120 C 
ENDBRANCH   1  14
BRANCH   2  17
ATOM     17  C   LIG    1       -2.926   2.924  -5.379  0.00  0.00    +0.250 C 
BRANCH  17  18
ATOM     18  O   LIG    1       -3.623   3.403  -6.530  0.00  0.00    -0.560 OA
ATOM     19  H   LIG    1       -4.223   4.139  -6.349  0.00  0.00    +0.380 HD
ENDBRANCH  17  18
ENDBRANCH   2  17
BRANCH   6  20
ATOM     20  C   LIG    1        0.459  -0.591  -4.161  0.00  0.00    +0.100 C 
BRANCH  20  21
ATOM     21  C   LIG    1       -0.356  -1.683  -3.465  0.00  0.00    -0.070 C 
BRANCH  21  22
ATOM     22  C   LIG    1        0.503  -2.370  -2.434  0.00  0.00    +0.500 C 
ATOM     23  O   LIG    1        0.041  -3.277  -1.763  0.00  0.00    -0.710 OA
ATOM     24  O   LIG    1        1.659  -2.019  -2.272  0.00  0.00    -0.700 OA
ENDBRANCH  21  22
ENDBRANCH  20  21
ENDBRANCH   6  20
TORSDOF 6
