REMARK  Name = ZINCrH00000No4Pr.0
REMARK                            x       y       z     vdW  Elec       q    Type
REMARK                         _______ _______ _______ _____ _____    ______ ____
ROOT
ATOM      1  O   LIG    1        4.955   0.512   0.164  0.00  0.00    -0.520 OA
ATOM      2  C   LIG    1        4.920   1.726   0.075  0.00  0.00    +0.560 C 
ATOM      3  N   LIG    1        6.055   2.418  -0.146  0.00  0.00    -0.590 N 
ENDROOT
BRANCH   3   4
ATOM      4  C   LIG    1        6.033   3.883  -0.137  0.00  0.00    +0.270 C 
ATOM      5  C   LIG    1        5.477   4.394   1.204  0.00  0.00    +0.060 C 
ATOM      6  C   LIG    1        5.146   5.893   1.063  0.00  0.00    -0.290 C 
ATOM      7  S   LIG    1        4.760   6.131  -0.709  0.00  0.00    +2.380 S 
ATOM      8  O   LIG    1        3.376   6.421  -0.854  0.00  0.00    -0.930 OA
ATOM      9  O   LIG    1        5.730   6.990  -1.292  0.00  0.00    -0.920 OA
ATOM     10  C   LIG    1        5.078   4.406  -1.241  0.00  0.00    -0.330 C 
ENDBRANCH   3   4
BRANCH   2  11
ATOM     11  C   LIG    1        3.645   2.433   0.208  0.00  0.00    -0.110 C 
ATOM     12  C   LIG    1        2.496   1.736   0.324  0.00  0.00    +0.150 C 
BRANCH  12  13
ATOM     13  C   LIG    1        1.215   2.447   0.457  0.00  0.00    -0.080 A 
ATOM     14  C   LIG    1        1.184   3.845   0.464  0.00  0.00    +0.040 A 
ATOM     15  C   LIG    1       -0.021   4.504   0.589  0.00  0.00    +0.030 A 
ATOM     16  C   LIG    1       -1.198   3.786   0.707  0.00  0.00    +0.050 A 
ATOM     17  C   LIG    1       -1.178   2.402   0.696  0.00  0.00    +0.030 A 
ATOM     18  C   LIG    1        0.020   1.727   0.578  0.00  0.00    -0.010 A 
ATOM     19 CL   LIG    1        0.045  -0.009   0.571  0.00  0.00    -0.060 Cl
ENDBRANCH  12  13
ENDBRANCH   2  11
BRANCH   3  20
ATOM     20  C   LIG    1        7.311   1.706  -0.394  0.00  0.00    +0.340 C 
BRANCH  20  21
ATOM     21  C   LIG    1        7.469   1.466  -1.873  0.00  0.00    -0.120 A 
ATOM     22  C   LIG    1        6.974   0.306  -2.441  0.00  0.00    +0.070 A 
ATOM     23  C   LIG    1        7.113   0.088  -3.798  0.00  0.00    -0.020 A 
ATOM     24  C   LIG    1        7.757   1.025  -4.588  0.00  0.00    +0.110 A 
ATOM     25  C   LIG    1        8.257   2.183  -4.017  0.00  0.00    -0.020 A 
ATOM     26  F   LIG    1        7.899   0.810  -5.914  0.00  0.00    -0.140 F 
ATOM     27  C   LIG    1        8.113   2.402  -2.660  0.00  0.00    +0.050 A 
ENDBRANCH  20  21
ENDBRANCH   3  20
TORSDOF 5
