REMARK  Name = ZINCpe000000XZx1.1
REMARK                            x       y       z     vdW  Elec       q    Type
REMARK                         _______ _______ _______ _____ _____    ______ ____
ROOT
ATOM      1  N   LIG    1        0.331   2.157   4.546  0.00  0.00    -0.470 N 
ATOM      2  C   LIG    1        0.900   0.945   5.171  0.00  0.00    +0.190 C 
ATOM      3  C   LIG    1        0.780   1.192   6.696  0.00  0.00    +0.060 C 
ATOM      4  C   LIG    1       -0.581   1.931   6.787  0.00  0.00    +0.130 C 
ATOM      5  C   LIG    1       -0.599   2.786   5.502  0.00  0.00    +0.210 C 
ENDROOT
BRANCH   1  11
ATOM      6  C   LIG    1       -0.119   2.633  -0.336  0.00  0.00    +0.160 C 
ATOM      7  C   LIG    1       -0.551   2.062   0.991  0.00  0.00    +0.170 A 
ATOM      8  N   LIG    1       -1.583   1.237   1.059  0.00  0.00    -0.490 NA
ATOM      9  C   LIG    1       -1.971   0.725   2.217  0.00  0.00    +0.290 A 
ATOM     10  N   LIG    1       -1.353   1.023   3.351  0.00  0.00    -0.500 NA
ATOM     11  C   LIG    1       -0.313   1.848   3.358  0.00  0.00    +0.330 A 
ATOM     12  C   LIG    1        0.123   2.400   2.150  0.00  0.00    -0.140 A 
ATOM     13  C   LIG    1        1.299   3.341   2.112  0.00  0.00    +0.140 C 
BRANCH   9  14
ATOM     14  C   LIG    1       -3.131  -0.202   2.247  0.00  0.00    +0.580 C 
ATOM     15  N   LIG    1       -3.861  -0.403   1.133  0.00  0.00    -0.600 N 
ATOM     16  C   LIG    1       -3.590   0.383  -0.073  0.00  0.00    +0.300 C 
ATOM     17  C   LIG    1       -4.927  -1.409   1.127  0.00  0.00    +0.290 C 
ATOM     18  O   LIG    1       -3.422  -0.778   3.276  0.00  0.00    -0.510 OA
ENDBRANCH   9  14
ENDBRANCH   1  11
BRANCH   4  19
ATOM     19  N   LIG    1       -0.632   2.786   7.981  0.00  0.00    -0.670 NA
ATOM     20  H   LIG    1       -1.151   3.632   7.797  0.00  0.00    +0.340 HD
BRANCH  19  21
ATOM     21  C   LIG    1       -1.198   2.059   9.125  0.00  0.00    +0.310 C 
BRANCH  21  22
ATOM     22  C   LIG    1       -1.235   2.966  10.328  0.00  0.00    +0.210 A 
ATOM     23  N   LIG    1       -0.248   3.170  11.158  0.00  0.00    -0.470 NA
ATOM     24  C   LIG    1       -0.639   4.035  12.105  0.00  0.00    +0.140 A 
ATOM     25  C   LIG    1       -1.916   4.380  11.853  0.00  0.00    +0.130 A 
ATOM     26  N   LIG    1       -2.292   3.707  10.722  0.00  0.00    -0.570 N 
ATOM     27  H   LIG    1       -3.158   3.752  10.287  0.00  0.00    +0.420 HD
ENDBRANCH  21  22
ENDBRANCH  19  21
ENDBRANCH   4  19
TORSDOF 5
