REMARK  Name = ZINCrD00000eRplO.0
REMARK                            x       y       z     vdW  Elec       q    Type
REMARK                         _______ _______ _______ _____ _____    ______ ____
ROOT
ATOM      1  C   LIG    1        1.361  -3.294  -0.642  0.00  0.00    +0.260 A 
ATOM      2  N   LIG    1        2.546  -3.319  -1.208  0.00  0.00    -0.260 NA
ATOM      3  N   LIG    1        2.912  -4.540  -1.381  0.00  0.00    -0.270 NA
ATOM      4  C   LIG    1        1.975  -5.343  -0.932  0.00  0.00    +0.220 A 
ATOM      5  O   LIG    1        0.978  -4.572  -0.451  0.00  0.00    -0.200 OA
ENDROOT
BRANCH   1   8
ATOM      6  C   LIG    1        2.289  -0.342  -1.091  0.00  0.00    +0.200 C 
ATOM      7  C   LIG    1        0.993  -0.797  -0.470  0.00  0.00    +0.150 A 
ATOM      8  C   LIG    1        0.592  -2.087  -0.277  0.00  0.00    +0.000 A 
ATOM      9  N   LIG    1       -0.620  -2.074   0.302  0.00  0.00    -0.180 NA
ATOM     10  N   LIG    1       -0.999  -0.858   0.488  0.00  0.00    -0.030 NA
ATOM     11  N   LIG    1        0.002  -0.004   0.002  0.00  0.00    -0.290 N 
BRANCH  11  12
ATOM     12  C   LIG    1       -0.017   1.399   0.010  0.00  0.00    +0.290 A 
ATOM     13  N   LIG    1        1.034   2.184   0.004  0.00  0.00    -0.280 NA
ATOM     14  N   LIG    1        0.588   3.512   0.015  0.00  0.00    -0.350 N 
ATOM     15  C   LIG    1       -0.762   3.499   0.027  0.00  0.00    +0.270 A 
ATOM     16  C   LIG    1        1.438   4.706   0.014  0.00  0.00    +0.380 C 
ATOM     17  C   LIG    1       -1.164   2.208   0.019  0.00  0.00    -0.070 A 
ENDBRANCH  11  12
ENDBRANCH   1   8
BRANCH   4  18
ATOM     18  C   LIG    1        2.010  -6.821  -0.945  0.00  0.00    -0.040 A 
ATOM     19  C   LIG    1        0.939  -7.552  -0.426  0.00  0.00    +0.050 A 
ATOM     20  C   LIG    1        0.976  -8.931  -0.447  0.00  0.00    +0.020 A 
ATOM     21  C   LIG    1        2.074  -9.589  -0.970  0.00  0.00    -0.040 A 
ATOM     22  C   LIG    1        3.141  -8.870  -1.482  0.00  0.00    +0.010 A 
ATOM     23  C   LIG    1        3.115  -7.491  -1.472  0.00  0.00    +0.080 A 
BRANCH  21  24
ATOM     24  C   LIG    1        2.110 -11.095  -0.984  0.00  0.00    -0.030 C 
ATOM     25  C   LIG    1        2.233 -11.589  -2.427  0.00  0.00    +0.040 C 
ATOM     26  C   LIG    1        0.820 -11.641  -0.367  0.00  0.00    +0.030 C 
ATOM     27  C   LIG    1        3.311 -11.585  -0.173  0.00  0.00    +0.040 C 
ENDBRANCH  21  24
ENDBRANCH   4  18
TORSDOF 4
