REMARK  Name = ZINCqH0000037Bj9.0
REMARK                            x       y       z     vdW  Elec       q    Type
REMARK                         _______ _______ _______ _____ _____    ______ ____
ROOT
ATOM      1  C   LIG    1       -1.661   5.247   8.096  0.00  0.00    +0.120 C 
ATOM      2  C   LIG    1       -3.035   5.088   7.498  0.00  0.00    -0.240 A 
ATOM      3  C   LIG    1       -3.317   4.608   6.256  0.00  0.00    +0.330 A 
ATOM      4  N   LIG    1       -4.670   4.633   6.107  0.00  0.00    -0.320 N 
ATOM      5  N   LIG    1       -5.221   5.134   7.294  0.00  0.00    -0.270 NA
ATOM      6  C   LIG    1       -4.245   5.408   8.120  0.00  0.00    +0.110 A 
ENDROOT
BRANCH   4   7
ATOM      7  C   LIG    1       -5.383   4.229   4.971  0.00  0.00    +0.190 A 
ATOM      8  C   LIG    1       -4.842   4.418   3.706  0.00  0.00    -0.010 A 
ATOM      9  C   LIG    1       -5.545   4.013   2.588  0.00  0.00    +0.030 A 
ATOM     10  C   LIG    1       -6.792   3.430   2.727  0.00  0.00    +0.000 A 
ATOM     11  C   LIG    1       -7.336   3.246   3.985  0.00  0.00    +0.030 A 
ATOM     12  C   LIG    1       -6.635   3.644   5.107  0.00  0.00    +0.020 A 
ENDBRANCH   4   7
BRANCH   3  13
ATOM     13  N   LIG    1       -2.391   4.174   5.309  0.00  0.00    -0.670 N 
ATOM     14  H   LIG    1       -1.571   4.673   5.168  0.00  0.00    +0.420 HD
ATOM     15  C   LIG    1       -2.634   3.062   4.588  0.00  0.00    +0.700 C 
ATOM     16  N   LIG    1       -1.779   2.688   3.616  0.00  0.00    -0.730 N 
ATOM     17  H   LIG    1       -0.988   3.219   3.435  0.00  0.00    +0.400 HD
ATOM     18  O   LIG    1       -3.626   2.395   4.815  0.00  0.00    -0.550 OA
BRANCH  16  19
ATOM     19  C   LIG    1       -2.043   1.478   2.832  0.00  0.00    +0.320 C 
BRANCH  19  20
ATOM     20  C   LIG    1       -0.928   1.283   1.804  0.00  0.00    +0.140 C 
ATOM     21  C   LIG    1       -1.245   0.082   0.877  0.00  0.00    +0.020 C 
ATOM     22  C   LIG    1        0.166  -0.340   0.399  0.00  0.00    +0.000 C 
ATOM     23  C   LIG    1        1.116   0.251   1.459  0.00  0.00    +0.200 C 
ATOM     24  O   LIG    1        0.303   0.894   2.454  0.00  0.00    -0.370 OA
ENDBRANCH  19  20
ENDBRANCH  16  19
ENDBRANCH   3  13
BRANCH   6  25
ATOM     25  C   LIG    1       -4.399   5.972   9.509  0.00  0.00    +0.010 C 
ATOM     26  C   LIG    1       -3.957   4.928  10.536  0.00  0.00    +0.050 C 
ATOM     27  C   LIG    1       -5.865   6.338   9.752  0.00  0.00    +0.040 C 
ATOM     28  C   LIG    1       -3.531   7.225   9.650  0.00  0.00    +0.050 C 
ENDBRANCH   6  25
TORSDOF 5
