REMARK  Name = ZINCrg000000tJE1.0
REMARK                            x       y       z     vdW  Elec       q    Type
REMARK                         _______ _______ _______ _____ _____    ______ ____
ROOT
ATOM      1  S   LIG    1        0.071   2.417  -2.359  0.00  0.00    +2.700 S 
ATOM      2  O   LIG    1        1.220   2.980  -1.741  0.00  0.00    -0.940 OA
ATOM      3  O   LIG    1       -0.910   3.195  -3.031  0.00  0.00    -0.940 OA
ENDROOT
BRANCH   1   4
ATOM      4  C   LIG    1        0.661   1.240  -3.530  0.00  0.00    -0.680 A 
ATOM      5  C   LIG    1       -0.129   0.883  -4.606  0.00  0.00    +0.160 A 
ATOM      6  C   LIG    1        0.330  -0.040  -5.527  0.00  0.00    +0.040 A 
ATOM      7  C   LIG    1        1.586  -0.608  -5.371  0.00  0.00    +0.200 A 
ATOM      8  C   LIG    1        2.379  -0.247  -4.288  0.00  0.00    +0.060 A 
ATOM      9  F   LIG    1        3.603  -0.798  -4.132  0.00  0.00    -0.120 F 
ATOM     10  C   LIG    1        1.916   0.681  -3.373  0.00  0.00    +0.140 A 
BRANCH   7  11
ATOM     11  N   LIG    1        2.054  -1.544  -6.304  0.00  0.00    -0.340 N 
ATOM     12  C   LIG    1        3.252  -2.171  -6.271  0.00  0.00    +0.240 A 
ATOM     13  C   LIG    1        3.318  -2.992  -7.345  0.00  0.00    -0.090 A 
ATOM     14  C   LIG    1        2.121  -2.864  -8.059  0.00  0.00    +0.270 A 
ATOM     15  N   LIG    1        1.361  -2.001  -7.433  0.00  0.00    -0.290 NA
ENDBRANCH   7  11
ENDBRANCH   1   4
BRANCH   1  20
ATOM     16  C   LIG    1       -2.869   1.797  -0.028  0.00  0.00    -0.030 C 
ATOM     17  C   LIG    1       -2.208   1.161   1.197  0.00  0.00    +0.020 C 
ATOM     18  C   LIG    1       -0.736   1.583   1.264  0.00  0.00    +0.040 C 
ATOM     19  C   LIG    1       -0.013   1.086   0.008  0.00  0.00    +0.290 C 
ATOM     20  N   LIG    1       -0.729   1.575  -1.178  0.00  0.00    -1.000 NA
ATOM     21  C   LIG    1       -2.168   1.303  -1.297  0.00  0.00    +0.310 C 
BRANCH  16  22
ATOM     22  C   LIG    1       -4.347   1.402  -0.074  0.00  0.00    +0.250 C 
BRANCH  22  23
ATOM     23  N   LIG    1       -5.044   1.978   1.083  0.00  0.00    -0.490 N 
ATOM     24  H   LIG    1       -4.965   2.983   1.057  0.00  0.00    +0.430 HD
ATOM     25  H   LIG    1       -4.629   1.629   1.934  0.00  0.00    +0.430 HD
BRANCH  23  26
ATOM     26  C   LIG    1       -6.463   1.598   1.038  0.00  0.00    +0.180 C 
BRANCH  26  28
ATOM     27  O   LIG    1       -6.564   2.865   3.034  0.00  0.00    -0.680 OA
ATOM     28  C   LIG    1       -7.179   2.189   2.225  0.00  0.00    +0.480 C 
ATOM     29  O   LIG    1       -8.372   1.992   2.378  0.00  0.00    -0.640 OA
ENDBRANCH  26  28
ENDBRANCH  23  26
ENDBRANCH  22  23
ENDBRANCH  16  22
ENDBRANCH   1  20
TORSDOF 7
