REMARK  Name = ZINCvU0000000A7J.0
REMARK                            x       y       z     vdW  Elec       q    Type
REMARK                         _______ _______ _______ _____ _____    ______ ____
ROOT
ATOM      1  C   LIG    1       -0.934  -4.846   0.254  0.00  0.00    -0.110 A 
ATOM      2  C   LIG    1       -2.167  -4.225   0.174  0.00  0.00    +0.040 A 
ATOM      3  C   LIG    1       -2.244  -2.848   0.093  0.00  0.00    +0.020 A 
ATOM      4  C   LIG    1       -1.081  -2.088   0.091  0.00  0.00    +0.150 A 
ATOM      5  C   LIG    1        0.155  -2.716   0.166  0.00  0.00    -0.010 A 
ATOM      6  C   LIG    1        0.225  -4.092   0.253  0.00  0.00    +0.060 A 
ENDROOT
BRANCH   4   7
ATOM      7  N   LIG    1       -1.156  -0.694   0.009  0.00  0.00    -0.670 N 
ATOM      8  H   LIG    1       -0.478  -0.200  -0.478  0.00  0.00    +0.410 HD
ATOM      9  C   LIG    1       -2.169  -0.037   0.608  0.00  0.00    +0.560 C 
ATOM     10  O   LIG    1       -3.063  -0.660   1.147  0.00  0.00    -0.510 OA
BRANCH   9  11
ATOM     11  C   LIG    1       -2.193   1.440   0.609  0.00  0.00    -0.150 A 
ATOM     12  C   LIG    1       -1.164   2.158  -0.005  0.00  0.00    +0.080 A 
ATOM     13  C   LIG    1       -1.194   3.536  -0.005  0.00  0.00    -0.010 A 
ATOM     14  C   LIG    1       -2.238   4.210   0.611  0.00  0.00    +0.130 A 
ATOM     15  C   LIG    1       -3.259   3.502   1.226  0.00  0.00    -0.010 A 
ATOM     16  F   LIG    1       -2.260   5.560   0.612  0.00  0.00    -0.130 F 
ATOM     17  C   LIG    1       -3.242   2.123   1.228  0.00  0.00    +0.120 A 
ENDBRANCH   9  11
ENDBRANCH   4   7
BRANCH   1  19
ATOM     18  C   LIG    1       -0.525  -6.924  -1.037  0.00  0.00    +0.050 C 
ATOM     19  C   LIG    1       -0.854  -6.348   0.342  0.00  0.00    +0.190 C 
BRANCH  19  20
ATOM     20  N   LIG    1        0.199  -6.727   1.294  0.00  0.00    -0.680 NA
ATOM     21  H   LIG    1        0.292  -6.037   2.024  0.00  0.00    +0.350 HD
BRANCH  20  22
ATOM     22  C   LIG    1       -0.056  -8.059   1.859  0.00  0.00    +0.360 C 
BRANCH  22  23
ATOM     23  C   LIG    1        1.042  -8.413   2.829  0.00  0.00    +0.200 A 
ATOM     24  N   LIG    1        1.059  -8.152   4.112  0.00  0.00    -0.470 NA
ATOM     25  C   LIG    1        2.231  -8.653   4.569  0.00  0.00    +0.240 A 
ATOM     26  N   LIG    1        2.853  -9.176   3.541  0.00  0.00    -0.360 NA
ATOM     27  O   LIG    1        2.183  -9.045   2.539  0.00  0.00    +0.100 OA
BRANCH  25  28
ATOM     28  C   LIG    1        2.719  -8.612   5.962  0.00  0.00    -0.120 A 
ATOM     29  C   LIG    1        3.894  -9.115   6.391  0.00  0.00    +0.070 A 
ATOM     30  C   LIG    1        4.131  -8.958   7.739  0.00  0.00    +0.070 A 
ATOM     31  C   LIG    1        3.161  -8.332   8.416  0.00  0.00    -0.210 A 
ATOM     32 BR   LIG    1        3.190  -7.967  10.271  0.00  0.00    +0.020 Br
ATOM     33  S   LIG    1        1.859  -7.894   7.318  0.00  0.00    +0.250 S 
ENDBRANCH  25  28
ENDBRANCH  22  23
ENDBRANCH  20  22
ENDBRANCH  19  20
ENDBRANCH   1  19
TORSDOF 7
