REMARK  Name = ZINCpk00000xI7p4.0
REMARK                            x       y       z     vdW  Elec       q    Type
REMARK                         _______ _______ _______ _____ _____    ______ ____
ROOT
ATOM      1  C   LIG    1       -3.027   0.955  -5.721  0.00  0.00    +0.470 C 
ATOM      2  O   LIG    1       -3.857   1.756  -6.107  0.00  0.00    -0.570 OA
ENDROOT
BRANCH   1   9
ATOM      3  N   LIG    1       -3.113   1.732  -2.201  0.00  0.00    -0.370 N 
ATOM      4  N   LIG    1       -3.949   2.727  -1.676  0.00  0.00    -0.480 N 
ATOM      5  H   LIG    1       -4.011   2.982  -0.743  0.00  0.00    +0.450 HD
ATOM      6  C   LIG    1       -4.659   3.274  -2.703  0.00  0.00    +0.350 A 
ATOM      7  C   LIG    1       -4.304   2.663  -3.855  0.00  0.00    -0.110 A 
ATOM      8  C   LIG    1       -3.326   1.693  -3.557  0.00  0.00    +0.480 A 
ATOM      9  N   LIG    1       -2.722   0.885  -4.429  0.00  0.00    -0.680 NA
BRANCH   3  11
ATOM     10  C   LIG    1       -2.953   0.085  -0.400  0.00  0.00    +0.040 C 
ATOM     11  C   LIG    1       -2.180   0.893  -1.445  0.00  0.00    +0.320 C 
BRANCH  11  12
ATOM     12  C   LIG    1       -1.150   1.781  -0.743  0.00  0.00    -0.070 C 
ATOM     13  C   LIG    1       -0.013   1.086   0.008  0.00  0.00    +0.040 C 
ATOM     14  C   LIG    1       -1.136   1.773   0.788  0.00  0.00    +0.020 C 
ENDBRANCH  11  12
ENDBRANCH   3  11
ENDBRANCH   1   9
BRANCH   1  15
ATOM     15  C   LIG    1       -2.345   0.042  -6.706  0.00  0.00    +0.250 C 
BRANCH  15  16
ATOM     16  N   LIG    1       -2.852   0.314  -8.058  0.00  0.00    -0.500 NA
ATOM     17  C   LIG    1       -2.467   1.659  -8.504  0.00  0.00    +0.180 C 
ATOM     18  C   LIG    1       -2.884   1.854  -9.963  0.00  0.00    +0.020 C 
ATOM     19  C   LIG    1       -4.399   1.669 -10.085  0.00  0.00    +0.000 C 
ATOM     20  C   LIG    1       -4.779   0.279  -9.569  0.00  0.00    +0.030 C 
ATOM     21  C   LIG    1       -4.307   0.130  -8.121  0.00  0.00    +0.160 C 
BRANCH  21  22
ATOM     22  C   LIG    1       -4.667  -1.266  -7.608  0.00  0.00    +0.320 C 
ATOM     23  O   LIG    1       -4.037  -2.261  -8.432  0.00  0.00    -0.360 OA
ATOM     24  C   LIG    1       -4.992  -3.347  -8.498  0.00  0.00    +0.190 C 
ATOM     25  C   LIG    1       -6.338  -2.580  -8.527  0.00  0.00    +0.200 C 
ATOM     26  O   LIG    1       -6.088  -1.449  -7.668  0.00  0.00    -0.380 OA
ENDBRANCH  21  22
ENDBRANCH  15  16
ENDBRANCH   1  15
TORSDOF 6
