REMARK  Name = ZINCvU000000060G.0
REMARK                            x       y       z     vdW  Elec       q    Type
REMARK                         _______ _______ _______ _____ _____    ______ ____
ROOT
ATOM      1  N   LIG    1        4.195   6.396   0.504  0.00  0.00    -0.620 N 
ATOM      2  H   LIG    1        5.161   6.473   0.451  0.00  0.00    +0.430 HD
ATOM      3  C   LIG    1        3.420   7.481   0.309  0.00  0.00    +0.520 C 
ATOM      4  O   LIG    1        2.213   7.384   0.376  0.00  0.00    -0.490 OA
ENDROOT
BRANCH   1   8
ATOM      5  C   LIG    1        3.531   2.978   1.236  0.00  0.00    +0.150 A 
ATOM      6  C   LIG    1        2.200   3.165   1.243  0.00  0.00    -0.120 A 
ATOM      7  S   LIG    1        1.881   4.866   0.909  0.00  0.00    +0.190 S 
ATOM      8  C   LIG    1        3.611   5.166   0.781  0.00  0.00    +0.270 A 
ATOM      9  N   LIG    1        4.256   4.059   0.985  0.00  0.00    -0.470 NA
BRANCH   5  13
ATOM     10  C   LIG    1        5.296  -0.829   1.954  0.00  0.00    +0.180 A 
ATOM     11  C   LIG    1        3.916  -0.687   1.977  0.00  0.00    -0.120 A 
ATOM     12  C   LIG    1        3.341   0.545   1.744  0.00  0.00    +0.120 A 
ATOM     13  C   LIG    1        4.147   1.651   1.486  0.00  0.00    -0.100 A 
ATOM     14  C   LIG    1        5.538   1.508   1.463  0.00  0.00    +0.200 A 
ATOM     15  C   LIG    1        6.106   0.268   1.697  0.00  0.00    -0.110 A 
BRANCH  10  17
ATOM     16  C   LIG    1        4.965  -3.132   2.441  0.00  0.00    +0.250 C 
ATOM     17  O   LIG    1        5.857  -2.046   2.184  0.00  0.00    -0.320 OA
ENDBRANCH  10  17
BRANCH  14  18
ATOM     18  O   LIG    1        6.330   2.583   1.211  0.00  0.00    -0.270 OA
ATOM     19  C   LIG    1        7.741   2.362   1.203  0.00  0.00    +0.240 C 
ENDBRANCH  14  18
ENDBRANCH   5  13
ENDBRANCH   1   8
BRANCH   3  20
ATOM     20  C   LIG    1        4.053   8.815   0.009  0.00  0.00    +0.110 C 
BRANCH  20  21
ATOM     21  C   LIG    1        2.976   9.855  -0.164  0.00  0.00    -0.070 A 
ATOM     22  C   LIG    1        1.950   9.643  -1.067  0.00  0.00    +0.040 A 
ATOM     23  C   LIG    1        0.960  10.595  -1.222  0.00  0.00    +0.000 A 
ATOM     24  C   LIG    1        1.000  11.762  -0.483  0.00  0.00    +0.010 A 
ATOM     25  C   LIG    1        2.029  11.976   0.415  0.00  0.00    +0.000 A 
ATOM     26  C   LIG    1        3.016  11.022   0.575  0.00  0.00    +0.010 A 
ENDBRANCH  20  21
BRANCH  20  27
ATOM     27  C   LIG    1        4.862   8.714  -1.258  0.00  0.00    -0.090 A 
ATOM     28  C   LIG    1        4.292   8.185  -2.401  0.00  0.00    +0.010 A 
ATOM     29  C   LIG    1        5.032   8.096  -3.565  0.00  0.00    +0.020 A 
ATOM     30  C   LIG    1        6.346   8.526  -3.583  0.00  0.00    +0.010 A 
ATOM     31  C   LIG    1        6.918   9.050  -2.439  0.00  0.00    +0.010 A 
ATOM     32  C   LIG    1        6.176   9.144  -1.276  0.00  0.00    +0.030 A 
ENDBRANCH  20  27
ENDBRANCH   3  20
TORSDOF 7
