REMARK  Name = ZINCpe000000YyAZ.0
REMARK                            x       y       z     vdW  Elec       q    Type
REMARK                         _______ _______ _______ _____ _____    ______ ____
ROOT
ATOM      1  N   LIG    1        0.882   2.908  -1.435  0.00  0.00    -0.730 N 
ATOM      2  H   LIG    1        1.212   2.361  -0.705  0.00  0.00    +0.400 HD
ATOM      3  C   LIG    1        1.625   3.064  -2.549  0.00  0.00    +0.520 C 
ATOM      4  O   LIG    1        1.213   3.748  -3.462  0.00  0.00    -0.530 OA
ENDROOT
BRANCH   1   5
ATOM      5  C   LIG    1       -0.423   3.564  -1.327  0.00  0.00    +0.290 C 
BRANCH   5   6
ATOM      6  C   LIG    1       -1.108   3.129  -0.030  0.00  0.00    -0.090 C 
ATOM      7  C   LIG    1       -0.296   3.627   1.170  0.00  0.00    +0.030 C 
ATOM      8  C   LIG    1       -1.031   3.254   2.462  0.00  0.00    +0.220 C 
ATOM      9  O   LIG    1       -2.344   3.818   2.442  0.00  0.00    -0.380 OA
ATOM     10  C   LIG    1       -3.163   3.352   1.368  0.00  0.00    +0.210 C 
ATOM     11  C   LIG    1       -2.515   3.729   0.033  0.00  0.00    +0.030 C 
BRANCH   6  15
ATOM     12  N   LIG    1       -1.981   0.972  -0.869  0.00  0.00    -0.850 N 
ATOM     13  H   LIG    1       -2.544   1.472  -1.481  0.00  0.00    +0.400 HD
ATOM     14  H   LIG    1       -1.984   0.003  -0.890  0.00  0.00    +0.410 HD
ATOM     15  C   LIG    1       -1.198   1.625   0.013  0.00  0.00    +0.530 C 
ATOM     16  O   LIG    1       -0.567   1.003   0.840  0.00  0.00    -0.530 OA
ENDBRANCH   6  15
ENDBRANCH   5   6
ENDBRANCH   1   5
BRANCH   3  17
ATOM     17  C   LIG    1        2.967   2.389  -2.659  0.00  0.00    +0.120 C 
BRANCH  17  18
ATOM     18  C   LIG    1        3.588   2.721  -3.992  0.00  0.00    -0.080 A 
ATOM     19  C   LIG    1        3.353   1.908  -5.085  0.00  0.00    +0.050 A 
ATOM     20  C   LIG    1        3.917   2.213  -6.308  0.00  0.00    -0.010 A 
ATOM     21  C   LIG    1        4.729   3.332  -6.438  0.00  0.00    +0.160 A 
ATOM     22  C   LIG    1        4.967   4.143  -5.337  0.00  0.00    +0.020 A 
ATOM     23  C   LIG    1        4.397   3.836  -4.117  0.00  0.00    +0.050 A 
BRANCH  21  24
ATOM     24  N   LIG    1        5.307   3.640  -7.677  0.00  0.00    -0.320 N 
ATOM     25  C   LIG    1        5.161   2.935  -8.821  0.00  0.00    +0.230 A 
ATOM     26  C   LIG    1        5.873   3.562  -9.786  0.00  0.00    -0.100 A 
ATOM     27  C   LIG    1        6.481   4.684  -9.211  0.00  0.00    +0.250 A 
ATOM     28  N   LIG    1        6.142   4.732  -7.948  0.00  0.00    -0.290 NA
ENDBRANCH  21  24
ENDBRANCH  17  18
ENDBRANCH   3  17
TORSDOF 6
