REMARK  Name = ZINCpk00001AZiM0.2
REMARK                            x       y       z     vdW  Elec       q    Type
REMARK                         _______ _______ _______ _____ _____    ______ ____
ROOT
ATOM      1  C   LIG    1       -2.544   1.378   0.021  0.00  0.00    +0.110 C 
ATOM      2  C   LIG    1       -3.288   1.916   1.262  0.00  0.00    +0.180 C 
ATOM      3  N   LIG    1       -4.660   2.215   0.776  0.00  0.00    -0.500 NA
ATOM      4  C   LIG    1       -4.449   2.798  -0.575  0.00  0.00    +0.190 C 
ATOM      5  C   LIG    1       -3.308   1.958  -1.187  0.00  0.00    +0.000 C 
ENDROOT
BRANCH   1   9
ATOM      6  C   LIG    1        2.467   1.456  -0.013  0.00  0.00    +0.360 C 
ATOM      7  N   LIG    1        1.067   1.886   0.002  0.00  0.00    -0.380 N 
ATOM      8  C   LIG    1       -0.013   1.076   0.008  0.00  0.00    +0.250 A 
ATOM      9  C   LIG    1       -1.116   1.859   0.017  0.00  0.00    -0.230 A 
ATOM     10  C   LIG    1       -0.697   3.193   0.025  0.00  0.00    +0.230 A 
ATOM     11  N   LIG    1        0.611   3.211   0.013  0.00  0.00    -0.300 NA
ENDBRANCH   1   9
BRANCH   5  12
ATOM     12  C   LIG    1       -3.873   0.845  -2.033  0.00  0.00    +0.530 C 
ATOM     13  O   LIG    1       -3.692  -0.311  -1.714  0.00  0.00    -0.540 OA
ATOM     14  N   LIG    1       -4.580   1.135  -3.143  0.00  0.00    -0.860 N 
ATOM     15  H   LIG    1       -4.944   0.418  -3.687  0.00  0.00    +0.400 HD
ATOM     16  H   LIG    1       -4.726   2.059  -3.398  0.00  0.00    +0.400 HD
ENDBRANCH   5  12
BRANCH   3  17
ATOM     17  C   LIG    1       -5.335   3.172   1.662  0.00  0.00    +0.280 C 
BRANCH  17  18
ATOM     18  C   LIG    1       -6.792   3.264   1.285  0.00  0.00    +0.080 A 
ATOM     19  N   LIG    1       -7.296   4.035   0.356  0.00  0.00    -0.290 NA
ATOM     20  N   LIG    1       -8.681   3.823   0.316  0.00  0.00    -0.360 N 
ATOM     21  C   LIG    1       -8.988   2.907   1.258  0.00  0.00    +0.220 A 
ATOM     22  C   LIG    1       -7.838   2.544   1.872  0.00  0.00    -0.100 A 
BRANCH  20  23
ATOM     23  C   LIG    1       -9.628   4.484  -0.585  0.00  0.00    +0.260 C 
ATOM     24  C   LIG    1      -10.991   4.659   0.117  0.00  0.00    +0.020 C 
ATOM     25  C   LIG    1      -12.030   4.420  -1.006  0.00  0.00    +0.030 C 
ATOM     26  C   LIG    1      -11.387   3.276  -1.829  0.00  0.00    +0.010 C 
ATOM     27  C   LIG    1       -9.880   3.604  -1.822  0.00  0.00    +0.010 C 
ENDBRANCH  20  23
ENDBRANCH  17  18
ENDBRANCH   3  17
TORSDOF 5
