REMARK  Name = ZINCrg000000rqaU.1
REMARK                            x       y       z     vdW  Elec       q    Type
REMARK                         _______ _______ _______ _____ _____    ______ ____
ROOT
ATOM      1  C   LIG    1        5.210   5.220  -1.396  0.00  0.00    +0.570 C 
ATOM      2  N   LIG    1        6.307   5.716  -0.791  0.00  0.00    -0.600 N 
ATOM      3  C   LIG    1        7.295   4.819  -0.178  0.00  0.00    +0.270 C 
ATOM      4  C   LIG    1        7.521   5.243   1.272  0.00  0.00    +0.030 C 
ATOM      5  C   LIG    1        7.905   6.723   1.314  0.00  0.00    +0.060 C 
ATOM      6  C   LIG    1        6.766   7.565   0.735  0.00  0.00    +0.110 C 
ATOM      7  C   LIG    1        6.534   7.167  -0.726  0.00  0.00    +0.310 C 
ATOM      8  O   LIG    1        4.433   5.968  -1.955  0.00  0.00    -0.520 OA
ENDROOT
BRANCH   6   9
ATOM      9  C   LIG    1        7.132   9.025   0.807  0.00  0.00    +0.250 A 
ATOM     10  N   LIG    1        8.335   9.493   0.846  0.00  0.00    -0.250 NA
ATOM     11  N   LIG    1        8.252  10.892   0.905  0.00  0.00    -0.550 N 
ATOM     12  H   LIG    1        8.994  11.515   0.941  0.00  0.00    +0.470 HD
ATOM     13  C   LIG    1        6.938  11.203   0.906  0.00  0.00    +0.610 A 
ATOM     14  O   LIG    1        6.461  12.321   0.953  0.00  0.00    -0.480 OA
ATOM     15  O   LIG    1        6.255  10.048   0.845  0.00  0.00    -0.270 OA
ENDBRANCH   6   9
BRANCH   1  18
ATOM     16  C   LIG    1        3.509   1.881  -1.001  0.00  0.00    +0.320 A 
ATOM     17  C   LIG    1        3.705   3.258  -1.006  0.00  0.00    +0.000 A 
ATOM     18  C   LIG    1        4.952   3.761  -1.380  0.00  0.00    -0.060 A 
ATOM     19  C   LIG    1        5.950   2.850  -1.746  0.00  0.00    -0.040 A 
ATOM     20  C   LIG    1        5.671   1.499  -1.719  0.00  0.00    +0.300 A 
ATOM     21  N   LIG    1        4.483   1.058  -1.355  0.00  0.00    -0.510 NA
BRANCH  16  25
ATOM     22  C   LIG    1        0.898  -2.158  -0.323  0.00  0.00    +0.070 C 
ATOM     23  C   LIG    1        0.883  -0.628  -0.331  0.00  0.00    +0.150 C 
ATOM     24  C   LIG    1        2.275  -0.104  -0.694  0.00  0.00    +0.200 C 
ATOM     25  N   LIG    1        2.274   1.364  -0.625  0.00  0.00    -0.480 N 
ATOM     26  C   LIG    1        1.898   1.822   0.721  0.00  0.00    +0.180 C 
ATOM     27  C   LIG    1        0.510   1.279   1.069  0.00  0.00    +0.230 C 
ATOM     28  O   LIG    1        0.521  -0.147   0.966  0.00  0.00    -0.380 OA
ENDBRANCH  16  25
ENDBRANCH   1  18
TORSDOF 3
