REMARK  Name = ZINCrD00000F5LjX.0
REMARK                            x       y       z     vdW  Elec       q    Type
REMARK                         _______ _______ _______ _____ _____    ______ ____
ROOT
ATOM      1  C   LIG    1        4.700   0.439  -1.686  0.00  0.00    +0.010 C 
ATOM      2  C   LIG    1        5.065   1.938  -1.724  0.00  0.00    +0.280 C 
ATOM      3  N   LIG    1        4.083   2.648  -0.892  0.00  0.00    -0.610 N 
ATOM      4  C   LIG    1        3.150   1.662  -0.317  0.00  0.00    +0.300 C 
ATOM      5  C   LIG    1        4.046   3.979  -0.684  0.00  0.00    +0.580 C 
ATOM      6  O   LIG    1        4.813   4.707  -1.278  0.00  0.00    -0.520 OA
ATOM      7  C   LIG    1        3.199   0.457  -1.293  0.00  0.00    -0.010 C 
ENDROOT
BRANCH   7   8
ATOM      8  C   LIG    1        2.804  -0.839  -0.581  0.00  0.00    +0.460 C 
ATOM      9  F   LIG    1        3.159  -1.934  -1.375  0.00  0.00    -0.170 F 
ATOM     10  F   LIG    1        1.421  -0.848  -0.365  0.00  0.00    -0.180 F 
ATOM     11  F   LIG    1        3.468  -0.917   0.648  0.00  0.00    -0.170 F 
ENDBRANCH   7   8
BRANCH   5  12
ATOM     12  C   LIG    1        3.051   4.562   0.285  0.00  0.00    -0.120 C 
ATOM     13  C   LIG    1        2.520   5.968  -0.007  0.00  0.00    +0.090 C 
ATOM     14  C   LIG    1        1.613   4.750  -0.205  0.00  0.00    +0.060 C 
BRANCH  12  15
ATOM     15  C   LIG    1        3.249   4.180   1.729  0.00  0.00    -0.030 A 
ATOM     16  C   LIG    1        2.161   4.102   2.579  0.00  0.00    +0.020 A 
ATOM     17  C   LIG    1        2.342   3.751   3.904  0.00  0.00    +0.040 A 
ATOM     18  C   LIG    1        3.610   3.471   4.378  0.00  0.00    +0.030 A 
ATOM     19  C   LIG    1        4.699   3.554   3.529  0.00  0.00    -0.030 A 
ATOM     20 CL   LIG    1        6.293   3.210   4.126  0.00  0.00    -0.060 Cl
ATOM     21  C   LIG    1        4.518   3.906   2.204  0.00  0.00    +0.030 A 
ENDBRANCH  12  15
ENDBRANCH   5  12
BRANCH   1  22
ATOM     22  C   LIG    1        5.528  -0.293  -0.628  0.00  0.00    +0.270 C 
BRANCH  22  25
ATOM     23  O   LIG    1        7.522  -1.418   0.795  0.00  0.00    -0.500 OA
ATOM     24  C   LIG    1        7.860  -0.886  -0.240  0.00  0.00    +0.500 C 
ATOM     25  N   LIG    1        6.938  -0.293  -1.026  0.00  0.00    -0.730 N 
ATOM     26  H   LIG    1        7.209   0.133  -1.854  0.00  0.00    +0.400 HD
BRANCH  24  27
ATOM     27  C   LIG    1        9.310  -0.886  -0.650  0.00  0.00    +0.170 C 
ATOM     28 CL   LIG    1       10.286  -1.748   0.597  0.00  0.00    -0.130 Cl
ENDBRANCH  24  27
ENDBRANCH  22  25
ENDBRANCH   1  22
TORSDOF 6
