REMARK  Name = ZINCrH000004nXEE.0
REMARK                            x       y       z     vdW  Elec       q    Type
REMARK                         _______ _______ _______ _____ _____    ______ ____
ROOT
ATOM      1  N   LIG    1        3.610   6.207   0.267  0.00  0.00    -0.510 NA
ATOM      2  C   LIG    1        4.304   6.083  -1.021  0.00  0.00    +0.170 C 
ATOM      3  C   LIG    1        5.790   6.398  -0.833  0.00  0.00    +0.030 C 
ATOM      4  C   LIG    1        5.941   7.819  -0.285  0.00  0.00    +0.010 C 
ATOM      5  C   LIG    1        5.169   7.935   1.032  0.00  0.00    +0.030 C 
ATOM      6  C   LIG    1        3.701   7.576   0.790  0.00  0.00    +0.140 C 
ENDROOT
BRANCH   1   7
ATOM      7  C   LIG    1        2.210   5.778   0.154  0.00  0.00    +0.210 C 
BRANCH   7  10
ATOM      8  N   LIG    1        0.957   3.652  -0.015  0.00  0.00    -0.680 N 
ATOM      9  H   LIG    1        0.146   4.173  -0.126  0.00  0.00    +0.410 HD
ATOM     10  C   LIG    1        2.148   4.274   0.092  0.00  0.00    +0.510 C 
ATOM     11  O   LIG    1        3.170   3.623   0.138  0.00  0.00    -0.490 OA
BRANCH   8  16
ATOM     12  C   LIG    1        1.711   0.160   0.875  0.00  0.00    -0.060 A 
ATOM     13  C   LIG    1        0.749  -0.512   0.130  0.00  0.00    -0.020 A 
ATOM     14  C   LIG    1       -0.137   0.199  -0.657  0.00  0.00    +0.050 A 
ATOM     15  C   LIG    1       -0.070   1.577  -0.706  0.00  0.00    -0.020 A 
ATOM     16  C   LIG    1        0.890   2.255   0.036  0.00  0.00    +0.170 A 
ATOM     17  C   LIG    1        1.781   1.546   0.828  0.00  0.00    +0.040 A 
BRANCH  12  19
ATOM     18  C   LIG    1        2.344  -2.469   1.600  0.00  0.00    +0.120 C 
ATOM     19  S   LIG    1        2.840  -0.747   1.879  0.00  0.00    -0.110 S 
ENDBRANCH  12  19
ENDBRANCH   8  16
ENDBRANCH   7  10
ENDBRANCH   1   7
BRANCH   6  20
ATOM     20  C   LIG    1        2.929   7.670   2.108  0.00  0.00    +0.290 C 
BRANCH  20  21
ATOM     21  N   LIG    1        3.406   6.635   3.028  0.00  0.00    -0.700 N 
ATOM     22  H   LIG    1        4.155   6.071   2.778  0.00  0.00    +0.420 HD
ATOM     23  C   LIG    1        2.803   6.464   4.222  0.00  0.00    +0.650 C 
ATOM     24  O   LIG    1        1.865   7.170   4.535  0.00  0.00    -0.570 OA
BRANCH  23  25
ATOM     25  O   LIG    1        3.241   5.513   5.067  0.00  0.00    -0.360 OA
BRANCH  25  26
ATOM     26  C   LIG    1        2.545   5.386   6.335  0.00  0.00    +0.140 C 
ATOM     27  C   LIG    1        2.649   6.702   7.108  0.00  0.00    +0.040 C 
ATOM     28  C   LIG    1        3.179   4.261   7.155  0.00  0.00    +0.080 C 
ATOM     29  C   LIG    1        1.072   5.061   6.078  0.00  0.00    +0.040 C 
ENDBRANCH  25  26
ENDBRANCH  23  25
ENDBRANCH  20  21
ENDBRANCH   6  20
TORSDOF 8
