REMARK  Name = ZINCnE000001Ea6C.0
REMARK                            x       y       z     vdW  Elec       q    Type
REMARK                         _______ _______ _______ _____ _____    ______ ____
ROOT
ATOM      1  C   LIG    1       -3.661   3.218   6.428  0.00  0.00    +0.160 C 
ENDROOT
BRANCH   1   2
ATOM      2  C   LIG    1       -3.904   4.649   6.831  0.00  0.00    +0.040 A 
ATOM      3  N   LIG    1       -3.006   5.584   6.964  0.00  0.00    -0.330 NA
ATOM      4  O   LIG    1       -3.497   6.637   7.299  0.00  0.00    +0.110 OA
ATOM      5  C   LIG    1       -4.831   6.536   7.437  0.00  0.00    -0.020 A 
ATOM      6  C   LIG    1       -5.148   5.240   7.133  0.00  0.00    -0.040 A 
BRANCH   5   7
ATOM      7  C   LIG    1       -5.767   7.610   7.833  0.00  0.00    -0.010 A 
ATOM      8  C   LIG    1       -7.134   7.348   7.928  0.00  0.00    +0.030 A 
ATOM      9  C   LIG    1       -8.001   8.353   8.304  0.00  0.00    +0.010 A 
ATOM     10  C   LIG    1       -7.519   9.622   8.574  0.00  0.00    +0.000 A 
ATOM     11  C   LIG    1       -6.165   9.890   8.475  0.00  0.00    +0.010 A 
ATOM     12  C   LIG    1       -5.287   8.892   8.107  0.00  0.00    +0.030 A 
ENDBRANCH   5   7
ENDBRANCH   1   2
BRANCH   1  14
ATOM     13  N   LIG    1       -2.591   2.003   4.557  0.00  0.00    -0.680 NA
ATOM     14  C   LIG    1       -2.920   3.185   5.116  0.00  0.00    +0.460 C 
ATOM     15  O   LIG    1       -2.618   4.221   4.563  0.00  0.00    -0.560 OA
BRANCH  13  19
ATOM     16  C   LIG    1       -0.718   1.572   1.248  0.00  0.00    -0.080 A 
ATOM     17  N   LIG    1       -0.913   2.808   1.581  0.00  0.00    -0.220 NA
ATOM     18  N   LIG    1       -1.532   3.011   2.662  0.00  0.00    -0.370 NA
ATOM     19  C   LIG    1       -1.907   1.973   3.346  0.00  0.00    +0.300 A 
ATOM     20  S   LIG    1       -1.420   0.559   2.510  0.00  0.00    -0.020 S 
BRANCH  16  22
ATOM     21  C   LIG    1        1.423   1.615  -0.003  0.00  0.00    +0.020 C 
ATOM     22  C   LIG    1       -0.013   1.086   0.008  0.00  0.00    +0.090 C 
ATOM     23  C   LIG    1       -0.753   1.593  -1.232  0.00  0.00    +0.020 C 
ENDBRANCH  16  22
ENDBRANCH  13  19
ENDBRANCH   1  14
TORSDOF 5
