REMARK  Name = ZINCwl0000000qLU.1
REMARK                            x       y       z     vdW  Elec       q    Type
REMARK                         _______ _______ _______ _____ _____    ______ ____
ROOT
ATOM      1  C   LIG    1        8.423   1.841  -0.096  0.00  0.00    +0.510 C 
ATOM      2  N   LIG    1        7.142   1.941   0.312  0.00  0.00    -0.610 N 
ATOM      3  C   LIG    1        6.676   2.658   1.514  0.00  0.00    +0.260 C 
ATOM      4  C   LIG    1        5.194   3.007   1.221  0.00  0.00    +0.040 C 
ATOM      5  C   LIG    1        4.734   1.764   0.433  0.00  0.00    +0.090 C 
ATOM      6  C   LIG    1        3.568   2.114  -0.496  0.00  0.00    +0.040 C 
ATOM      7  C   LIG    1        2.422   1.187  -0.015  0.00  0.00    +0.230 C 
ATOM      8  C   LIG    1        2.874   0.831   1.425  0.00  0.00    +0.220 C 
ATOM      9  O   LIG    1        4.312   0.726   1.316  0.00  0.00    -0.350 OA
ATOM     10  C   LIG    1        5.976   1.353  -0.368  0.00  0.00    +0.300 C 
ATOM     11  O   LIG    1        8.691   1.225  -1.105  0.00  0.00    -0.520 OA
ENDROOT
BRANCH   7  12
ATOM     12  N   LIG    1        1.143   1.902   0.001  0.00  0.00    -0.710 N 
ATOM     13  H   LIG    1        1.130   2.872   0.007  0.00  0.00    +0.410 HD
ATOM     14  C   LIG    1       -0.014   1.212   0.009  0.00  0.00    +0.610 C 
ATOM     15  O   LIG    1        0.002  -0.004   0.002  0.00  0.00    -0.520 OA
BRANCH  14  16
ATOM     16  C   LIG    1       -1.301   1.931   0.019  0.00  0.00    -0.010 A 
ATOM     17  N   LIG    1       -1.475   3.236   0.032  0.00  0.00    -0.200 NA
ATOM     18  N   LIG    1       -2.718   3.554   0.036  0.00  0.00    -0.410 N 
ATOM     19  H   LIG    1       -3.050   4.466   0.043  0.00  0.00    +0.450 HD
ATOM     20  C   LIG    1       -3.517   2.440   0.033  0.00  0.00    +0.060 A 
ATOM     21  C   LIG    1       -4.890   2.221   0.038  0.00  0.00    +0.010 A 
ATOM     22  C   LIG    1       -5.375   0.932   0.032  0.00  0.00    +0.060 A 
ATOM     23  C   LIG    1       -4.507  -0.152   0.021  0.00  0.00    +0.000 A 
ATOM     24  C   LIG    1       -3.154   0.041   0.017  0.00  0.00    +0.090 A 
ATOM     25  C   LIG    1       -2.643   1.335   0.022  0.00  0.00    -0.110 A 
ENDBRANCH  14  16
ENDBRANCH   7  12
BRANCH   1  26
ATOM     26  C   LIG    1        9.521   2.496   0.702  0.00  0.00    +0.330 C 
BRANCH  26  28
ATOM     27  C   LIG    1       11.321   3.178  -0.951  0.00  0.00    +0.330 C 
ATOM     28  N   LIG    1       10.811   2.244   0.056  0.00  0.00    -0.550 NA
BRANCH  28  29
ATOM     29  C   LIG    1       11.552   1.117   0.398  0.00  0.00    +0.320 C 
ATOM     30  C   LIG    1       11.087   0.219   1.358  0.00  0.00    -0.040 C 
ATOM     31  C   LIG    1       11.849  -0.889   1.665  0.00  0.00    +0.370 C 
ATOM     32  N   LIG    1       13.009  -1.098   1.071  0.00  0.00    -0.500 NA
ATOM     33  C   LIG    1       13.486  -0.269   0.161  0.00  0.00    +0.380 C 
ATOM     34  H   LIG    1       13.526  -1.883   1.310  0.00  0.00    +0.450 HD
ATOM     35  C   LIG    1       12.783   0.859  -0.206  0.00  0.00    -0.030 C 
ENDBRANCH  28  29
ENDBRANCH  26  28
ENDBRANCH   1  26
TORSDOF 5
