REMARK  Name = ZINCwl0000000qLU.0
REMARK                            x       y       z     vdW  Elec       q    Type
REMARK                         _______ _______ _______ _____ _____    ______ ____
ROOT
ATOM      1  C   LIG    1       10.614   5.040  -1.265  0.00  0.00    +0.510 C 
ATOM      2  N   LIG    1        9.437   4.899  -0.624  0.00  0.00    -0.610 N 
ATOM      3  C   LIG    1        8.912   5.799   0.420  0.00  0.00    +0.250 C 
ATOM      4  C   LIG    1        7.374   5.603   0.380  0.00  0.00    +0.050 C 
ATOM      5  C   LIG    1        7.264   4.096   0.069  0.00  0.00    +0.100 C 
ATOM      6  C   LIG    1        5.941   3.794  -0.648  0.00  0.00    +0.050 C 
ATOM      7  C   LIG    1        5.551   2.417  -0.039  0.00  0.00    +0.240 C 
ATOM      8  C   LIG    1        6.109   2.561   1.401  0.00  0.00    +0.210 C 
ATOM      9  O   LIG    1        7.324   3.320   1.259  0.00  0.00    -0.350 OA
ATOM     10  C   LIG    1        8.460   3.820  -0.851  0.00  0.00    +0.290 C 
ATOM     11  O   LIG    1       10.945   4.236  -2.110  0.00  0.00    -0.520 OA
ENDROOT
BRANCH   7  12
ATOM     12  N   LIG    1        4.097   2.239  -0.025  0.00  0.00    -0.720 N 
ATOM     13  H   LIG    1        3.513   3.014  -0.015  0.00  0.00    +0.400 HD
ATOM     14  C   LIG    1        3.570   0.998  -0.027  0.00  0.00    +0.600 C 
ATOM     15  O   LIG    1        4.303   0.026  -0.040  0.00  0.00    -0.510 OA
BRANCH  14  16
ATOM     16  C   LIG    1        2.117   0.820  -0.014  0.00  0.00    -0.050 A 
ATOM     17  C   LIG    1        1.420  -0.395  -0.014  0.00  0.00    -0.080 A 
ATOM     18  C   LIG    1        1.753  -1.756  -0.025  0.00  0.00    +0.070 A 
ATOM     19  C   LIG    1        0.762  -2.688  -0.020  0.00  0.00    +0.020 A 
ATOM     20  C   LIG    1       -0.584  -2.322  -0.005  0.00  0.00    +0.030 A 
ATOM     21  C   LIG    1       -0.973  -1.021   0.006  0.00  0.00    +0.070 A 
ATOM     22  C   LIG    1        0.002  -0.004   0.002  0.00  0.00    +0.050 A 
ATOM     23  N   LIG    1       -0.016   1.317   0.009  0.00  0.00    -0.250 NA
ATOM     24  N   LIG    1        1.174   1.802   0.001  0.00  0.00    -0.320 N 
ATOM     25  H   LIG    1        1.375   2.751   0.003  0.00  0.00    +0.450 HD
ENDBRANCH  14  16
ENDBRANCH   7  12
BRANCH   1  26
ATOM     26  C   LIG    1       11.519   6.197  -0.931  0.00  0.00    +0.330 C 
BRANCH  26  28
ATOM     27  C   LIG    1       12.762   6.794  -3.062  0.00  0.00    +0.330 C 
ATOM     28  N   LIG    1       12.727   6.127  -1.758  0.00  0.00    -0.550 NA
BRANCH  28  29
ATOM     29  C   LIG    1       13.841   5.427  -1.304  0.00  0.00    +0.320 C 
ATOM     30  C   LIG    1       13.829   4.790  -0.063  0.00  0.00    -0.040 C 
ATOM     31  C   LIG    1       14.952   4.103   0.347  0.00  0.00    +0.370 C 
ATOM     32  N   LIG    1       16.030   4.051  -0.413  0.00  0.00    -0.490 NA
ATOM     33  C   LIG    1       16.082   4.645  -1.591  0.00  0.00    +0.380 C 
ATOM     34  H   LIG    1       16.806   3.563  -0.097  0.00  0.00    +0.450 HD
ATOM     35  C   LIG    1       15.000   5.348  -2.076  0.00  0.00    -0.030 C 
ENDBRANCH  28  29
ENDBRANCH  26  28
ENDBRANCH   1  26
TORSDOF 5
