REMARK  Name = ZINCvU0000000HCE.0
REMARK                            x       y       z     vdW  Elec       q    Type
REMARK                         _______ _______ _______ _____ _____    ______ ____
ROOT
ATOM      1  C   LIG    1       -0.024   6.021   0.033  0.00  0.00    +0.380 C 
ATOM      2  C   LIG    1        0.912   7.184   0.033  0.00  0.00    -0.220 A 
ATOM      3  C   LIG    1        2.188   6.693   0.014  0.00  0.00    +0.080 A 
ATOM      4  C   LIG    1        2.116   5.223   0.014  0.00  0.00    +0.570 C 
ATOM      5  O   LIG    1        3.076   4.479   0.009  0.00  0.00    -0.450 OA
ATOM      6  O   LIG    1        3.273   7.489   0.003  0.00  0.00    -0.170 OA
ATOM      7  C   LIG    1        3.129   8.805   0.262  0.00  0.00    +0.170 A 
ATOM      8  C   LIG    1        1.883   9.436   0.296  0.00  0.00    -0.210 A 
ATOM      9  C   LIG    1        1.774  10.814   0.552  0.00  0.00    +0.100 A 
ATOM     10  C   LIG    1        2.877  11.566   0.783  0.00  0.00    +0.020 A 
ATOM     11  C   LIG    1        4.156  10.969   0.767  0.00  0.00    -0.000 A 
ATOM     12  C   LIG    1        5.308  11.733   1.012  0.00  0.00    +0.030 A 
ATOM     13  C   LIG    1        6.533  11.135   0.990  0.00  0.00    +0.040 A 
ATOM     14  C   LIG    1        6.660   9.774   0.727  0.00  0.00    +0.010 A 
ATOM     15  C   LIG    1        5.562   9.003   0.485  0.00  0.00    +0.050 A 
ATOM     16  C   LIG    1        4.287   9.586   0.503  0.00  0.00    -0.070 A 
ATOM     17  C   LIG    1        0.663   8.628   0.056  0.00  0.00    +0.460 A 
ATOM     18  O   LIG    1       -0.442   9.118  -0.106  0.00  0.00    -0.430 OA
ATOM     19  N   LIG    1        0.828   4.821   0.019  0.00  0.00    -0.500 N 
ENDROOT
BRANCH   1  24
ATOM     20  C   LIG    1       -3.293   6.090   4.797  0.00  0.00    +0.090 C 
ATOM     21  C   LIG    1       -2.441   6.072   3.555  0.00  0.00    -0.070 A 
ATOM     22  C   LIG    1       -2.966   6.498   2.349  0.00  0.00    +0.010 A 
ATOM     23  C   LIG    1       -2.184   6.482   1.210  0.00  0.00    +0.060 A 
ATOM     24  C   LIG    1       -0.876   6.039   1.275  0.00  0.00    -0.100 A 
ATOM     25  C   LIG    1       -0.352   5.608   2.479  0.00  0.00    +0.020 A 
ATOM     26  C   LIG    1       -1.133   5.629   3.620  0.00  0.00    +0.000 A 
ENDBRANCH   1  24
BRANCH  19  27
ATOM     27  C   LIG    1        0.384   3.506   0.017  0.00  0.00    +0.270 A 
ATOM     28  N   LIG    1       -0.860   3.142   0.026  0.00  0.00    -0.490 NA
ATOM     29  C   LIG    1       -1.103   1.845   0.017  0.00  0.00    +0.250 A 
ATOM     30  C   LIG    1       -0.013   1.076   0.008  0.00  0.00    -0.100 A 
ATOM     31  S   LIG    1        1.399   2.130   0.000  0.00  0.00    +0.210 S 
ENDBRANCH  19  27
TORSDOF 2
