REMARK  Name = ZINCqH0000004lis.0
REMARK                            x       y       z     vdW  Elec       q    Type
REMARK                         _______ _______ _______ _____ _____    ______ ____
ROOT
ATOM      1  N   LIG    1        2.553   3.916  -0.297  0.00  0.00    -0.490 N 
ATOM      2  C   LIG    1        1.912   2.774   0.369  0.00  0.00    +0.230 C 
ENDROOT
BRANCH   1   3
ATOM      3  C   LIG    1        1.637   4.949  -0.511  0.00  0.00    +0.230 A 
ATOM      4  C   LIG    1        0.667   4.825  -1.498  0.00  0.00    -0.020 A 
ATOM      5  C   LIG    1       -0.237   5.848  -1.707  0.00  0.00    +0.200 A 
ATOM      6  C   LIG    1       -0.174   6.996  -0.939  0.00  0.00    -0.670 A 
ATOM      7  C   LIG    1        0.786   7.120   0.049  0.00  0.00    +0.220 A 
ATOM      8  C   LIG    1        1.694   6.101   0.263  0.00  0.00    -0.040 A 
BRANCH   6   9
ATOM      9  S   LIG    1       -1.325   8.302  -1.213  0.00  0.00    +2.500 S 
ATOM     10  O   LIG    1       -1.706   8.152  -2.574  0.00  0.00    -0.920 OA
ATOM     11  O   LIG    1       -0.646   9.467  -0.766  0.00  0.00    -0.920 OA
ATOM     12  C   LIG    1       -2.718   7.916  -0.116  0.00  0.00    -0.240 C 
ENDBRANCH   6   9
BRANCH   8  13
ATOM     13  N   LIG    1        2.725   6.236   1.316  0.00  0.00    +0.030 N 
ATOM     14  O   LIG    1        3.571   5.372   1.454  0.00  0.00    -0.100 OA
ATOM     15  O   LIG    1        2.727   7.213   2.044  0.00  0.00    -0.190 OA
ENDBRANCH   8  13
ENDBRANCH   1   3
BRANCH   1  16
ATOM     16  C   LIG    1        3.185   3.503  -1.557  0.00  0.00    +0.150 C 
BRANCH  16  18
ATOM     17  C   LIG    1        2.695   1.053  -1.593  0.00  0.00    +0.000 C 
ATOM     18  C   LIG    1        3.787   2.106  -1.392  0.00  0.00    +0.030 C 
ENDBRANCH  16  18
BRANCH  16  19
ATOM     19  C   LIG    1        4.291   4.495  -1.922  0.00  0.00    +0.090 C 
BRANCH  19  20
ATOM     20  C   LIG    1        3.676   5.821  -2.288  0.00  0.00    -0.090 A 
ATOM     21  C   LIG    1        3.132   6.008  -3.545  0.00  0.00    +0.010 A 
ATOM     22  C   LIG    1        2.563   7.222  -3.879  0.00  0.00    +0.000 A 
ATOM     23  C   LIG    1        2.548   8.255  -2.959  0.00  0.00    -0.080 A 
ATOM     24  C   LIG    1        3.096   8.070  -1.704  0.00  0.00    +0.000 A 
ATOM     25  C   LIG    1        1.933   9.581  -3.325  0.00  0.00    +0.080 C 
ATOM     26  C   LIG    1        3.660   6.853  -1.368  0.00  0.00    -0.010 A 
ENDBRANCH  19  20
ENDBRANCH  16  19
ENDBRANCH   1  16
TORSDOF 7
