REMARK  Name = ZINCrH00000tj1i6.0
REMARK                            x       y       z     vdW  Elec       q    Type
REMARK                         _______ _______ _______ _____ _____    ______ ____
ROOT
ATOM      1  C   LIG    1       -3.562   6.800   0.906  0.00  0.00    +0.050 C 
ATOM      2  C   LIG    1       -3.631   5.927   2.161  0.00  0.00    +0.300 C 
ATOM      3  C   LIG    1       -3.628   6.809   3.404  0.00  0.00    -0.130 A 
ATOM      4  C   LIG    1       -4.721   6.990   4.169  0.00  0.00    -0.160 A 
ATOM      5  S   LIG    1       -4.343   8.072   5.504  0.00  0.00    +0.110 S 
ATOM      6  C   LIG    1       -2.682   8.228   4.952  0.00  0.00    -0.040 A 
ATOM      7  C   LIG    1       -6.071   6.352   3.922  0.00  0.00    +0.110 C 
ATOM      8  C   LIG    1       -6.136   5.862   2.467  0.00  0.00    +0.320 C 
ATOM      9  C   LIG    1       -2.507   7.500   3.853  0.00  0.00    +0.020 A 
ATOM     10  N   LIG    1       -4.882   5.155   2.162  0.00  0.00    -0.630 N 
ATOM     11  C   LIG    1       -4.881   3.836   1.885  0.00  0.00    +0.710 C 
ATOM     12  N   LIG    1       -3.741   3.230   1.500  0.00  0.00    -0.750 N 
ATOM     13  H   LIG    1       -2.907   3.725   1.490  0.00  0.00    +0.390 HD
ATOM     14  O   LIG    1       -5.909   3.194   1.983  0.00  0.00    -0.580 OA
ENDROOT
BRANCH  12  15
ATOM     15  C   LIG    1       -3.762   1.822   1.094  0.00  0.00    +0.310 C 
BRANCH  15  16
ATOM     16  C   LIG    1       -2.348   1.382   0.707  0.00  0.00    +0.060 C 
BRANCH  16  17
ATOM     17  C   LIG    1       -2.369  -0.066   0.290  0.00  0.00    +0.520 C 
ATOM     18  N   LIG    1       -1.216  -0.701   0.002  0.00  0.00    -0.550 N 
ATOM     19  C   LIG    1        0.053   0.038  -0.039  0.00  0.00    +0.270 C 
ATOM     20  C   LIG    1        0.818  -0.413  -1.290  0.00  0.00    +0.020 C 
ATOM     21  C   LIG    1        1.145  -1.901  -1.160  0.00  0.00    +0.080 C 
ATOM     22  C   LIG    1       -0.095  -2.686  -0.823  0.00  0.00    -0.120 A 
ATOM     23  C   LIG    1       -0.117  -4.046  -1.080  0.00  0.00    +0.020 A 
ATOM     24  C   LIG    1       -1.239  -4.795  -0.778  0.00  0.00    -0.020 A 
ATOM     25  C   LIG    1       -2.348  -4.189  -0.217  0.00  0.00    +0.030 A 
ATOM     26  C   LIG    1       -2.335  -2.832   0.040  0.00  0.00    +0.020 A 
ATOM     27  C   LIG    1       -1.208  -2.077  -0.263  0.00  0.00    +0.150 A 
ATOM     28  O   LIG    1       -3.424  -0.659   0.213  0.00  0.00    -0.510 OA
ENDBRANCH  16  17
ENDBRANCH  15  16
ENDBRANCH  12  15
TORSDOF 3
