REMARK  Name = ZINCbw0000000HcP.0
REMARK                            x       y       z     vdW  Elec       q    Type
REMARK                         _______ _______ _______ _____ _____    ______ ____
ROOT
ATOM      1  C   LIG    1       -2.188   0.813  -0.869  0.00  0.00    +0.000 C 
ATOM      2  C   LIG    1       -0.754   1.149  -0.457  0.00  0.00    +0.040 C 
ATOM      3  C   LIG    1       -0.508   0.662   0.975  0.00  0.00    +0.020 C 
ATOM      4  C   LIG    1       -1.567   1.256   1.877  0.00  0.00    +0.360 C 
ATOM      5  C   LIG    1       -3.019   1.101   1.470  0.00  0.00    +0.020 C 
ATOM      6  O   LIG    1       -1.262   1.837   2.891  0.00  0.00    -0.460 OA
ATOM      7  C   LIG    1       -3.174   1.572   0.020  0.00  0.00    +0.000 C 
ATOM      8  C   LIG    1       -4.603   1.300  -0.455  0.00  0.00    +0.030 C 
ENDROOT
BRANCH   1  10
ATOM      9  C   LIG    1       -2.058   2.694  -2.507  0.00  0.00    +0.020 C 
ATOM     10  C   LIG    1       -2.406   1.215  -2.329  0.00  0.00    -0.010 C 
ATOM     11  C   LIG    1       -1.507   0.367  -3.231  0.00  0.00    +0.010 C 
ENDBRANCH   1  10
TORSDOF 1
