REMARK  Name = ZINCqH0000033e7M.0
REMARK                            x       y       z     vdW  Elec       q    Type
REMARK                         _______ _______ _______ _____ _____    ______ ____
ROOT
ATOM      1  N   LIG    1        2.313   1.498  -0.015  0.00  0.00    -0.680 N 
ATOM      2  H   LIG    1        2.327   0.529   0.039  0.00  0.00    +0.410 HD
ATOM      3  C   LIG    1        1.139   2.158   0.019  0.00  0.00    +0.710 C 
ATOM      4  N   LIG    1       -0.021   1.472   0.008  0.00  0.00    -0.620 N 
ATOM      5  C   LIG    1       -0.005   0.008  -0.040  0.00  0.00    +0.280 C 
ATOM      6  O   LIG    1        1.125   3.373   0.059  0.00  0.00    -0.560 OA
ENDROOT
BRANCH   1  10
ATOM      7  C   LIG    1        5.889   3.533  -0.308  0.00  0.00    +0.310 A 
ATOM      8  C   LIG    1        4.744   4.136  -0.814  0.00  0.00    +0.010 A 
ATOM      9  C   LIG    1        3.535   3.469  -0.725  0.00  0.00    +0.080 A 
ATOM     10  C   LIG    1        3.515   2.210  -0.127  0.00  0.00    +0.130 A 
ATOM     11  C   LIG    1        4.698   1.674   0.360  0.00  0.00    +0.250 A 
ATOM     12  N   LIG    1        5.833   2.336   0.253  0.00  0.00    -0.460 NA
BRANCH   7  13
ATOM     13  N   LIG    1        7.114   4.198  -0.394  0.00  0.00    -0.560 N 
ATOM     14  C   LIG    1        7.856   4.102  -1.514  0.00  0.00    +0.530 C 
ATOM     15  O   LIG    1        8.874   4.752  -1.625  0.00  0.00    -0.530 OA
ATOM     16  C   LIG    1        7.422   3.187  -2.630  0.00  0.00    +0.100 C 
BRANCH  13  18
ATOM     17  C   LIG    1        8.425   4.121   1.669  0.00  0.00    +0.020 C 
ATOM     18  C   LIG    1        7.592   5.001   0.735  0.00  0.00    +0.280 C 
ENDBRANCH  13  18
ENDBRANCH   7  13
ENDBRANCH   1  10
BRANCH   4  19
ATOM     19  C   LIG    1       -1.298   2.190   0.039  0.00  0.00    +0.360 C 
BRANCH  19  20
ATOM     20  C   LIG    1       -1.728   2.389   1.469  0.00  0.00    -0.120 A 
ATOM     21  C   LIG    1       -1.338   3.524   2.156  0.00  0.00    +0.040 A 
ATOM     22  C   LIG    1       -1.733   3.707   3.468  0.00  0.00    +0.000 A 
ATOM     23  C   LIG    1       -2.517   2.756   4.093  0.00  0.00    -0.080 A 
ATOM     24  C   LIG    1       -2.908   1.622   3.406  0.00  0.00    -0.090 A 
ATOM     25  C   LIG    1       -3.764   0.585   4.087  0.00  0.00    +0.080 C 
ATOM     26  C   LIG    1       -2.948   2.956   5.523  0.00  0.00    +0.090 C 
ATOM     27  C   LIG    1       -2.517   1.441   2.092  0.00  0.00    +0.020 A 
ENDBRANCH  19  20
ENDBRANCH   4  19
TORSDOF 5
