REMARK  Name = ZINCnE000001PC4C.1
REMARK                            x       y       z     vdW  Elec       q    Type
REMARK                         _______ _______ _______ _____ _____    ______ ____
ROOT
ATOM      1  CA  LIG    1        0.621   3.957   4.821  0.00  0.00    +0.070 C 
ENDROOT
BRANCH   1   2
ATOM      2  C   LIG    1        1.298   4.245   6.136  0.00  0.00    +0.490 C 
ATOM      3  OXT LIG    1        0.647   4.666   7.077  0.00  0.00    -0.650 OA
ATOM      4  O   LIG    1        2.497   4.059   6.259  0.00  0.00    -0.650 OA
ENDBRANCH   1   2
BRANCH   1   5
ATOM      5  N   LIG    1        1.574   4.168   3.723  0.00  0.00    -0.480 N 
ATOM      6  H1  LIG    1        1.147   3.896   2.850  0.00  0.00    +0.400 HD
ATOM      7  H2  LIG    1        2.399   3.609   3.882  0.00  0.00    +0.430 HD
BRANCH   5   8
ATOM      8  C   LIG    1        1.947   5.587   3.664  0.00  0.00    +0.310 C 
BRANCH   8   9
ATOM      9  C   LIG    1        2.925   5.803   2.538  0.00  0.00    -0.090 A 
ATOM     10  C   LIG    1        2.506   6.406   1.366  0.00  0.00    -0.120 A 
ATOM     11  C   LIG    1        3.400   6.606   0.331  0.00  0.00    +0.030 A 
ATOM     12  C   LIG    1        4.715   6.205   0.465  0.00  0.00    -0.130 A 
ATOM     13  C   LIG    1        5.139   5.600   1.639  0.00  0.00    +0.280 A 
ATOM     14  O   LIG    1        6.433   5.205   1.773  0.00  0.00    -0.690 OA
ATOM     15  C   LIG    1        4.241   5.405   2.679  0.00  0.00    -0.170 A 
ATOM     16 CL   LIG    1        4.768   4.654   4.153  0.00  0.00    -0.070 Cl
ENDBRANCH   8   9
ENDBRANCH   5   8
ENDBRANCH   1   5
BRANCH   1  17
ATOM     17  C   LIG    1        0.137   2.505   4.805  0.00  0.00    +0.120 C 
BRANCH  17  22
ATOM     18  C   LIG    1       -2.866   1.540  -0.037  0.00  0.00    +0.090 C 
ATOM     19  C   LIG    1       -2.083   1.789   1.226  0.00  0.00    -0.090 A 
ATOM     20  C   LIG    1       -2.731   2.231   2.365  0.00  0.00    +0.010 A 
ATOM     21  C   LIG    1       -2.012   2.464   3.522  0.00  0.00    +0.020 A 
ATOM     22  C   LIG    1       -0.646   2.251   3.543  0.00  0.00    -0.100 A 
ATOM     23  C   LIG    1        0.001   1.806   2.405  0.00  0.00    -0.010 A 
ATOM     24  C   LIG    1       -0.718   1.572   1.248  0.00  0.00    -0.070 A 
ATOM     25  C   LIG    1       -0.013   1.086   0.008  0.00  0.00    +0.090 C 
ENDBRANCH  17  22
ENDBRANCH   1  17
TORSDOF 6
