REMARK  Name = ZINCrg000000sWoh.0
REMARK                            x       y       z     vdW  Elec       q    Type
REMARK                         _______ _______ _______ _____ _____    ______ ____
ROOT
ATOM      1  N   LIG    1       -3.203  -5.155   0.635  0.00  0.00    -0.700 N 
ATOM      2  H   LIG    1       -3.762  -4.835   1.360  0.00  0.00    +0.400 HD
ATOM      3  C   LIG    1       -2.267  -4.347   0.098  0.00  0.00    +0.570 C 
ATOM      4  O   LIG    1       -1.567  -4.748  -0.811  0.00  0.00    -0.520 OA
ENDROOT
BRANCH   3   5
ATOM      5  C   LIG    1       -2.092  -2.973   0.615  0.00  0.00    -0.090 A 
ATOM      6  C   LIG    1       -2.895  -2.510   1.659  0.00  0.00    +0.020 A 
ATOM      7  C   LIG    1       -2.730  -1.227   2.141  0.00  0.00    +0.050 A 
ATOM      8  C   LIG    1       -1.767  -0.398   1.596  0.00  0.00    +0.000 A 
ATOM      9  C   LIG    1       -0.966  -0.848   0.553  0.00  0.00    +0.210 A 
ATOM     10  C   LIG    1       -1.125  -2.134   0.062  0.00  0.00    +0.030 A 
BRANCH   9  11
ATOM     11  N   LIG    1        0.002  -0.004   0.002  0.00  0.00    -0.930 N 
ATOM     12  C   LIG    1       -0.018   1.466   0.010  0.00  0.00    +0.260 C 
ATOM     13  C   LIG    1        1.421   2.016  -0.001  0.00  0.00    +0.090 C 
ATOM     14  C   LIG    1        2.149   1.166  -1.082  0.00  0.00    -0.290 C 
ATOM     15  S   LIG    1        1.395  -0.480  -0.787  0.00  0.00    +2.560 S 
ATOM     16  O   LIG    1        0.950  -1.071  -2.001  0.00  0.00    -0.940 OA
ATOM     17  O   LIG    1        2.133  -1.220   0.176  0.00  0.00    -0.940 OA
ENDBRANCH   9  11
ENDBRANCH   3   5
BRANCH   1  18
ATOM     18  C   LIG    1       -3.377  -6.516   0.122  0.00  0.00    +0.250 C 
BRANCH  18  22
ATOM     19  N   LIG    1       -2.375  -8.748   0.488  0.00  0.00    -0.850 N 
ATOM     20  H   LIG    1       -1.745  -9.341   0.927  0.00  0.00    +0.400 HD
ATOM     21  H   LIG    1       -2.988  -9.098  -0.177  0.00  0.00    +0.400 HD
ATOM     22  C   LIG    1       -2.398  -7.438   0.803  0.00  0.00    +0.510 C 
ATOM     23  O   LIG    1       -1.631  -7.000   1.635  0.00  0.00    -0.530 OA
ENDBRANCH  18  22
BRANCH  18  24
ATOM     24  C   LIG    1       -4.804  -6.989   0.404  0.00  0.00    +0.110 C 
BRANCH  24  25
ATOM     25  C   LIG    1       -5.777  -6.143  -0.375  0.00  0.00    -0.090 A 
ATOM     26  C   LIG    1       -6.300  -4.994   0.188  0.00  0.00    +0.010 A 
ATOM     27  C   LIG    1       -7.189  -4.215  -0.529  0.00  0.00    +0.000 A 
ATOM     28  C   LIG    1       -7.563  -4.591  -1.805  0.00  0.00    +0.000 A 
ATOM     29  C   LIG    1       -7.045  -5.743  -2.367  0.00  0.00    +0.000 A 
ATOM     30  C   LIG    1       -6.152  -6.519  -1.652  0.00  0.00    +0.010 A 
ENDBRANCH  24  25
ENDBRANCH  18  24
ENDBRANCH   1  18
TORSDOF 6
