REMARK  Name = ZINCpk00000ebnFi.0
REMARK                            x       y       z     vdW  Elec       q    Type
REMARK                         _______ _______ _______ _____ _____    ______ ____
ROOT
ATOM      1  O   LIG    1        1.378   4.208   2.812  0.00  0.00    -0.350 OA
ENDROOT
BRANCH   1   2
ATOM      2  C   LIG    1        0.271   3.704   2.244  0.00  0.00    +0.470 C 
ATOM      3  O   LIG    1       -0.504   3.055   2.904  0.00  0.00    -0.480 OA
BRANCH   2   4
ATOM      4  C   LIG    1       -0.004   3.948   0.782  0.00  0.00    +0.080 C 
ATOM      5  C   LIG    1        1.137   3.370  -0.052  0.00  0.00    +0.320 C 
ATOM      6  N   LIG    1        1.138   1.910   0.001  0.00  0.00    -0.730 N 
ATOM      7  H   LIG    1        1.984   1.436   0.032  0.00  0.00    +0.410 HD
ATOM      8  C   LIG    1       -0.014   1.211   0.009  0.00  0.00    +0.570 C 
ATOM      9  C   LIG    1       -1.299   1.943   0.019  0.00  0.00    -0.120 A 
ATOM     10  C   LIG    1       -2.490   1.316  -0.328  0.00  0.00    +0.080 A 
ATOM     11  C   LIG    1       -3.672   2.032  -0.302  0.00  0.00    +0.010 A 
ATOM     12  C   LIG    1       -3.670   3.364   0.072  0.00  0.00    +0.040 A 
ATOM     13  C   LIG    1       -2.487   3.992   0.424  0.00  0.00    +0.020 A 
ATOM     14  O   LIG    1        0.002  -0.004   0.002  0.00  0.00    -0.520 OA
ATOM     15  C   LIG    1       -1.302   3.289   0.403  0.00  0.00    -0.050 A 
ENDBRANCH   2   4
ENDBRANCH   1   2
BRANCH   1  16
ATOM     16  C   LIG    1        1.578   3.933   4.223  0.00  0.00    +0.290 C 
BRANCH  16  20
ATOM     17  C   LIG    1        5.224   5.753   5.527  0.00  0.00    -0.110 A 
ATOM     18  C   LIG    1        4.812   5.878   4.199  0.00  0.00    +0.090 A 
ATOM     19  C   LIG    1        3.635   5.288   3.785  0.00  0.00    +0.070 A 
ATOM     20  C   LIG    1        2.862   4.574   4.683  0.00  0.00    -0.100 A 
ATOM     21  C   LIG    1        3.261   4.450   6.004  0.00  0.00    +0.100 A 
ATOM     22  F   LIG    1        2.498   3.756   6.877  0.00  0.00    -0.130 F 
ATOM     23  C   LIG    1        4.441   5.032   6.429  0.00  0.00    +0.020 A 
BRANCH  17  27
ATOM     24  N   LIG    1        6.879   6.259   7.258  0.00  0.00    -0.850 N 
ATOM     25  H   LIG    1        7.707   6.671   7.553  0.00  0.00    +0.410 HD
ATOM     26  H   LIG    1        6.336   5.758   7.887  0.00  0.00    +0.400 HD
ATOM     27  C   LIG    1        6.485   6.381   5.975  0.00  0.00    +0.560 C 
ATOM     28  O   LIG    1        7.165   7.008   5.187  0.00  0.00    -0.530 OA
ENDBRANCH  17  27
ENDBRANCH  16  20
ENDBRANCH   1  16
TORSDOF 5
