REMARK  Name = ZINCvU000000065M.0
REMARK                            x       y       z     vdW  Elec       q    Type
REMARK                         _______ _______ _______ _____ _____    ______ ____
ROOT
ATOM      1  O   LIG    1        5.087  14.306   0.610  0.00  0.00    -0.430 OA
ATOM      2  C   LIG    1        4.532  13.228   0.504  0.00  0.00    +0.440 A 
ATOM      3  C   LIG    1        5.320  11.979   0.428  0.00  0.00    -0.130 A 
ATOM      4  C   LIG    1        6.716  12.048   0.478  0.00  0.00    +0.090 A 
ATOM      5  C   LIG    1        7.467  10.895   0.410  0.00  0.00    +0.030 A 
ATOM      6  C   LIG    1        6.852   9.659   0.291  0.00  0.00    +0.050 A 
ATOM      7  C   LIG    1        5.477   9.566   0.239  0.00  0.00    +0.050 A 
ATOM      8  C   LIG    1        4.698  10.718   0.305  0.00  0.00    +0.020 A 
ATOM      9  C   LIG    1        3.225  10.632   0.251  0.00  0.00    +0.170 A 
ATOM     10  N   LIG    1        2.316   9.694   0.144  0.00  0.00    -0.210 NA
ATOM     11  N   LIG    1        1.027  10.264   0.148  0.00  0.00    -0.370 N 
ATOM     12  C   LIG    1        1.128  11.631   0.257  0.00  0.00    +0.130 A 
ATOM     13  C   LIG    1        0.288  12.738   0.326  0.00  0.00    +0.080 A 
ATOM     14  C   LIG    1        0.833  14.006   0.447  0.00  0.00    +0.060 A 
ATOM     15  C   LIG    1        2.202  14.234   0.510  0.00  0.00    +0.090 A 
ATOM     16  C   LIG    1       -0.128   9.575   0.054  0.00  0.00    +0.600 C 
ATOM     17  O   LIG    1       -1.185  10.168  -0.026  0.00  0.00    -0.480 OA
ATOM     18  C   LIG    1        2.491  11.882   0.329  0.00  0.00    -0.150 A 
ATOM     19  C   LIG    1        3.065  13.143   0.450  0.00  0.00    -0.100 A 
ENDROOT
BRANCH  16  20
ATOM     20  C   LIG    1       -0.108   8.099   0.048  0.00  0.00    -0.150 A 
ATOM     21  C   LIG    1       -1.308   7.383   0.093  0.00  0.00    +0.100 A 
ATOM     22  C   LIG    1       -1.288   6.007   0.087  0.00  0.00    +0.010 A 
ATOM     23  C   LIG    1       -0.071   5.327   0.035  0.00  0.00    -0.000 A 
ATOM     24  C   LIG    1        1.128   6.040  -0.005  0.00  0.00    +0.000 A 
ATOM     25  C   LIG    1        1.111   7.416  -0.004  0.00  0.00    +0.100 A 
BRANCH  23  26
ATOM     26  C   LIG    1       -0.051   3.844   0.029  0.00  0.00    -0.060 A 
ATOM     27  C   LIG    1        1.163   3.161  -0.023  0.00  0.00    +0.030 A 
ATOM     28  C   LIG    1        1.176   1.781  -0.029  0.00  0.00    +0.010 A 
ATOM     29  C   LIG    1       -0.013   1.076   0.017  0.00  0.00    +0.020 A 
ATOM     30  C   LIG    1       -1.221   1.748   0.063  0.00  0.00    +0.010 A 
ATOM     31  C   LIG    1       -1.246   3.128   0.075  0.00  0.00    +0.030 A 
ENDBRANCH  23  26
ENDBRANCH  16  20
TORSDOF 2
