REMARK  Name = ZINCkj000005h4kf.0
REMARK                            x       y       z     vdW  Elec       q    Type
REMARK                         _______ _______ _______ _____ _____    ______ ____
ROOT
ATOM      1  C   LIG    1       -2.675   2.448  -2.414  0.00  0.00    -0.120 A 
ATOM      2  C   LIG    1       -1.920   2.714  -3.557  0.00  0.00    +0.120 A 
ATOM      3  C   LIG    1       -0.623   2.256  -3.640  0.00  0.00    +0.020 A 
ATOM      4  C   LIG    1       -0.073   1.535  -2.593  0.00  0.00    +0.150 A 
ATOM      5  C   LIG    1       -0.820   1.266  -1.450  0.00  0.00    -0.180 A 
ATOM      6  C   LIG    1       -0.176   0.475  -0.342  0.00  0.00    +0.350 C 
ATOM      7  N   LIG    1       -0.907   0.659   0.915  0.00  0.00    -0.500 N 
ATOM      8  H   LIG    1       -0.821   1.618   1.219  0.00  0.00    +0.430 HD
ATOM      9  H   LIG    1       -0.528   0.045   1.620  0.00  0.00    +0.440 HD
ATOM     10  C   LIG    1       -2.325   0.338   0.697  0.00  0.00    +0.290 C 
ATOM     11  C   LIG    1       -2.955   1.457  -0.134  0.00  0.00    +0.140 C 
ATOM     12  F   LIG    1        1.199   1.091  -2.682  0.00  0.00    -0.120 F 
ATOM     13  C   LIG    1       -2.114   1.720  -1.357  0.00  0.00    -0.010 A 
ENDROOT
BRANCH   1  16
ATOM     14  C   LIG    1       -3.283   5.138  -3.006  0.00  0.00    +0.290 C 
ATOM     15  N   LIG    1       -4.343   4.232  -2.556  0.00  0.00    -0.590 N 
ATOM     16  C   LIG    1       -4.066   2.935  -2.318  0.00  0.00    +0.560 C 
ATOM     17  O   LIG    1       -4.960   2.166  -2.023  0.00  0.00    -0.520 OA
BRANCH  15  18
ATOM     18  C   LIG    1       -5.705   4.737  -2.366  0.00  0.00    +0.220 C 
ATOM     19  C   LIG    1       -6.244   5.350  -3.678  0.00  0.00    -0.000 C 
ATOM     20  C   LIG    1       -6.511   6.828  -3.319  0.00  0.00    +0.210 C 
ATOM     21  O   LIG    1       -5.643   7.099  -2.198  0.00  0.00    -0.370 OA
ATOM     22  C   LIG    1       -5.711   5.915  -1.367  0.00  0.00    +0.210 C 
ENDBRANCH  15  18
ENDBRANCH   1  16
TORSDOF 2
