REMARK  Name = ZINCpe00000gM4tW.1
REMARK                            x       y       z     vdW  Elec       q    Type
REMARK                         _______ _______ _______ _____ _____    ______ ____
ROOT
ATOM      1  C   LIG    1       -2.193  -0.290  -3.561  0.00  0.00    +0.590 C 
ATOM      2  N   LIG    1       -1.356  -0.593  -2.549  0.00  0.00    -0.710 N 
ATOM      3  H   LIG    1       -1.638  -1.209  -1.855  0.00  0.00    +0.410 HD
ATOM      4  O   LIG    1       -1.840   0.483  -4.430  0.00  0.00    -0.520 OA
ENDROOT
BRANCH   1   7
ATOM      5  N   LIG    1       -5.078  -2.286  -2.673  0.00  0.00    -0.330 N 
ATOM      6  N   LIG    1       -3.919  -1.732  -2.672  0.00  0.00    -0.180 NA
ATOM      7  C   LIG    1       -3.540  -0.898  -3.614  0.00  0.00    +0.020 A 
ATOM      8  C   LIG    1       -4.420  -0.574  -4.675  0.00  0.00    +0.130 A 
ATOM      9  C   LIG    1       -5.651  -1.157  -4.693  0.00  0.00    -0.020 A 
ATOM     10  C   LIG    1       -5.979  -2.044  -3.643  0.00  0.00    +0.480 A 
ATOM     11  O   LIG    1       -7.072  -2.586  -3.615  0.00  0.00    -0.520 OA
BRANCH   5  13
ATOM     12  C   LIG    1       -5.023  -4.630  -1.978  0.00  0.00    +0.030 C 
ATOM     13  C   LIG    1       -5.428  -3.207  -1.589  0.00  0.00    +0.310 C 
ENDBRANCH   5  13
ENDBRANCH   1   7
BRANCH   2  14
ATOM     14  C   LIG    1       -0.022   0.009  -2.496  0.00  0.00    +0.290 C 
BRANCH  14  15
ATOM     15  C   LIG    1        0.718  -0.497  -1.257  0.00  0.00    -0.010 C 
ATOM     16  C   LIG    1        0.002  -0.004   0.002  0.00  0.00    +0.020 C 
ATOM     17  C   LIG    1       -0.019   1.526   0.010  0.00  0.00    +0.010 C 
ATOM     18  C   LIG    1        1.417   2.055  -0.000  0.00  0.00    +0.010 C 
ATOM     19  C   LIG    1        2.133   1.562  -1.259  0.00  0.00    +0.030 C 
ATOM     20  C   LIG    1        2.154   0.032  -1.268  0.00  0.00    +0.150 C 
BRANCH  20  21
ATOM     21  N   LIG    1        2.841  -0.442  -2.476  0.00  0.00    -0.530 NA
ATOM     22  C   LIG    1        2.805  -1.909  -2.562  0.00  0.00    +0.140 C 
ATOM     23  C   LIG    1        3.478  -2.355  -3.862  0.00  0.00    +0.220 C 
ATOM     24  O   LIG    1        4.813  -1.843  -3.902  0.00  0.00    -0.390 OA
ATOM     25  C   LIG    1        4.886  -0.417  -3.822  0.00  0.00    +0.220 C 
ATOM     26  C   LIG    1        4.226   0.049  -2.521  0.00  0.00    +0.150 C 
ENDBRANCH  20  21
ENDBRANCH  14  15
ENDBRANCH   2  14
TORSDOF 5
