REMARK  Name = ZINCb80000002tFo.0
REMARK                            x       y       z     vdW  Elec       q    Type
REMARK                         _______ _______ _______ _____ _____    ______ ____
ROOT
ATOM      1  C   LIG    1       -0.698   2.967   0.024  0.00  0.00    +0.160 A 
ATOM      2  N   LIG    1       -1.067   1.704   0.016  0.00  0.00    -0.240 NA
ATOM      3  N   LIG    1       -0.011   0.966   0.007  0.00  0.00    -0.390 N 
ATOM      4  H   LIG    1        0.002  -0.004   0.002  0.00  0.00    +0.450 HD
ATOM      5  C   LIG    1        1.071   1.767   0.001  0.00  0.00    +0.230 A 
ATOM      6  C   LIG    1        2.509   1.319  -0.014  0.00  0.00    +0.210 C 
ATOM      7  N   LIG    1        0.647   3.005   0.011  0.00  0.00    -0.450 NA
ENDROOT
BRANCH   1   8
ATOM      8  C   LIG    1       -1.601   4.136   0.039  0.00  0.00    +0.570 C 
ATOM      9  O   LIG    1       -1.140   5.260   0.040  0.00  0.00    -0.470 OA
BRANCH   8  10
ATOM     10  O   LIG    1       -2.936   3.957   0.050  0.00  0.00    -0.340 OA
BRANCH  10  12
ATOM     11  C   LIG    1       -5.239   4.750   0.076  0.00  0.00    +0.070 C 
ATOM     12  C   LIG    1       -3.762   5.151   0.064  0.00  0.00    +0.220 C 
ENDBRANCH  10  12
ENDBRANCH   8  10
ENDBRANCH   1   8
TORSDOF 3
