REMARK  Name = ZINCrD000000D57q.2
REMARK                            x       y       z     vdW  Elec       q    Type
REMARK                         _______ _______ _______ _____ _____    ______ ____
ROOT
ATOM      1  N   LIG    1        4.943   1.694   0.988  0.00  0.00    -1.050 N 
ATOM      2  H   LIG    1        5.192   2.326   1.680  0.00  0.00    +0.430 HD
ENDROOT
BRANCH   1   3
ATOM      3  C   LIG    1        5.203   0.331   1.159  0.00  0.00    +0.160 A 
ATOM      4  C   LIG    1        4.222  -0.607   0.858  0.00  0.00    +0.010 A 
ATOM      5  C   LIG    1        4.476  -1.956   1.021  0.00  0.00    +0.040 A 
ATOM      6  C   LIG    1        5.703  -2.381   1.494  0.00  0.00    +0.100 A 
ATOM      7  C   LIG    1        6.693  -1.445   1.803  0.00  0.00    -0.020 A 
ATOM      8  F   LIG    1        5.945  -3.700   1.656  0.00  0.00    -0.140 F 
ATOM      9  C   LIG    1        6.438  -0.085   1.633  0.00  0.00    +0.100 A 
BRANCH   7  10
ATOM     10  C   LIG    1        8.008  -1.895   2.310  0.00  0.00    +0.210 A 
ATOM     11  N   LIG    1        9.024  -1.129   2.639  0.00  0.00    -0.260 NA
ATOM     12  N   LIG    1       10.005  -1.857   3.040  0.00  0.00    -0.290 NA
ATOM     13  C   LIG    1        9.675  -3.120   2.990  0.00  0.00    +0.400 A 
ATOM     14  N   LIG    1        8.396  -3.189   2.530  0.00  0.00    -0.580 N 
ATOM     15  H   LIG    1        7.868  -3.991   2.387  0.00  0.00    +0.430 HD
ENDBRANCH   7  10
ENDBRANCH   1   3
BRANCH   1  17
ATOM     16  O   LIG    1        4.883   1.599  -1.478  0.00  0.00    -0.930 OA
ATOM     17  S   LIG    1        4.210   2.229  -0.397  0.00  0.00    +2.690 S 
ATOM     18  O   LIG    1        4.095   3.640  -0.271  0.00  0.00    -0.930 OA
BRANCH  17  19
ATOM     19  C   LIG    1        2.566   1.594  -0.396  0.00  0.00    -0.690 A 
ATOM     20  C   LIG    1        2.171   0.697  -1.370  0.00  0.00    +0.170 A 
ATOM     21  C   LIG    1        0.882   0.198  -1.369  0.00  0.00    +0.000 A 
ATOM     22  C   LIG    1       -0.015   0.595  -0.395  0.00  0.00    +0.130 A 
ATOM     23  C   LIG    1        0.375   1.492   0.581  0.00  0.00    -0.060 A 
ATOM     24  C   LIG    1        1.668   1.994   0.582  0.00  0.00    +0.210 A 
BRANCH  24  25
ATOM     25  O   LIG    1        2.054   2.877   1.541  0.00  0.00    -0.310 OA
BRANCH  25  26
ATOM     26  C   LIG    1        1.047   3.334   2.446  0.00  0.00    +0.610 C 
ATOM     27  F   LIG    1       -0.014   3.888   1.721  0.00  0.00    -0.160 F 
ATOM     28  F   LIG    1        1.588   4.304   3.295  0.00  0.00    -0.120 F 
ATOM     29  F   LIG    1        0.580   2.256   3.207  0.00  0.00    -0.160 F 
ENDBRANCH  25  26
ENDBRANCH  24  25
ENDBRANCH  17  19
ENDBRANCH   1  17
TORSDOF 6
