REMARK  Name = ZINCvU00000007a2.0
REMARK                            x       y       z     vdW  Elec       q    Type
REMARK                         _______ _______ _______ _____ _____    ______ ____
ROOT
ATOM      1  C   LIG    1        8.134  -4.436  -0.707  0.00  0.00    +0.240 C 
ATOM      2  C   LIG    1        6.872  -4.142  -1.521  0.00  0.00    +0.020 C 
ATOM      3  C   LIG    1        6.598  -2.637  -1.511  0.00  0.00    +0.040 C 
ATOM      4  C   LIG    1        6.396  -2.165  -0.069  0.00  0.00    +0.080 C 
ATOM      5  C   LIG    1        7.657  -2.459   0.745  0.00  0.00    +0.030 C 
ATOM      6  C   LIG    1        7.932  -3.964   0.735  0.00  0.00    +0.010 C 
ENDROOT
BRANCH   4   7
ATOM      7  C   LIG    1        6.125  -0.683  -0.059  0.00  0.00    +0.070 A 
ATOM      8  C   LIG    1        7.114   0.221  -0.064  0.00  0.00    -0.060 A 
ATOM      9  S   LIG    1        6.390   1.828  -0.049  0.00  0.00    +0.110 S 
ATOM     10  C   LIG    1        4.786   1.100  -0.038  0.00  0.00    +0.100 A 
ATOM     11  N   LIG    1        4.908  -0.197  -0.040  0.00  0.00    -0.420 NA
BRANCH  10  12
ATOM     12  C   LIG    1        3.508   1.841  -0.022  0.00  0.00    +0.220 A 
ATOM     13  N   LIG    1        2.372   1.168  -0.014  0.00  0.00    -0.430 NA
ATOM     14  C   LIG    1        1.194   1.798   0.000  0.00  0.00    +0.130 A 
ATOM     15  C   LIG    1       -0.013   1.076   0.008  0.00  0.00    +0.050 A 
ATOM     16  C   LIG    1       -1.199   1.743   0.017  0.00  0.00    +0.030 A 
ATOM     17  C   LIG    1       -1.240   3.135   0.032  0.00  0.00    +0.020 A 
ATOM     18  C   LIG    1       -0.092   3.869   0.024  0.00  0.00    +0.030 A 
ATOM     19  C   LIG    1        1.149   3.215   0.008  0.00  0.00    -0.100 A 
ATOM     20  C   LIG    1        2.357   3.942  -0.000  0.00  0.00    +0.100 A 
ATOM     21  C   LIG    1        3.529   3.247  -0.015  0.00  0.00    -0.020 A 
ENDBRANCH  10  12
ENDBRANCH   4   7
BRANCH   1  24
ATOM     22  O   LIG    1       10.561  -5.553  -0.350  0.00  0.00    -0.530 OA
ATOM     23  C   LIG    1        9.651  -6.334  -0.528  0.00  0.00    +0.520 C 
ATOM     24  N   LIG    1        8.397  -5.877  -0.717  0.00  0.00    -0.730 N 
ATOM     25  H   LIG    1        7.669  -6.502  -0.859  0.00  0.00    +0.400 HD
BRANCH  23  26
ATOM     26  C   LIG    1        9.921  -7.817  -0.538  0.00  0.00    +0.070 C 
BRANCH  26  27
ATOM     27  C   LIG    1       11.412  -8.065  -0.303  0.00  0.00    +0.180 C 
ATOM     28  C   LIG    1       11.668  -9.570  -0.190  0.00  0.00    -0.010 C 
ATOM     29  C   LIG    1       13.170  -9.813  -0.015  0.00  0.00    +0.010 C 
ATOM     30  C   LIG    1       13.919  -9.183  -1.193  0.00  0.00    -0.020 C 
ATOM     31  C   LIG    1       13.576  -7.692  -1.267  0.00  0.00    +0.200 C 
ATOM     32  O   LIG    1       12.162  -7.536  -1.399  0.00  0.00    -0.370 OA
ENDBRANCH  26  27
ENDBRANCH  23  26
ENDBRANCH   1  24
TORSDOF 5
