REMARK  Name = ZINCtV00000L6kW1.0
REMARK                            x       y       z     vdW  Elec       q    Type
REMARK                         _______ _______ _______ _____ _____    ______ ____
ROOT
ATOM      1  C   LIG    1        2.389  -4.774  -0.046  0.00  0.00    +0.180 A 
ATOM      2  C   LIG    1        2.619  -6.172  -0.055  0.00  0.00    -0.150 A 
ATOM      3  C   LIG    1        3.868  -6.923  -0.071  0.00  0.00    -0.040 A 
ATOM      4  C   LIG    1        3.715  -8.246  -0.076  0.00  0.00    +0.000 A 
ATOM      5  S   LIG    1        2.019  -8.690  -0.063  0.00  0.00    +0.190 S 
ATOM      6  C   LIG    1        1.503  -7.011  -0.050  0.00  0.00    +0.100 A 
ATOM      7  N   LIG    1        0.280  -6.466  -0.036  0.00  0.00    -0.490 NA
ATOM      8  C   LIG    1        0.118  -5.163  -0.028  0.00  0.00    +0.530 A 
ATOM      9  N   LIG    1        1.141  -4.328  -0.027  0.00  0.00    -0.450 NA
ENDROOT
BRANCH   3  10
ATOM     10  C   LIG    1        5.198  -6.268  -0.079  0.00  0.00    -0.040 A 
ATOM     11  C   LIG    1        5.477  -5.263  -1.004  0.00  0.00    +0.030 A 
ATOM     12  C   LIG    1        6.716  -4.654  -1.003  0.00  0.00    +0.020 A 
ATOM     13  C   LIG    1        7.682  -5.046  -0.095  0.00  0.00    -0.080 A 
ATOM     14  C   LIG    1        7.413  -6.047   0.821  0.00  0.00    +0.020 A 
ATOM     15  C   LIG    1        9.035  -4.381  -0.103  0.00  0.00    +0.090 C 
ATOM     16  C   LIG    1        6.176  -6.660   0.834  0.00  0.00    +0.040 A 
ENDBRANCH   3  10
BRANCH   1  17
ATOM     17  S   LIG    1        3.742  -3.645  -0.052  0.00  0.00    +0.210 S 
BRANCH  17  26
ATOM     18  N   LIG    1        3.445  -0.879  -0.035  0.00  0.00    -0.470 N 
ATOM     19  C   LIG    1        2.422   0.053  -0.021  0.00  0.00    +0.060 A 
ATOM     20  C   LIG    1        2.384   1.439  -0.013  0.00  0.00    +0.010 A 
ATOM     21  C   LIG    1        1.169   2.093   0.002  0.00  0.00    +0.030 A 
ATOM     22  C   LIG    1       -0.017   1.373   0.010  0.00  0.00    +0.000 A 
ATOM     23  C   LIG    1        0.002  -0.004   0.002  0.00  0.00    +0.070 A 
ATOM     24  C   LIG    1        1.224  -0.681  -0.013  0.00  0.00    +0.040 A 
ATOM     25  N   LIG    1        1.562  -1.997  -0.023  0.00  0.00    -0.420 NA
ATOM     26  C   LIG    1        2.866  -2.116  -0.036  0.00  0.00    +0.200 A 
BRANCH  18  27
ATOM     27  C   LIG    1        4.882  -0.593  -0.048  0.00  0.00    +0.340 C 
BRANCH  27  29
ATOM     28  C   LIG    1        5.991   0.589  -1.874  0.00  0.00    +0.060 C 
ATOM     29  C   LIG    1        5.361  -0.487  -1.473  0.00  0.00    -0.070 C 
ENDBRANCH  27  29
ENDBRANCH  18  27
ENDBRANCH  17  26
ENDBRANCH   1  17
TORSDOF 5
