REMARK  Name = ZINCqH00000082B8.0
REMARK                            x       y       z     vdW  Elec       q    Type
REMARK                         _______ _______ _______ _____ _____    ______ ____
ROOT
ATOM      1  C   LIG    1        2.135  -3.922  -1.037  0.00  0.00    +0.490 C 
ATOM      2  N   LIG    1        2.360  -2.669  -0.595  0.00  0.00    -0.720 N 
ATOM      3  H   LIG    1        1.640  -2.160  -0.191  0.00  0.00    +0.400 HD
ATOM      4  O   LIG    1        3.035  -4.558  -1.542  0.00  0.00    -0.500 OA
ENDROOT
BRANCH   1   5
ATOM      5  C   LIG    1        0.764  -4.532  -0.904  0.00  0.00    +0.330 C 
BRANCH   5  14
ATOM      6  C   LIG    1        0.508  -6.241  -2.740  0.00  0.00    +0.300 A 
ATOM      7  N   LIG    1        0.616  -7.530  -2.884  0.00  0.00    -0.470 NA
ATOM      8  C   LIG    1        0.954  -8.095  -1.697  0.00  0.00    +0.050 A 
ATOM      9  C   LIG    1        1.189  -9.410  -1.288  0.00  0.00    +0.070 A 
ATOM     10  C   LIG    1        1.520  -9.670   0.012  0.00  0.00    +0.000 A 
ATOM     11  C   LIG    1        1.627  -8.639   0.935  0.00  0.00    +0.030 A 
ATOM     12  C   LIG    1        1.400  -7.333   0.553  0.00  0.00    +0.010 A 
ATOM     13  C   LIG    1        1.063  -7.051  -0.763  0.00  0.00    +0.060 A 
ATOM     14  N   LIG    1        0.778  -5.890  -1.454  0.00  0.00    -0.470 N 
BRANCH   6  15
ATOM     15  C   LIG    1        0.141  -5.278  -3.839  0.00  0.00    +0.200 C 
BRANCH  15  17
ATOM     16  C   LIG    1        1.010  -3.582  -5.944  0.00  0.00    +0.140 C 
ATOM     17  S   LIG    1        1.647  -4.713  -4.677  0.00  0.00    -0.200 S 
ENDBRANCH  15  17
ENDBRANCH   6  15
ENDBRANCH   5  14
ENDBRANCH   1   5
BRANCH   2  18
ATOM     18  C   LIG    1        3.693  -2.075  -0.725  0.00  0.00    +0.320 C 
BRANCH  18  19
ATOM     19  C   LIG    1        3.709  -0.704  -0.046  0.00  0.00    -0.110 C 
ATOM     20  C   LIG    1        3.868  -0.670   1.475  0.00  0.00    +0.040 C 
ATOM     21  C   LIG    1        5.027  -0.237   0.574  0.00  0.00    +0.050 C 
BRANCH  19  22
ATOM     22  C   LIG    1        2.828   0.344  -0.677  0.00  0.00    -0.050 A 
ATOM     23  C   LIG    1        3.109   0.809  -1.948  0.00  0.00    +0.010 A 
ATOM     24  C   LIG    1        2.301   1.770  -2.527  0.00  0.00    +0.000 A 
ATOM     25  C   LIG    1        1.212   2.266  -1.835  0.00  0.00    +0.000 A 
ATOM     26  C   LIG    1        0.931   1.800  -0.564  0.00  0.00    +0.000 A 
ATOM     27  C   LIG    1        1.739   0.840   0.015  0.00  0.00    +0.000 A 
ENDBRANCH  19  22
ENDBRANCH  18  19
ENDBRANCH   2  18
TORSDOF 7
