REMARK  Name = ZINCpk00000y5qHW.0
REMARK                            x       y       z     vdW  Elec       q    Type
REMARK                         _______ _______ _______ _____ _____    ______ ____
ROOT
ATOM      1  C   LIG    1       -1.263  -0.763   0.009  0.00  0.00    +0.590 C 
ATOM      2  N   LIG    1       -2.438  -0.114   0.126  0.00  0.00    -0.610 N 
ATOM      3  C   LIG    1       -2.612   1.346   0.147  0.00  0.00    +0.240 C 
ATOM      4  C   LIG    1       -4.120   1.626   0.321  0.00  0.00    +0.060 C 
ATOM      5  C   LIG    1       -4.646   0.311   0.954  0.00  0.00    +0.140 C 
ATOM      6  C   LIG    1       -3.763  -0.749   0.245  0.00  0.00    +0.280 C 
ATOM      7  O   LIG    1       -1.245  -1.975  -0.086  0.00  0.00    -0.530 OA
ENDROOT
BRANCH   1  12
ATOM      8  C   LIG    1        3.670   2.203  -0.040  0.00  0.00    +0.100 C 
ATOM      9  C   LIG    1        2.380   1.424  -0.024  0.00  0.00    -0.050 A 
ATOM     10  C   LIG    1        1.318   1.835  -0.813  0.00  0.00    -0.010 A 
ATOM     11  C   LIG    1        0.134   1.130  -0.807  0.00  0.00    +0.060 A 
ATOM     12  C   LIG    1        0.002  -0.004  -0.002  0.00  0.00    -0.160 A 
ATOM     13  C   LIG    1        1.079  -0.416   0.796  0.00  0.00    +0.160 A 
ATOM     14  C   LIG    1        2.263   0.305   0.777  0.00  0.00    -0.010 A 
BRANCH  13  15
ATOM     15  O   LIG    1        0.963  -1.516   1.582  0.00  0.00    -0.490 OA
ATOM     16  H   LIG    1        1.226  -2.339   1.148  0.00  0.00    +0.400 HD
ENDBRANCH  13  15
ENDBRANCH   1  12
BRANCH   5  17
ATOM     17  N   LIG    1       -6.066   0.106   0.639  0.00  0.00    -0.520 NA
ATOM     18  C   LIG    1       -6.872   1.257   1.068  0.00  0.00    +0.190 C 
BRANCH  17  19
ATOM     19  C   LIG    1       -6.564  -1.139   1.239  0.00  0.00    +0.290 C 
BRANCH  19  20
ATOM     20  C   LIG    1       -7.938  -1.442   0.699  0.00  0.00    +0.370 A 
ATOM     21  N   LIG    1       -8.994  -0.972   1.332  0.00  0.00    -0.560 NA
ATOM     22  C   LIG    1      -10.220  -1.210   0.888  0.00  0.00    +0.350 A 
ATOM     23  C   LIG    1      -10.387  -1.973  -0.251  0.00  0.00    -0.160 A 
ATOM     24  C   LIG    1       -9.248  -2.461  -0.895  0.00  0.00    +0.440 A 
ATOM     25  N   LIG    1       -8.051  -2.174  -0.391  0.00  0.00    -0.560 NA
BRANCH  24  26
ATOM     26  N   LIG    1       -9.362  -3.231  -2.041  0.00  0.00    -0.840 N 
ATOM     27  H   LIG    1      -10.239  -3.435  -2.402  0.00  0.00    +0.410 HD
ATOM     28  H   LIG    1       -8.566  -3.566  -2.482  0.00  0.00    +0.410 HD
ENDBRANCH  24  26
ENDBRANCH  19  20
ENDBRANCH  17  19
ENDBRANCH   5  17
TORSDOF 6
