REMARK  Name = ZINCqH0000032kvA.0
REMARK                            x       y       z     vdW  Elec       q    Type
REMARK                         _______ _______ _______ _____ _____    ______ ____
ROOT
ATOM      1  N   LIG    1        6.855   1.938  -0.098  0.00  0.00    -0.470 NA
ATOM      2  C   LIG    1        5.712   1.869  -1.035  0.00  0.00    +0.200 C 
ATOM      3  C   LIG    1        4.823   1.771   0.217  0.00  0.00    +0.040 C 
ATOM      4  C   LIG    1        5.973   2.463   0.971  0.00  0.00    +0.200 C 
ENDROOT
BRANCH   3   5
ATOM      5  C   LIG    1        3.566   2.598   0.136  0.00  0.00    +0.230 A 
ATOM      6  N   LIG    1        3.626   3.900  -0.056  0.00  0.00    -0.530 NA
ATOM      7  C   LIG    1        2.531   4.643  -0.130  0.00  0.00    +0.500 A 
ATOM      8  N   LIG    1        1.324   4.144  -0.018  0.00  0.00    -0.510 NA
ATOM      9  C   LIG    1        1.153   2.831   0.180  0.00  0.00    +0.160 A 
ATOM     10  C   LIG    1       -0.121   2.257   0.304  0.00  0.00    +0.040 A 
ATOM     11  C   LIG    1       -0.237   0.914   0.504  0.00  0.00    +0.060 A 
ATOM     12  C   LIG    1        0.890   0.099   0.588  0.00  0.00    +0.010 A 
ATOM     13  C   LIG    1        2.143   0.622   0.471  0.00  0.00    +0.060 A 
ATOM     14  C   LIG    1        2.300   2.000   0.265  0.00  0.00    -0.160 A 
ENDBRANCH   3   5
BRANCH   1  15
ATOM     15  C   LIG    1        7.827   2.953  -0.526  0.00  0.00    +0.200 C 
BRANCH  15  19
ATOM     16  C   LIG    1       11.387   2.595   1.817  0.00  0.00    +0.110 A 
ATOM     17  C   LIG    1       11.257   1.884   0.635  0.00  0.00    -0.070 A 
ATOM     18  C   LIG    1       10.105   2.002  -0.120  0.00  0.00    +0.060 A 
ATOM     19  C   LIG    1        9.081   2.828   0.301  0.00  0.00    -0.100 A 
ATOM     20  C   LIG    1        9.206   3.546   1.476  0.00  0.00    +0.030 A 
ATOM     21  C   LIG    1       10.355   3.428   2.241  0.00  0.00    +0.070 A 
BRANCH  21  22
ATOM     22  O   LIG    1       10.477   4.128   3.400  0.00  0.00    -0.490 OA
ATOM     23  H   LIG    1       10.873   5.003   3.291  0.00  0.00    +0.390 HD
ENDBRANCH  21  22
BRANCH  16  24
ATOM     24  O   LIG    1       12.519   2.480   2.561  0.00  0.00    -0.300 OA
BRANCH  24  26
ATOM     25  C   LIG    1       14.915   2.166   2.603  0.00  0.00    +0.060 C 
ATOM     26  C   LIG    1       13.584   1.704   2.006  0.00  0.00    +0.140 C 
ATOM     27  C   LIG    1       13.362   0.227   2.335  0.00  0.00    +0.020 C 
ENDBRANCH  24  26
ENDBRANCH  16  24
ENDBRANCH  15  19
ENDBRANCH   1  15
TORSDOF 6
