REMARK  Name = ZINCvU00000005sc.0
REMARK                            x       y       z     vdW  Elec       q    Type
REMARK                         _______ _______ _______ _____ _____    ______ ____
ROOT
ATOM      1  N   LIG    1        1.575   7.626  -0.056  0.00  0.00    -0.310 N 
ATOM      2  N   LIG    1        2.973   7.620  -0.140  0.00  0.00    -0.280 NA
ATOM      3  C   LIG    1        3.402   6.389  -0.072  0.00  0.00    +0.100 A 
ATOM      4  C   LIG    1        2.291   5.533   0.060  0.00  0.00    -0.170 A 
ATOM      5  C   LIG    1        4.844   5.955  -0.127  0.00  0.00    +0.160 C 
ATOM      6  C   LIG    1        1.153   6.334   0.062  0.00  0.00    +0.180 A 
ENDROOT
BRANCH   4   7
ATOM      7  C   LIG    1        2.327   4.059   0.169  0.00  0.00    +0.240 A 
ATOM      8  N   LIG    1        1.614   3.463   1.108  0.00  0.00    -0.450 NA
ATOM      9  C   LIG    1        1.619   2.134   1.243  0.00  0.00    +0.130 A 
ATOM     10  C   LIG    1        0.857   1.506   2.244  0.00  0.00    +0.040 A 
ATOM     11  C   LIG    1        0.878   0.149   2.359  0.00  0.00    +0.030 A 
ATOM     12  C   LIG    1        1.645  -0.632   1.497  0.00  0.00    +0.010 A 
ATOM     13  C   LIG    1        2.395  -0.059   0.515  0.00  0.00    +0.030 A 
ATOM     14  C   LIG    1        2.397   1.336   0.367  0.00  0.00    -0.110 A 
ATOM     15  C   LIG    1        3.160   1.964  -0.638  0.00  0.00    +0.080 A 
ATOM     16  C   LIG    1        3.119   3.322  -0.729  0.00  0.00    -0.020 A 
ENDBRANCH   4   7
BRANCH   1  23
ATOM     17  C   LIG    1        2.225   9.813   1.645  0.00  0.00    +0.110 C 
ATOM     18  C   LIG    1        1.036   9.849   0.720  0.00  0.00    -0.070 A 
ATOM     19  C   LIG    1        0.224  10.966   0.681  0.00  0.00    +0.020 A 
ATOM     20  C   LIG    1       -0.868  11.000  -0.167  0.00  0.00    +0.020 A 
ATOM     21  C   LIG    1       -1.151   9.916  -0.978  0.00  0.00    +0.020 A 
ATOM     22  C   LIG    1       -0.340   8.798  -0.947  0.00  0.00    +0.020 A 
ATOM     23  C   LIG    1        0.754   8.759  -0.093  0.00  0.00    +0.140 A 
ENDBRANCH   1  23
BRANCH   6  24
ATOM     24  C   LIG    1       -0.244   5.874   0.174  0.00  0.00    -0.070 A 
ATOM     25  C   LIG    1       -0.977   5.570  -0.975  0.00  0.00    +0.060 A 
ATOM     26  C   LIG    1       -2.280   5.135  -0.866  0.00  0.00    -0.020 A 
ATOM     27  C   LIG    1       -2.873   5.009   0.384  0.00  0.00    +0.140 A 
ATOM     28  C   LIG    1       -2.155   5.314   1.532  0.00  0.00    -0.030 A 
ATOM     29  C   LIG    1       -0.844   5.746   1.435  0.00  0.00    +0.180 A 
BRANCH  27  30
ATOM     30  O   LIG    1       -4.160   4.585   0.483  0.00  0.00    -0.500 OA
ATOM     31  H   LIG    1       -4.811   5.299   0.464  0.00  0.00    +0.400 HD
ENDBRANCH  27  30
BRANCH  29  32
ATOM     32  O   LIG    1       -0.141   6.045   2.558  0.00  0.00    -0.480 OA
ATOM     33  H   LIG    1       -0.217   6.968   2.835  0.00  0.00    +0.390 HD
ENDBRANCH  29  32
ENDBRANCH   6  24
TORSDOF 5
