REMARK  Name = ZINCtV000002PlM5.0
REMARK                            x       y       z     vdW  Elec       q    Type
REMARK                         _______ _______ _______ _____ _____    ______ ____
ROOT
ATOM      1  O   LIG    1        1.837  -1.132  -1.465  0.00  0.00    -0.510 OA
ATOM      2  C   LIG    1        2.523  -0.309  -2.040  0.00  0.00    +0.590 C 
ATOM      3  N   LIG    1        2.903   0.816  -1.403  0.00  0.00    -0.550 N 
ENDROOT
BRANCH   3   4
ATOM      4  C   LIG    1        3.692   1.763  -2.064  0.00  0.00    +0.170 A 
ATOM      5  C   LIG    1        5.076   1.678  -2.006  0.00  0.00    +0.040 A 
ATOM      6  C   LIG    1        5.853   2.615  -2.660  0.00  0.00    +0.030 A 
ATOM      7  C   LIG    1        5.253   3.636  -3.374  0.00  0.00    +0.030 A 
ATOM      8  C   LIG    1        3.874   3.724  -3.435  0.00  0.00    +0.030 A 
ATOM      9  C   LIG    1        3.091   2.787  -2.787  0.00  0.00    -0.020 A 
ATOM     10 CL   LIG    1        1.361   2.893  -2.870  0.00  0.00    -0.060 Cl
ENDBRANCH   3   4
BRANCH   2  11
ATOM     11  C   LIG    1        2.939  -0.542  -3.440  0.00  0.00    +0.050 A 
ATOM     12  C   LIG    1        2.542  -1.708  -4.093  0.00  0.00    +0.090 A 
ATOM     13  C   LIG    1        2.938  -1.915  -5.402  0.00  0.00    +0.080 A 
ATOM     14  C   LIG    1        3.722  -0.945  -6.019  0.00  0.00    +0.080 A 
ATOM     15  C   LIG    1        4.081   0.195  -5.305  0.00  0.00    +0.210 A 
ATOM     16  N   LIG    1        3.684   0.364  -4.064  0.00  0.00    -0.400 NA
BRANCH  14  17
ATOM     17  O   LIG    1        4.132  -1.107  -7.303  0.00  0.00    -0.300 OA
BRANCH  17  18
ATOM     18  C   LIG    1        4.934  -0.067  -7.865  0.00  0.00    +0.600 C 
ATOM     19  F   LIG    1        4.217   1.135  -7.849  0.00  0.00    -0.160 F 
ATOM     20  F   LIG    1        5.265  -0.394  -9.184  0.00  0.00    -0.120 F 
ATOM     21  F   LIG    1        6.104   0.078  -7.112  0.00  0.00    -0.160 F 
ENDBRANCH  17  18
ENDBRANCH  14  17
ENDBRANCH   2  11
BRANCH   3  22
ATOM     22  C   LIG    1        2.490   1.047  -0.016  0.00  0.00    +0.350 C 
BRANCH  22  23
ATOM     23  C   LIG    1        1.175   1.783   0.000  0.00  0.00    -0.110 A 
ATOM     24  C   LIG    1       -0.013   1.076   0.008  0.00  0.00    +0.060 A 
ATOM     25  C   LIG    1       -1.219   1.750   0.017  0.00  0.00    +0.010 A 
ATOM     26  C   LIG    1       -1.237   3.134   0.030  0.00  0.00    -0.030 A 
ATOM     27  C   LIG    1       -0.048   3.841   0.023  0.00  0.00    +0.020 A 
ATOM     28 CL   LIG    1       -2.752   3.982   0.049  0.00  0.00    -0.070 Cl
ATOM     29  C   LIG    1        1.157   3.165   0.009  0.00  0.00    +0.060 A 
ENDBRANCH  22  23
ENDBRANCH   3  22
TORSDOF 6
