REMARK  Name = ZINCwl0000000D0U.0
REMARK                            x       y       z     vdW  Elec       q    Type
REMARK                         _______ _______ _______ _____ _____    ______ ____
ROOT
ATOM      1  C   LIG    1       -4.144   2.432   2.272  0.00  0.00    +0.600 C 
ATOM      2  N   LIG    1       -4.802   2.773   3.398  0.00  0.00    -0.620 N 
ATOM      3  C   LIG    1       -4.181   3.059   4.700  0.00  0.00    +0.250 C 
ATOM      4  C   LIG    1       -5.321   3.376   5.691  0.00  0.00    +0.260 C 
ATOM      5  C   LIG    1       -6.552   2.698   5.033  0.00  0.00    -0.080 C 
ATOM      6  C   LIG    1       -7.849   3.392   5.452  0.00  0.00    +0.050 C 
ATOM      7  C   LIG    1       -6.600   1.206   5.367  0.00  0.00    +0.060 C 
ATOM      8  C   LIG    1       -6.263   2.927   3.527  0.00  0.00    +0.270 C 
ATOM      9  O   LIG    1       -4.752   2.310   1.226  0.00  0.00    -0.510 OA
ENDROOT
BRANCH   1  13
ATOM     10  C   LIG    1       -0.331  -0.400   3.475  0.00  0.00    +0.320 C 
ATOM     11  N   LIG    1       -0.852   0.840   2.893  0.00  0.00    -0.490 N 
ATOM     12  C   LIG    1       -2.182   1.046   2.852  0.00  0.00    +0.340 A 
ATOM     13  C   LIG    1       -2.687   2.207   2.309  0.00  0.00    -0.240 A 
ATOM     14  C   LIG    1       -1.802   3.184   1.780  0.00  0.00    +0.040 A 
ATOM     15  C   LIG    1       -0.470   2.958   1.833  0.00  0.00    -0.190 A 
ATOM     16  C   LIG    1        0.547   3.940   1.316  0.00  0.00    +0.100 C 
ATOM     17  C   LIG    1       -0.109   4.945   0.371  0.00  0.00    +0.030 C 
ATOM     18  C   LIG    1       -1.343   5.530   1.069  0.00  0.00    +0.010 C 
ATOM     19  C   LIG    1       -2.397   4.430   1.181  0.00  0.00    +0.070 C 
ATOM     20  C   LIG    1        0.002   1.752   2.404  0.00  0.00    +0.510 A 
ATOM     21  O   LIG    1        1.202   1.539   2.451  0.00  0.00    -0.530 OA
ENDBRANCH   1  13
BRANCH   4  22
ATOM     22  N   LIG    1       -5.524   4.822   5.802  0.00  0.00    -0.720 N 
ATOM     23  H   LIG    1       -6.184   5.264   5.245  0.00  0.00    +0.400 HD
ATOM     24  C   LIG    1       -4.793   5.540   6.679  0.00  0.00    +0.510 C 
ATOM     25  O   LIG    1       -3.968   4.987   7.376  0.00  0.00    -0.510 OA
BRANCH  24  26
ATOM     26  C   LIG    1       -5.002   7.028   6.794  0.00  0.00    +0.010 C 
ATOM     27  C   LIG    1       -4.698   7.693   5.449  0.00  0.00    +0.270 C 
ATOM     28  N   LIG    1       -3.605   8.657   5.603  0.00  0.00    -0.370 N 
ATOM     29  C   LIG    1       -2.382   7.984   6.046  0.00  0.00    +0.250 C 
ATOM     30  C   LIG    1       -2.609   7.329   7.410  0.00  0.00    +0.070 C 
ATOM     31  C   LIG    1       -3.981   9.716   6.542  0.00  0.00    +0.250 C 
ATOM     32  C   LIG    1       -4.279   9.115   7.940  0.00  0.00    +0.080 C 
ATOM     33  H   LIG    1       -3.428   9.084   4.706  0.00  0.00    +0.430 HD
ATOM     34  C   LIG    1       -4.053   7.600   7.855  0.00  0.00    +0.040 C 
ENDBRANCH  24  26
ENDBRANCH   4  22
TORSDOF 3
