REMARK  Name = ZINCrH000004nQgL.0
REMARK                            x       y       z     vdW  Elec       q    Type
REMARK                         _______ _______ _______ _____ _____    ______ ____
ROOT
ATOM      1  C   LIG    1        6.037   0.763  -0.048  0.00  0.00    +0.270 C 
ENDROOT
BRANCH   1   2
ATOM      2  N   LIG    1        4.572   0.747  -0.036  0.00  0.00    -0.560 N 
ATOM      3  C   LIG    1        3.799   1.847  -0.032  0.00  0.00    +0.580 C 
ATOM      4  C   LIG    1        2.382   1.427  -0.020  0.00  0.00    -0.130 A 
ATOM      5  C   LIG    1        1.172   2.102  -0.012  0.00  0.00    +0.100 A 
ATOM      6  C   LIG    1       -0.015   1.386  -0.001  0.00  0.00    +0.050 A 
ATOM      7  C   LIG    1        0.001   0.004   0.001  0.00  0.00    +0.040 A 
ATOM      8  C   LIG    1        1.204  -0.685  -0.007  0.00  0.00    +0.100 A 
ATOM      9  C   LIG    1        2.397   0.017  -0.018  0.00  0.00    -0.140 A 
ATOM     10  O   LIG    1        4.198   2.994  -0.038  0.00  0.00    -0.440 OA
ATOM     11  C   LIG    1        3.824  -0.371  -0.028  0.00  0.00    +0.580 C 
ATOM     12  O   LIG    1        4.249  -1.509  -0.030  0.00  0.00    -0.460 OA
ENDBRANCH   1   2
BRANCH   1  13
ATOM     13  C   LIG    1        6.542   1.481   1.177  0.00  0.00    +0.510 C 
ATOM     14  N   LIG    1        7.867   1.620   1.379  0.00  0.00    -0.670 N 
ATOM     15  H   LIG    1        8.496   1.200   0.772  0.00  0.00    +0.410 HD
ATOM     16  O   LIG    1        5.755   1.935   1.981  0.00  0.00    -0.490 OA
BRANCH  14  17
ATOM     17  C   LIG    1        8.335   2.369   2.464  0.00  0.00    +0.160 A 
ATOM     18  C   LIG    1        9.498   3.118   2.342  0.00  0.00    -0.020 A 
ATOM     19  C   LIG    1        9.959   3.862   3.412  0.00  0.00    +0.050 A 
ATOM     20  C   LIG    1        9.270   3.856   4.609  0.00  0.00    -0.020 A 
ATOM     21  C   LIG    1        8.108   3.104   4.740  0.00  0.00    -0.070 A 
ATOM     22  C   LIG    1        7.640   2.360   3.665  0.00  0.00    +0.040 A 
BRANCH  21  23
ATOM     23  S   LIG    1        7.230   3.096   6.268  0.00  0.00    -0.110 S 
ATOM     24  C   LIG    1        8.224   4.194   7.315  0.00  0.00    +0.140 C 
ENDBRANCH  21  23
ENDBRANCH  14  17
ENDBRANCH   1  13
BRANCH   1  25
ATOM     25  C   LIG    1        6.529   1.488  -1.303  0.00  0.00    +0.080 C 
BRANCH  25  26
ATOM     26  C   LIG    1        6.122   0.692  -2.544  0.00  0.00    +0.080 C 
BRANCH  26  28
ATOM     27  C   LIG    1        6.138   0.472  -5.375  0.00  0.00    +0.140 C 
ATOM     28  S   LIG    1        6.705   1.551  -4.031  0.00  0.00    -0.250 S 
ENDBRANCH  26  28
ENDBRANCH  25  26
ENDBRANCH   1  25
TORSDOF 7
