REMARK  Name = ZINCrD00000l4hfI.0
REMARK                            x       y       z     vdW  Elec       q    Type
REMARK                         _______ _______ _______ _____ _____    ______ ____
ROOT
ATOM      1  C   LIG    1       -1.225   3.143  -0.802  0.00  0.00    +0.260 C 
ATOM      2  C   LIG    1       -0.998   3.491   0.685  0.00  0.00    +0.050 C 
ATOM      3  C   LIG    1       -0.668   2.113   1.320  0.00  0.00    +0.040 C 
ATOM      4  C   LIG    1        0.125   1.428   0.179  0.00  0.00    +0.250 C 
ATOM      5  N   LIG    1       -0.536   1.870  -1.062  0.00  0.00    -0.610 N 
ATOM      6  C   LIG    1       -0.512   1.216  -2.240  0.00  0.00    +0.580 C 
ATOM      7  O   LIG    1        0.116   0.182  -2.349  0.00  0.00    -0.530 OA
ENDROOT
BRANCH   1  12
ATOM      8  C   LIG    1       -0.899   6.295  -2.861  0.00  0.00    +0.130 A 
ATOM      9  C   LIG    1        0.420   6.213  -3.281  0.00  0.00    -0.070 A 
ATOM     10  C   LIG    1        1.201   5.139  -2.898  0.00  0.00    +0.060 A 
ATOM     11  C   LIG    1        0.669   4.149  -2.092  0.00  0.00    -0.020 A 
ATOM     12  C   LIG    1       -0.647   4.226  -1.676  0.00  0.00    -0.060 A 
ATOM     13  C   LIG    1       -1.431   5.298  -2.056  0.00  0.00    -0.020 A 
BRANCH   8  15
ATOM     14  C   LIG    1       -1.054   8.339  -4.064  0.00  0.00    +0.250 C 
ATOM     15  O   LIG    1       -1.669   7.350  -3.236  0.00  0.00    -0.320 OA
ENDBRANCH   8  15
ENDBRANCH   1  12
BRANCH   6  16
ATOM     16  C   LIG    1       -1.251   1.758  -3.401  0.00  0.00    -0.130 A 
ATOM     17  C   LIG    1       -2.087   2.864  -3.245  0.00  0.00    +0.060 A 
ATOM     18  C   LIG    1       -2.771   3.367  -4.333  0.00  0.00    +0.010 A 
ATOM     19  C   LIG    1       -2.636   2.771  -5.575  0.00  0.00    -0.060 A 
ATOM     20  C   LIG    1       -1.812   1.671  -5.735  0.00  0.00    +0.000 A 
ATOM     21  C   LIG    1       -1.119   1.161  -4.656  0.00  0.00    +0.070 A 
BRANCH  19  22
ATOM     22  C   LIG    1       -3.390   3.321  -6.757  0.00  0.00    +0.070 C 
BRANCH  22  23
ATOM     23  C   LIG    1       -4.753   2.634  -6.858  0.00  0.00    +0.260 C 
BRANCH  23  24
ATOM     24  N   LIG    1       -5.486   3.170  -8.008  0.00  0.00    -0.730 N 
ATOM     25  H   LIG    1       -5.083   3.856  -8.563  0.00  0.00    +0.400 HD
ATOM     26  C   LIG    1       -6.720   2.709  -8.294  0.00  0.00    +0.510 C 
ATOM     27  O   LIG    1       -7.223   1.852  -7.600  0.00  0.00    -0.540 OA
ATOM     28  C   LIG    1       -7.474   3.260  -9.477  0.00  0.00    +0.090 C 
ENDBRANCH  23  24
ENDBRANCH  22  23
ENDBRANCH  19  22
ENDBRANCH   6  16
TORSDOF 6
