REMARK  Name = ZINCrH000004tAFe.0
REMARK                            x       y       z     vdW  Elec       q    Type
REMARK                         _______ _______ _______ _____ _____    ______ ____
ROOT
ATOM      1  O   LIG    1        0.074   1.731   1.107  0.00  0.00    -0.520 OA
ATOM      2  C   LIG    1       -0.014   1.213   0.009  0.00  0.00    +0.570 C 
ATOM      3  N   LIG    1       -0.079   1.982  -1.096  0.00  0.00    -0.600 N 
ATOM      4  C   LIG    1       -0.173   3.444  -0.986  0.00  0.00    +0.280 C 
ATOM      5  C   LIG    1       -1.380   3.927  -1.789  0.00  0.00    +0.030 C 
ATOM      6  C   LIG    1       -1.274   3.410  -3.225  0.00  0.00    +0.040 C 
ATOM      7  C   LIG    1       -1.276   1.880  -3.220  0.00  0.00    +0.090 C 
ATOM      8  C   LIG    1       -0.062   1.374  -2.434  0.00  0.00    +0.280 C 
ENDROOT
BRANCH   7   9
ATOM      9  C   LIG    1       -1.204   1.372  -4.637  0.00  0.00    +0.290 A 
ATOM     10  N   LIG    1       -2.231   1.032  -5.360  0.00  0.00    -0.480 NA
ATOM     11  C   LIG    1       -1.812   0.621  -6.584  0.00  0.00    +0.050 A 
ATOM     12  C   LIG    1       -2.474   0.158  -7.724  0.00  0.00    +0.070 A 
ATOM     13  C   LIG    1       -1.756  -0.189  -8.834  0.00  0.00    +0.000 A 
ATOM     14  C   LIG    1       -0.373  -0.087  -8.843  0.00  0.00    +0.030 A 
ATOM     15  C   LIG    1        0.302   0.366  -7.729  0.00  0.00    +0.010 A 
ATOM     16  C   LIG    1       -0.410   0.724  -6.593  0.00  0.00    +0.050 A 
ATOM     17  N   LIG    1       -0.056   1.208  -5.349  0.00  0.00    -0.600 N 
ATOM     18  H   LIG    1        0.844   1.393  -5.039  0.00  0.00    +0.420 HD
ENDBRANCH   7   9
BRANCH   2  19
ATOM     19  C   LIG    1       -0.045  -0.244  -0.112  0.00  0.00    -0.220 C 
ATOM     20  C   LIG    1       -1.225  -0.889  -0.282  0.00  0.00    +0.110 C 
ATOM     21  C   LIG    1       -1.200  -2.357  -0.378  0.00  0.00    -0.150 A 
ATOM     22  C   LIG    1       -2.287  -3.073  -0.875  0.00  0.00    +0.070 A 
ATOM     23  C   LIG    1       -2.219  -4.449  -0.948  0.00  0.00    -0.020 A 
ATOM     24  C   LIG    1       -1.079  -5.116  -0.530  0.00  0.00    +0.060 A 
ATOM     25  C   LIG    1        0.006  -4.416  -0.034  0.00  0.00    +0.000 A 
ATOM     26  C   LIG    1       -0.044  -3.036   0.046  0.00  0.00    +0.130 A 
ATOM     27  O   LIG    1        1.001  -2.320   0.528  0.00  0.00    -0.300 OA
ATOM     28  C   LIG    1        1.236  -1.035  -0.054  0.00  0.00    +0.310 C 
ENDBRANCH   2  19
TORSDOF 2
