REMARK  Name = ZINCpk000000omQC.0
REMARK                            x       y       z     vdW  Elec       q    Type
REMARK                         _______ _______ _______ _____ _____    ______ ____
ROOT
ATOM      1  N   LIG    1        3.660   2.338  -0.081  0.00  0.00    -0.660 N 
ATOM      2  H   LIG    1        3.555   3.300  -0.153  0.00  0.00    +0.430 HD
ATOM      3  C   LIG    1        4.892   1.796  -0.034  0.00  0.00    +0.520 C 
ATOM      4  O   LIG    1        5.025   0.590  -0.046  0.00  0.00    -0.520 OA
ENDROOT
BRANCH   1  10
ATOM      5  C   LIG    1        1.321   1.948  -0.582  0.00  0.00    -0.180 A 
ATOM      6  C   LIG    1        0.201   1.116  -0.521  0.00  0.00    +0.070 A 
ATOM      7  C   LIG    1        0.294  -0.119   0.084  0.00  0.00    -0.020 A 
ATOM      8  C   LIG    1        1.494  -0.540   0.633  0.00  0.00    +0.060 A 
ATOM      9  C   LIG    1        2.610   0.271   0.580  0.00  0.00    +0.000 A 
ATOM     10  C   LIG    1        2.535   1.518  -0.026  0.00  0.00    +0.220 A 
BRANCH   5  13
ATOM     11  N   LIG    1        0.037   3.725  -1.667  0.00  0.00    -0.720 N 
ATOM     12  H   LIG    1       -0.759   3.181  -1.557  0.00  0.00    +0.400 HD
ATOM     13  C   LIG    1        1.228   3.271  -1.228  0.00  0.00    +0.570 C 
ATOM     14  O   LIG    1        2.226   3.952  -1.366  0.00  0.00    -0.550 OA
BRANCH  11  15
ATOM     15  C   LIG    1       -0.055   5.038  -2.308  0.00  0.00    +0.260 C 
BRANCH  15  17
ATOM     16  C   LIG    1       -1.603   6.682  -3.378  0.00  0.00    +0.030 C 
ATOM     17  C   LIG    1       -1.507   5.310  -2.708  0.00  0.00    +0.000 C 
ENDBRANCH  15  17
ENDBRANCH  11  15
ENDBRANCH   5  13
ENDBRANCH   1  10
BRANCH   3  18
ATOM     18  C   LIG    1        6.106   2.687   0.034  0.00  0.00    +0.010 C 
ATOM     19  C   LIG    1        6.145   3.589  -1.202  0.00  0.00    +0.030 C 
ATOM     20  C   LIG    1        7.360   4.518  -1.112  0.00  0.00    +0.300 C 
ATOM     21  N   LIG    1        8.567   3.700  -0.924  0.00  0.00    -1.000 NA
ATOM     22  C   LIG    1        8.599   2.733   0.182  0.00  0.00    +0.300 C 
ATOM     23  C   LIG    1        7.370   1.825   0.078  0.00  0.00    +0.050 C 
BRANCH  21  24
ATOM     24  S   LIG    1        9.866   3.867  -1.937  0.00  0.00    +2.610 S 
ATOM     25  O   LIG    1       10.977   3.454  -1.154  0.00  0.00    -0.950 OA
ATOM     26  O   LIG    1        9.765   5.199  -2.420  0.00  0.00    -0.950 OA
ATOM     27  C   LIG    1        9.552   2.680  -3.273  0.00  0.00    -0.280 C 
ENDBRANCH  21  24
ENDBRANCH   3  18
TORSDOF 6
