REMARK  Name = ZINCrg000000mQ5E.1
REMARK                            x       y       z     vdW  Elec       q    Type
REMARK                         _______ _______ _______ _____ _____    ______ ____
ROOT
ATOM      1  C   LIG    1        0.934   3.638  -0.661  0.00  0.00    +0.010 C 
ATOM      2  C   LIG    1       -0.110   4.472   0.086  0.00  0.00    +0.020 C 
ATOM      3  C   LIG    1       -0.450   5.715  -0.739  0.00  0.00    +0.170 C 
ATOM      4  N   LIG    1       -0.970   5.306  -2.050  0.00  0.00    -0.530 NA
ATOM      5  C   LIG    1        0.033   4.544  -2.805  0.00  0.00    +0.180 C 
ATOM      6  C   LIG    1        0.387   3.266  -2.041  0.00  0.00    +0.030 C 
ENDROOT
BRANCH   1  15
ATOM      7  C   LIG    1        2.459   4.356   3.121  0.00  0.00    +0.070 C 
ATOM      8  C   LIG    1        2.209   3.890   1.710  0.00  0.00    +0.510 C 
ATOM      9  N   LIG    1        1.593   2.712   1.487  0.00  0.00    -0.600 N 
ATOM     10  C   LIG    1        1.308   1.835   2.639  0.00  0.00    +0.260 C 
ATOM     11  C   LIG    1        1.600   0.355   2.328  0.00  0.00    +0.020 C 
ATOM     12  C   LIG    1        2.872   0.236   1.524  0.00  0.00    +0.000 C 
ATOM     13  C   LIG    1        2.533   0.255   0.037  0.00  0.00    +0.000 C 
ATOM     14  C   LIG    1        2.404   1.603  -0.538  0.00  0.00    +0.010 C 
ATOM     15  C   LIG    1        1.233   2.363   0.131  0.00  0.00    +0.240 C 
ATOM     16  O   LIG    1        2.563   4.575   0.773  0.00  0.00    -0.530 OA
ENDBRANCH   1  15
BRANCH   4  17
ATOM     17  C   LIG    1       -1.436   6.468  -2.818  0.00  0.00    +0.260 C 
BRANCH  17  18
ATOM     18  C   LIG    1       -2.627   7.081  -2.128  0.00  0.00    +0.220 A 
ATOM     19  C   LIG    1       -2.547   8.327  -1.613  0.00  0.00    -0.130 A 
ATOM     20  C   LIG    1       -3.680   8.881  -0.970  0.00  0.00    +0.550 A 
ATOM     21  N   LIG    1       -4.813   8.155  -0.886  0.00  0.00    -0.560 N 
ATOM     22  C   LIG    1       -4.866   6.916  -1.407  0.00  0.00    +0.690 A 
ATOM     23  O   LIG    1       -5.894   6.273  -1.323  0.00  0.00    -0.540 OA
ATOM     24  C   LIG    1       -5.992   8.719  -0.223  0.00  0.00    +0.340 C 
ATOM     25  O   LIG    1       -3.631  10.002  -0.498  0.00  0.00    -0.520 OA
ATOM     26  N   LIG    1       -3.798   6.380  -2.026  0.00  0.00    -0.520 N 
ATOM     27  C   LIG    1       -3.887   5.031  -2.589  0.00  0.00    +0.350 C 
ENDBRANCH  17  18
ENDBRANCH   4  17
TORSDOF 3
