REMARK  Name = ZINCrH000004ofCo.0
REMARK                            x       y       z     vdW  Elec       q    Type
REMARK                         _______ _______ _______ _____ _____    ______ ____
ROOT
ATOM      1  C   LIG    1        2.676  -6.189  -3.828  0.00  0.00    -0.030 A 
ATOM      2  C   LIG    1        2.218  -7.386  -3.310  0.00  0.00    -0.010 A 
ATOM      3  C   LIG    1        1.651  -8.329  -4.147  0.00  0.00    +0.120 A 
ATOM      4  C   LIG    1        1.553  -8.081  -5.503  0.00  0.00    -0.680 A 
ATOM      5  C   LIG    1        2.016  -6.886  -6.022  0.00  0.00    +0.120 A 
ATOM      6  C   LIG    1        2.577  -5.940  -5.184  0.00  0.00    -0.010 A 
ENDROOT
BRANCH   4   7
ATOM      7  S   LIG    1        0.836  -9.286  -6.570  0.00  0.00    +2.690 S 
ATOM      8  O   LIG    1        0.373  -8.583  -7.715  0.00  0.00    -0.950 OA
ATOM      9  O   LIG    1       -0.007 -10.090  -5.758  0.00  0.00    -0.950 OA
BRANCH   7  10
ATOM     10  N   LIG    1        2.062 -10.270  -7.090  0.00  0.00    -1.000 NA
ATOM     11  C   LIG    1        2.804  -9.956  -8.319  0.00  0.00    +0.290 C 
ATOM     12  C   LIG    1        4.305  -9.931  -7.990  0.00  0.00    +0.010 C 
ATOM     13  C   LIG    1        4.701 -11.258  -7.338  0.00  0.00    +0.020 C 
ATOM     14  C   LIG    1        3.925 -11.438  -6.032  0.00  0.00    +0.010 C 
ATOM     15  C   LIG    1        2.424 -11.478  -6.335  0.00  0.00    +0.290 C 
ENDBRANCH   7  10
ENDBRANCH   4   7
BRANCH   1  16
ATOM     16  C   LIG    1        3.288  -5.158  -2.915  0.00  0.00    +0.110 C 
BRANCH  16  17
ATOM     17  C   LIG    1        2.196  -4.217  -2.403  0.00  0.00    +0.060 C 
BRANCH  17  20
ATOM     18  N   LIG    1        2.030  -2.246  -0.918  0.00  0.00    -0.730 N 
ATOM     19  H   LIG    1        1.076  -2.233  -1.093  0.00  0.00    +0.400 HD
ATOM     20  C   LIG    1        2.808  -3.186  -1.490  0.00  0.00    +0.520 C 
ATOM     21  O   LIG    1        4.001  -3.203  -1.271  0.00  0.00    -0.530 OA
BRANCH  18  23
ATOM     22  C   LIG    1        2.727  -1.813   1.386  0.00  0.00    +0.040 C 
ATOM     23  C   LIG    1        2.625  -1.244  -0.030  0.00  0.00    +0.330 C 
BRANCH  23  24
ATOM     24  C   LIG    1        1.761  -0.010  -0.015  0.00  0.00    -0.190 A 
ATOM     25  C   LIG    1        2.212   1.245  -0.012  0.00  0.00    +0.020 A 
ATOM     26  C   LIG    1        1.229   2.219   0.002  0.00  0.00    +0.010 A 
ATOM     27  C   LIG    1       -0.022   1.755   0.012  0.00  0.00    -0.030 A 
ATOM     28  S   LIG    1        0.002  -0.004   0.002  0.00  0.00    +0.100 S 
ENDBRANCH  23  24
ENDBRANCH  18  23
ENDBRANCH  17  20
ENDBRANCH  16  17
ENDBRANCH   1  16
TORSDOF 7
