REMARK  Name = ZINCrH000004j3v6.1
REMARK                            x       y       z     vdW  Elec       q    Type
REMARK                         _______ _______ _______ _____ _____    ______ ____
ROOT
ATOM      1  C   LIG    1        2.669   9.577  -3.943  0.00  0.00    +0.280 A 
ATOM      2  N   LIG    1        2.086  10.518  -4.651  0.00  0.00    -0.290 NA
ATOM      3  N   LIG    1        0.710  10.440  -4.381  0.00  0.00    -0.460 N 
ATOM      4  H   LIG    1        0.013  11.001  -4.755  0.00  0.00    +0.450 HD
ATOM      5  C   LIG    1        0.549   9.433  -3.495  0.00  0.00    +0.250 A 
ATOM      6  N   LIG    1        1.734   8.920  -3.241  0.00  0.00    -0.530 NA
ENDROOT
BRANCH   1  10
ATOM      7  C   LIG    1        6.840   8.753  -3.881  0.00  0.00    -0.060 A 
ATOM      8  C   LIG    1        6.351   9.775  -4.675  0.00  0.00    +0.010 A 
ATOM      9  C   LIG    1        4.998  10.047  -4.698  0.00  0.00    +0.050 A 
ATOM     10  C   LIG    1        4.124   9.289  -3.921  0.00  0.00    -0.020 A 
ATOM     11  C   LIG    1        4.623   8.264  -3.119  0.00  0.00    +0.060 A 
ATOM     12  C   LIG    1        5.977   7.997  -3.108  0.00  0.00    +0.010 A 
BRANCH   7  14
ATOM     13  C   LIG    1        8.986   9.289  -2.760  0.00  0.00    +0.030 C 
ATOM     14  C   LIG    1        8.318   8.460  -3.860  0.00  0.00    +0.050 C 
ENDBRANCH   7  14
ENDBRANCH   1  10
BRANCH   5  15
ATOM     15  S   LIG    1       -0.980   8.895  -2.805  0.00  0.00    +0.090 S 
BRANCH  15  16
ATOM     16  C   LIG    1       -0.393   7.546  -1.750  0.00  0.00    +0.110 C 
BRANCH  16  17
ATOM     17  C   LIG    1       -1.564   6.919  -1.039  0.00  0.00    +0.540 C 
ATOM     18  N   LIG    1       -1.365   5.887  -0.195  0.00  0.00    -0.610 N 
ATOM     19  C   LIG    1       -2.488   5.253   0.516  0.00  0.00    +0.290 C 
ATOM     20  C   LIG    1       -2.596   3.808   0.029  0.00  0.00    +0.070 C 
ATOM     21  C   LIG    1       -1.246   3.140   0.029  0.00  0.00    -0.070 A 
ATOM     22  C   LIG    1       -1.216   1.751   0.017  0.00  0.00    +0.000 A 
ATOM     23  C   LIG    1       -0.013   1.076   0.008  0.00  0.00    +0.010 A 
ATOM     24  C   LIG    1        1.174   1.785   0.000  0.00  0.00    +0.010 A 
ATOM     25  C   LIG    1        1.146   3.165   0.012  0.00  0.00    +0.020 A 
ATOM     26  C   LIG    1       -0.063   3.845   0.028  0.00  0.00    -0.100 A 
ATOM     27  C   LIG    1       -0.022   5.352   0.054  0.00  0.00    +0.340 C 
ATOM     28  O   LIG    1       -2.685   7.342  -1.226  0.00  0.00    -0.520 OA
ENDBRANCH  16  17
ENDBRANCH  15  16
ENDBRANCH   5  15
TORSDOF 5
