REMARK  Name = ZINCpk00000kYNlY.0
REMARK                            x       y       z     vdW  Elec       q    Type
REMARK                         _______ _______ _______ _____ _____    ______ ____
ROOT
ATOM      1  N   LIG    1       -7.712   0.270  -1.359  0.00  0.00    -0.700 N 
ATOM      2  H   LIG    1       -8.472   0.535  -1.901  0.00  0.00    +0.410 HD
ATOM      3  C   LIG    1       -6.971  -0.799  -1.715  0.00  0.00    +0.590 C 
ATOM      4  O   LIG    1       -6.020  -1.131  -1.036  0.00  0.00    -0.500 OA
ENDROOT
BRANCH   3   5
ATOM      5  C   LIG    1       -7.318  -1.569  -2.935  0.00  0.00    +0.210 A 
ATOM      6  N   LIG    1       -6.581  -2.612  -3.270  0.00  0.00    -0.390 NA
ATOM      7  C   LIG    1       -6.896  -3.303  -4.368  0.00  0.00    +0.130 A 
ATOM      8  C   LIG    1       -6.154  -4.423  -4.779  0.00  0.00    +0.060 A 
ATOM      9  C   LIG    1       -6.520  -5.096  -5.904  0.00  0.00    +0.080 A 
ATOM     10  C   LIG    1       -7.618  -4.688  -6.660  0.00  0.00    +0.070 A 
ATOM     11  C   LIG    1       -8.358  -3.604  -6.296  0.00  0.00    +0.080 A 
ATOM     12  C   LIG    1       -8.012  -2.884  -5.142  0.00  0.00    +0.020 A 
ATOM     13  N   LIG    1       -8.709  -1.812  -4.745  0.00  0.00    -0.140 NA
ATOM     14  N   LIG    1       -8.367  -1.190  -3.669  0.00  0.00    -0.240 NA
ENDBRANCH   3   5
BRANCH   1  15
ATOM     15  C   LIG    1       -7.371   1.030  -0.154  0.00  0.00    +0.320 C 
BRANCH  15  16
ATOM     16  C   LIG    1       -8.319   2.222  -0.017  0.00  0.00    -0.170 C 
ATOM     17  C   LIG    1       -8.941   2.476   1.358  0.00  0.00    +0.050 C 
ATOM     18  C   LIG    1       -9.801   1.923   0.220  0.00  0.00    +0.060 C 
BRANCH  16  19
ATOM     19  C   LIG    1       -7.973   3.442  -0.873  0.00  0.00    +0.310 C 
BRANCH  19  22
ATOM     20  O   LIG    1       -6.684   5.470  -2.094  0.00  0.00    -0.540 OA
ATOM     21  C   LIG    1       -6.127   5.014  -1.118  0.00  0.00    +0.520 C 
ATOM     22  N   LIG    1       -6.689   3.997  -0.436  0.00  0.00    -0.730 N 
ATOM     23  H   LIG    1       -6.244   3.632   0.345  0.00  0.00    +0.400 HD
BRANCH  21  24
ATOM     24  C   LIG    1       -4.807   5.584  -0.669  0.00  0.00    +0.080 C 
BRANCH  24  25
ATOM     25  C   LIG    1       -4.395   6.719  -1.609  0.00  0.00    -0.020 C 
ATOM     26  C   LIG    1       -3.119   6.528  -2.430  0.00  0.00    +0.010 C 
ATOM     27  C   LIG    1       -3.133   7.508  -1.254  0.00  0.00    +0.010 C 
ENDBRANCH  24  25
ENDBRANCH  21  24
ENDBRANCH  19  22
ENDBRANCH  16  19
ENDBRANCH  15  16
ENDBRANCH   1  15
TORSDOF 7
