REMARK  Name = ZINCrD00000hQ6mZ.0
REMARK                            x       y       z     vdW  Elec       q    Type
REMARK                         _______ _______ _______ _____ _____    ______ ____
ROOT
ATOM      1  C   LIG    1       -1.365   4.991   3.379  0.00  0.00    +0.230 C 
ATOM      2  C   LIG    1       -0.150   4.490   2.603  0.00  0.00    +0.020 C 
ATOM      3  C   LIG    1       -0.193   2.984   2.524  0.00  0.00    +0.020 C 
ATOM      4  C   LIG    1       -0.922   2.539   1.239  0.00  0.00    +0.270 C 
ATOM      5  N   LIG    1       -2.102   3.378   0.954  0.00  0.00    -0.590 N 
ATOM      6  C   LIG    1       -3.028   3.798   1.982  0.00  0.00    +0.290 C 
ATOM      7  C   LIG    1       -2.329   3.765  -0.317  0.00  0.00    +0.590 C 
ATOM      8  O   LIG    1       -3.226   4.549  -0.563  0.00  0.00    -0.540 OA
ATOM      9  C   LIG    1       -2.577   5.160   2.563  0.00  0.00    +0.000 C 
ENDROOT
BRANCH   7  10
ATOM     10  C   LIG    1       -1.494   3.240  -1.403  0.00  0.00    -0.050 A 
ATOM     11  C   LIG    1       -0.674   2.134  -1.339  0.00  0.00    +0.000 A 
ATOM     12  C   LIG    1       -0.065   2.001  -2.591  0.00  0.00    -0.050 A 
ATOM     13  C   LIG    1       -0.517   3.003  -3.381  0.00  0.00    +0.180 A 
ATOM     14  N   LIG    1       -1.389   3.761  -2.673  0.00  0.00    -0.380 N 
BRANCH  14  15
ATOM     15  C   LIG    1       -2.097   4.943  -3.173  0.00  0.00    +0.200 C 
ATOM     16  C   LIG    1       -1.868   5.338  -4.633  0.00  0.00    +0.040 C 
ATOM     17  C   LIG    1       -1.260   6.179  -3.508  0.00  0.00    +0.030 C 
ENDBRANCH  14  15
ENDBRANCH   7  10
BRANCH   1  18
ATOM     18  N   LIG    1       -1.027   6.282   3.984  0.00  0.00    -0.750 N 
ATOM     19  H   LIG    1       -0.384   6.866   3.552  0.00  0.00    +0.400 HD
BRANCH  18  23
ATOM     20  C   LIG    1       -2.851   7.361   7.523  0.00  0.00    +0.350 A 
ATOM     21  C   LIG    1       -1.939   8.243   6.954  0.00  0.00    -0.060 A 
ATOM     22  C   LIG    1       -1.313   7.896   5.771  0.00  0.00    +0.020 A 
ATOM     23  C   LIG    1       -1.632   6.672   5.185  0.00  0.00    +0.110 A 
ATOM     24  C   LIG    1       -2.553   5.844   5.809  0.00  0.00    +0.220 A 
ATOM     25  N   LIG    1       -3.127   6.204   6.941  0.00  0.00    -0.500 NA
BRANCH  20  27
ATOM     26  C   LIG    1       -3.238   9.006   9.332  0.00  0.00    +0.290 C 
ATOM     27  N   LIG    1       -3.482   7.698   8.718  0.00  0.00    -0.630 N 
ATOM     28  C   LIG    1       -4.390   6.745   9.361  0.00  0.00    +0.280 C 
ENDBRANCH  20  27
ENDBRANCH  18  23
ENDBRANCH   1  18
TORSDOF 5
