REMARK  Name = ZINCpk00000iSpeu.0
REMARK                            x       y       z     vdW  Elec       q    Type
REMARK                         _______ _______ _______ _____ _____    ______ ____
ROOT
ATOM      1  C   LIG    1       -1.185   3.677  -2.221  0.00  0.00    +0.520 C 
ATOM      2  N   LIG    1       -0.676   3.082  -3.318  0.00  0.00    -0.710 N 
ATOM      3  H   LIG    1       -0.111   3.584  -3.925  0.00  0.00    +0.420 HD
ATOM      4  O   LIG    1       -1.892   3.048  -1.463  0.00  0.00    -0.540 OA
ENDROOT
BRANCH   1   5
ATOM      5  C   LIG    1       -0.874   5.124  -1.937  0.00  0.00    +0.050 C 
BRANCH   5   6
ATOM      6  C   LIG    1       -1.569   5.550  -0.642  0.00  0.00    +0.130 C 
BRANCH   6   7
ATOM      7  C   LIG    1       -1.253   7.019  -0.353  0.00  0.00    +0.030 C 
ATOM      8  N   LIG    1       -0.984   7.913  -1.482  0.00  0.00    -0.120 NA
ATOM      9  N   LIG    1        0.017   7.570  -0.832  0.00  0.00    -0.120 NA
BRANCH   7  10
ATOM     10  C   LIG    1       -1.875   7.607   0.915  0.00  0.00    +0.120 C 
BRANCH  10  11
ATOM     11  C   LIG    1       -1.462   9.073   1.053  0.00  0.00    +0.160 C 
BRANCH  11  13
ATOM     12  C   LIG    1       -2.537  10.091   3.246  0.00  0.00    +0.030 C 
ATOM     13  C   LIG    1       -2.060   9.639   2.273  0.00  0.00    -0.190 C 
ENDBRANCH  11  13
ENDBRANCH  10  11
ENDBRANCH   7  10
ENDBRANCH   6   7
ENDBRANCH   5   6
ENDBRANCH   1   5
BRANCH   2  14
ATOM     14  C   LIG    1       -0.979   1.675  -3.595  0.00  0.00    +0.280 C 
BRANCH  14  15
ATOM     15  C   LIG    1       -0.388   1.284  -4.951  0.00  0.00    +0.230 C 
BRANCH  15  16
ATOM     16  C   LIG    1       -1.085   2.054  -6.043  0.00  0.00    -0.020 A 
ATOM     17  C   LIG    1       -2.242   1.719  -6.660  0.00  0.00    +0.150 A 
ATOM     18  N   LIG    1       -2.485   2.697  -7.562  0.00  0.00    -0.290 N 
ATOM     19  N   LIG    1       -1.529   3.556  -7.494  0.00  0.00    -0.090 NA
ATOM     20  C   LIG    1       -3.636   2.764  -8.467  0.00  0.00    +0.370 C 
ATOM     21  N   LIG    1       -0.677   3.202  -6.598  0.00  0.00    -0.240 NA
ENDBRANCH  15  16
BRANCH  15  22
ATOM     22  N   LIG    1        1.047   1.597  -4.969  0.00  0.00    -0.500 NA
ATOM     23  C   LIG    1        1.763   0.873  -3.889  0.00  0.00    +0.160 C 
ATOM     24  C   LIG    1        3.236   0.886  -4.369  0.00  0.00    +0.030 C 
ATOM     25  C   LIG    1        3.103   0.700  -5.898  0.00  0.00    +0.010 C 
ATOM     26  C   LIG    1        1.670   1.152  -6.235  0.00  0.00    +0.160 C 
ENDBRANCH  15  22
ENDBRANCH  14  15
ENDBRANCH   2  14
TORSDOF 10
