REMARK  Name = ZINCrD00000dTsNK.0
REMARK                            x       y       z     vdW  Elec       q    Type
REMARK                         _______ _______ _______ _____ _____    ______ ____
ROOT
ATOM      1  N   LIG    1       -0.755   1.359   1.170  0.00  0.00    -0.460 N 
ATOM      2  C   LIG    1       -0.628   2.805   0.937  0.00  0.00    +0.170 C 
ATOM      3  C   LIG    1       -1.399   3.183  -0.331  0.00  0.00    +0.240 C 
ATOM      4  O   LIG    1       -0.905   2.412  -1.430  0.00  0.00    -0.370 OA
ATOM      5  C   LIG    1       -1.015   1.000  -1.237  0.00  0.00    +0.170 C 
ATOM      6  C   LIG    1       -0.240   0.600   0.021  0.00  0.00    +0.200 C 
ENDROOT
BRANCH   1  11
ATOM      7  N   LIG    1       -0.675   0.897   3.580  0.00  0.00    -0.460 N 
ATOM      8  C   LIG    1        0.331   0.495   4.415  0.00  0.00    +0.180 A 
ATOM      9  N   LIG    1        1.406   0.362   3.690  0.00  0.00    -0.250 NA
ATOM     10  N   LIG    1        1.148   0.645   2.463  0.00  0.00    -0.310 NA
ATOM     11  C   LIG    1       -0.113   0.986   2.340  0.00  0.00    +0.350 A 
BRANCH   8  12
ATOM     12  C   LIG    1        0.218   0.252   5.898  0.00  0.00    +0.260 C 
ATOM     13  C   LIG    1        0.873   1.410   6.656  0.00  0.00    +0.020 C 
ATOM     14  C   LIG    1        0.807   1.126   8.160  0.00  0.00    +0.030 C 
ATOM     15  C   LIG    1        1.488  -0.215   8.446  0.00  0.00    +0.000 C 
ATOM     16  C   LIG    1        0.810  -1.310   7.619  0.00  0.00    +0.210 C 
ATOM     17  O   LIG    1        0.879  -0.970   6.232  0.00  0.00    -0.360 OA
ENDBRANCH   8  12
BRANCH   7  19
ATOM     18  C   LIG    1       -2.893  -0.106   3.815  0.00  0.00    +0.040 C 
ATOM     19  C   LIG    1       -2.067   1.175   3.943  0.00  0.00    +0.290 C 
ENDBRANCH   7  19
ENDBRANCH   1  11
BRANCH   5  20
ATOM     20  C   LIG    1       -0.430   0.272  -2.450  0.00  0.00    +0.060 C 
BRANCH  20  21
ATOM     21  C   LIG    1       -1.280   0.574  -3.685  0.00  0.00    +0.070 C 
BRANCH  21  22
ATOM     22  C   LIG    1       -0.704  -0.142  -4.879  0.00  0.00    -0.080 A 
ATOM     23  C   LIG    1        0.242   0.482  -5.670  0.00  0.00    +0.000 A 
ATOM     24  C   LIG    1        0.774  -0.177  -6.762  0.00  0.00    +0.000 A 
ATOM     25  C   LIG    1        0.352  -1.457  -7.070  0.00  0.00    -0.010 A 
ATOM     26  C   LIG    1       -0.598  -2.079  -6.282  0.00  0.00    +0.000 A 
ATOM     27  C   LIG    1       -1.126  -1.422  -5.187  0.00  0.00    +0.000 A 
ENDBRANCH  21  22
ENDBRANCH  20  21
ENDBRANCH   5  20
TORSDOF 6
