REMARK  Name = ZINCkj000005mld3.0
REMARK                            x       y       z     vdW  Elec       q    Type
REMARK                         _______ _______ _______ _____ _____    ______ ____
ROOT
ATOM      1  N   LIG    1        1.357   1.660  -2.448  0.00  0.00    -0.500 N 
ATOM      2  H   LIG    1        1.336   2.667  -2.400  0.00  0.00    +0.430 HD
ATOM      3  H   LIG    1        0.414   1.304  -2.481  0.00  0.00    +0.430 HD
ENDROOT
BRANCH   1   4
ATOM      4  C   LIG    1        2.040   1.127  -1.261  0.00  0.00    +0.240 C 
BRANCH   4   5
ATOM      5  C   LIG    1        1.286   1.562  -0.002  0.00  0.00    +0.230 C 
BRANCH   5   6
ATOM      6  C   LIG    1        2.064   1.114   1.238  0.00  0.00    +0.110 C 
ATOM      7  C   LIG    1        2.261  -0.416   1.214  0.00  0.00    +0.000 C 
ATOM      8  C   LIG    1        2.122  -0.840   2.697  0.00  0.00    +0.020 C 
ATOM      9  C   LIG    1        0.993   0.086   3.213  0.00  0.00    +0.010 C 
ATOM     10  C   LIG    1        1.258   1.433   2.509  0.00  0.00    +0.010 C 
BRANCH   6  11
ATOM     11  O   LIG    1        3.332   1.771   1.284  0.00  0.00    -0.560 OA
ATOM     12  H   LIG    1        3.873   1.529   2.048  0.00  0.00    +0.400 HD
ENDBRANCH   6  11
ENDBRANCH   5   6
BRANCH   5  13
ATOM     13  O   LIG    1       -0.011   0.963   0.007  0.00  0.00    -0.540 OA
ATOM     14  H   LIG    1        0.002  -0.004   0.002  0.00  0.00    +0.390 HD
ENDBRANCH   5  13
ENDBRANCH   4   5
ENDBRANCH   1   4
BRANCH   1  15
ATOM     15  C   LIG    1        2.081   1.243  -3.656  0.00  0.00    +0.320 C 
BRANCH  15  16
ATOM     16  C   LIG    1        1.381   1.789  -4.874  0.00  0.00    -0.110 A 
ATOM     17  C   LIG    1        1.738   3.008  -5.348  0.00  0.00    +0.090 A 
ATOM     18  C   LIG    1        1.089   3.530  -6.489  0.00  0.00    +0.090 A 
ATOM     19  N   LIG    1        1.192   4.647  -7.185  0.00  0.00    -0.290 NA
ATOM     20  N   LIG    1        0.270   4.613  -8.238  0.00  0.00    -0.410 N 
ATOM     21  H   LIG    1        0.148   5.316  -8.894  0.00  0.00    +0.450 HD
ATOM     22  C   LIG    1       -0.419   3.465  -8.204  0.00  0.00    +0.310 A 
ATOM     23  C   LIG    1        0.038   2.725  -7.130  0.00  0.00    -0.210 A 
ATOM     24  C   LIG    1       -0.281   1.464  -6.582  0.00  0.00    +0.130 A 
ATOM     25  C   LIG    1        0.387   1.023  -5.487  0.00  0.00    -0.040 A 
ENDBRANCH  15  16
ENDBRANCH   1  15
TORSDOF 7
