REMARK  Name = ZINCrg00000fRA48.2
REMARK                            x       y       z     vdW  Elec       q    Type
REMARK                         _______ _______ _______ _____ _____    ______ ____
ROOT
ATOM      1  N   LIG    1       -0.117  -0.131   0.482  0.00  0.00    -0.650 N 
ATOM      2  H   LIG    1       -0.243  -1.088   0.392  0.00  0.00    +0.420 HD
ATOM      3  C   LIG    1       -1.184   0.693   0.471  0.00  0.00    +0.700 C 
ATOM      4  N   LIG    1       -2.425   0.187   0.337  0.00  0.00    -0.620 N 
ATOM      5  C   LIG    1       -2.616  -1.259   0.202  0.00  0.00    +0.280 C 
ATOM      6  O   LIG    1       -1.026   1.894   0.584  0.00  0.00    -0.520 OA
ENDROOT
BRANCH   1  12
ATOM      7  C   LIG    1        4.758  -0.787   0.765  0.00  0.00    +0.330 C 
ATOM      8  N   LIG    1        3.561   0.058   0.753  0.00  0.00    -0.480 N 
ATOM      9  C   LIG    1        3.670   1.411   0.874  0.00  0.00    +0.210 A 
ATOM     10  C   LIG    1        2.572   2.198   0.864  0.00  0.00    +0.180 A 
ATOM     11  N   LIG    1        1.348   1.691   0.731  0.00  0.00    -0.410 NA
ATOM     12  C   LIG    1        1.166   0.393   0.615  0.00  0.00    +0.310 A 
ATOM     13  C   LIG    1        2.334  -0.494   0.621  0.00  0.00    +0.490 A 
ATOM     14  O   LIG    1        2.201  -1.701   0.510  0.00  0.00    -0.530 OA
ENDBRANCH   1  12
BRANCH   4  15
ATOM     15  C   LIG    1       -3.585   1.083   0.326  0.00  0.00    +0.310 C 
BRANCH  15  16
ATOM     16  C   LIG    1       -3.882   1.514  -1.111  0.00  0.00    -0.020 C 
ATOM     17  C   LIG    1       -2.717   2.353  -1.645  0.00  0.00    +0.040 C 
ATOM     18  C   LIG    1       -3.049   2.831  -3.061  0.00  0.00    +0.020 C 
ATOM     19  C   LIG    1       -4.353   3.631  -3.032  0.00  0.00    +0.180 C 
ATOM     20  N   LIG    1       -5.436   2.784  -2.515  0.00  0.00    -0.540 NA
ATOM     21  C   LIG    1       -6.731   3.474  -2.602  0.00  0.00    +0.190 C 
ATOM     22  C   LIG    1       -5.162   2.352  -1.139  0.00  0.00    +0.220 C 
BRANCH  22  23
ATOM     23  C   LIG    1       -6.315   1.524  -0.633  0.00  0.00    +0.100 A 
ATOM     24  C   LIG    1       -7.101   1.815   0.429  0.00  0.00    -0.130 A 
ATOM     25  C   LIG    1       -8.049   0.794   0.555  0.00  0.00    +0.230 A 
ATOM     26  N   LIG    1       -7.835  -0.082  -0.392  0.00  0.00    -0.300 NA
ATOM     27  N   LIG    1       -6.745   0.356  -1.155  0.00  0.00    -0.350 N 
ATOM     28  C   LIG    1       -6.173  -0.332  -2.316  0.00  0.00    +0.360 C 
ENDBRANCH  22  23
ENDBRANCH  15  16
ENDBRANCH   4  15
TORSDOF 4
