REMARK  Name = ZINCrD000000CL6c.0
REMARK                            x       y       z     vdW  Elec       q    Type
REMARK                         _______ _______ _______ _____ _____    ______ ____
ROOT
ATOM      1  C   LIG    1        5.803   0.501   2.719  0.00  0.00    +0.560 C 
ATOM      2  N   LIG    1        4.716   1.031   2.125  0.00  0.00    -0.610 N 
ATOM      3  C   LIG    1        4.823   1.687   0.815  0.00  0.00    +0.280 C 
ATOM      4  C   LIG    1        4.223   3.093   0.917  0.00  0.00    +0.040 C 
ATOM      5  C   LIG    1        2.795   2.996   1.456  0.00  0.00    +0.150 C 
ATOM      6  C   LIG    1        2.816   2.377   2.856  0.00  0.00    +0.000 C 
ATOM      7  C   LIG    1        3.400   0.963   2.776  0.00  0.00    +0.280 C 
ATOM      8  O   LIG    1        5.723   0.053   3.846  0.00  0.00    -0.530 OA
ENDROOT
BRANCH   1  12
ATOM      9  C   LIG    1        9.513   0.395   0.652  0.00  0.00    -0.090 A 
ATOM     10  C   LIG    1        9.492   0.607   2.019  0.00  0.00    +0.020 A 
ATOM     11  C   LIG    1        8.291   0.642   2.697  0.00  0.00    +0.060 A 
ATOM     12  C   LIG    1        7.095   0.465   2.000  0.00  0.00    -0.130 A 
ATOM     13  C   LIG    1        7.123   0.247   0.621  0.00  0.00    +0.040 A 
ATOM     14  C   LIG    1        8.331   0.219  -0.045  0.00  0.00    +0.030 A 
BRANCH   9  15
ATOM     15  C   LIG    1       10.829   0.358  -0.081  0.00  0.00    +0.340 C 
BRANCH  15  21
ATOM     16  O   LIG    1       10.370  -1.687  -2.047  0.00  0.00    -0.530 OA
ATOM     17  C   LIG    1       11.060  -1.908  -1.075  0.00  0.00    +0.520 C 
ATOM     18  C   LIG    1       11.738  -3.227  -0.775  0.00  0.00    +0.050 C 
ATOM     19  C   LIG    1       12.118  -3.127   0.720  0.00  0.00    +0.040 C 
ATOM     20  C   LIG    1       12.211  -1.596   0.918  0.00  0.00    +0.260 C 
ATOM     21  N   LIG    1       11.335  -1.017  -0.107  0.00  0.00    -0.620 N 
ENDBRANCH  15  21
ENDBRANCH   9  15
ENDBRANCH   1  12
BRANCH   5  22
ATOM     22  O   LIG    1        2.221   4.303   1.522  0.00  0.00    -0.370 OA
BRANCH  22  23
ATOM     23  C   LIG    1        0.803   4.325   1.343  0.00  0.00    +0.150 C 
ATOM     24  C   LIG    1        0.083   4.263   2.713  0.00  0.00    +0.000 C 
ATOM     25  C   LIG    1       -1.300   4.892   2.398  0.00  0.00    +0.010 C 
ATOM     26  C   LIG    1       -0.982   6.032   1.409  0.00  0.00    +0.020 C 
ATOM     27  C   LIG    1        0.356   5.671   0.738  0.00  0.00    +0.030 C 
ENDBRANCH  22  23
ENDBRANCH   5  22
TORSDOF 5
