REMARK  Name = ZINCtV000002sQ8o.0
REMARK                            x       y       z     vdW  Elec       q    Type
REMARK                         _______ _______ _______ _____ _____    ______ ____
ROOT
ATOM      1  N   LIG    1        0.007   1.366  -1.368  0.00  0.00    -0.680 N 
ATOM      2  H   LIG    1        0.114   1.415  -2.331  0.00  0.00    +0.410 HD
ATOM      3  C   LIG    1        1.039   0.976  -0.594  0.00  0.00    +0.510 C 
ATOM      4  O   LIG    1        0.936   1.007   0.614  0.00  0.00    -0.490 OA
ENDROOT
BRANCH   1  10
ATOM      5  C   LIG    1       -1.296   2.775   0.098  0.00  0.00    -0.050 A 
ATOM      6  C   LIG    1       -2.508   3.111   0.669  0.00  0.00    +0.010 A 
ATOM      7  C   LIG    1       -3.640   2.374   0.375  0.00  0.00    +0.010 A 
ATOM      8  C   LIG    1       -3.565   1.304  -0.497  0.00  0.00    +0.010 A 
ATOM      9  C   LIG    1       -2.357   0.967  -1.077  0.00  0.00    -0.080 A 
ATOM     10  C   LIG    1       -1.218   1.704  -0.783  0.00  0.00    +0.130 A 
BRANCH   5  12
ATOM     11  C   LIG    1        0.071   4.735  -0.563  0.00  0.00    +0.020 C 
ATOM     12  C   LIG    1       -0.061   3.574   0.425  0.00  0.00    +0.030 C 
ATOM     13  C   LIG    1       -0.172   4.125   1.848  0.00  0.00    +0.030 C 
ENDBRANCH   5  12
BRANCH   9  14
ATOM     14  C   LIG    1       -2.276  -0.201  -2.027  0.00  0.00    +0.010 C 
ATOM     15  C   LIG    1       -3.201   0.048  -3.220  0.00  0.00    +0.040 C 
ATOM     16  C   LIG    1       -2.708  -1.478  -1.304  0.00  0.00    +0.030 C 
ENDBRANCH   9  14
ENDBRANCH   1  10
BRANCH   3  17
ATOM     17  C   LIG    1        2.320   0.501  -1.230  0.00  0.00    +0.220 C 
BRANCH  17  18
ATOM     18  N   LIG    1        3.281   0.136  -0.180  0.00  0.00    -0.530 NA
ATOM     19  C   LIG    1        2.817  -1.025   0.574  0.00  0.00    +0.160 C 
ATOM     20  C   LIG    1        3.576  -1.254   1.863  0.00  0.00    +0.250 C 
ATOM     21  O   LIG    1        4.944  -1.584   1.595  0.00  0.00    -0.320 OA
ATOM     22  C   LIG    1        5.778  -0.520   1.431  0.00  0.00    +0.140 A 
ATOM     23  C   LIG    1        6.755  -0.246   2.379  0.00  0.00    -0.050 A 
ATOM     24  C   LIG    1        7.581   0.851   2.213  0.00  0.00    +0.080 A 
ATOM     25  C   LIG    1        7.435   1.671   1.109  0.00  0.00    -0.090 A 
ATOM     26  C   LIG    1        6.467   1.391   0.159  0.00  0.00    +0.080 A 
ATOM     27 BR   LIG    1        8.560   3.176   0.896  0.00  0.00    -0.030 Br
ATOM     28 CL   LIG    1        6.938  -1.275   3.765  0.00  0.00    -0.040 Cl
ATOM     29  C   LIG    1        5.650   0.291   0.320  0.00  0.00    -0.090 A 
ATOM     30  C   LIG    1        4.623  -0.056  -0.741  0.00  0.00    +0.260 C 
ENDBRANCH  17  18
ENDBRANCH   3  17
TORSDOF 5
