REMARK  Name = ZINCqH0000007DsP.0
REMARK                            x       y       z     vdW  Elec       q    Type
REMARK                         _______ _______ _______ _____ _____    ______ ____
ROOT
ATOM      1  C   LIG    1        6.918  -1.625   0.323  0.00  0.00    +0.030 C 
ATOM      2  C   LIG    1        7.362  -0.703  -0.815  0.00  0.00    +0.020 C 
ATOM      3  C   LIG    1        6.139  -0.291  -1.641  0.00  0.00    +0.280 C 
ATOM      4  N   LIG    1        5.139   0.300  -0.742  0.00  0.00    -0.610 N 
ATOM      5  C   LIG    1        4.712  -0.463   0.439  0.00  0.00    +0.270 C 
ATOM      6  C   LIG    1        4.627   1.521  -0.992  0.00  0.00    +0.530 C 
ATOM      7  O   LIG    1        4.927   2.107  -2.011  0.00  0.00    -0.510 OA
ATOM      8  C   LIG    1        5.947  -0.875   1.239  0.00  0.00    +0.020 C 
ENDROOT
BRANCH   6   9
ATOM      9  C   LIG    1        3.683   2.159  -0.006  0.00  0.00    +0.210 C 
ATOM     10  O   LIG    1        3.808   3.579  -0.083  0.00  0.00    -0.350 OA
ATOM     11  C   LIG    1        2.820   4.274   0.687  0.00  0.00    +0.230 C 
ATOM     12  C   LIG    1        1.463   4.103   0.002  0.00  0.00    +0.060 C 
ATOM     13  C   LIG    1        1.231   2.647  -0.313  0.00  0.00    -0.060 A 
ATOM     14  C   LIG    1       -0.057   2.224  -0.600  0.00  0.00    +0.010 A 
ATOM     15  C   LIG    1       -0.303   0.899  -0.901  0.00  0.00    +0.020 A 
ATOM     16  C   LIG    1        0.739  -0.008  -0.919  0.00  0.00    +0.010 A 
ATOM     17  C   LIG    1        2.023   0.412  -0.632  0.00  0.00    +0.010 A 
ATOM     18  C   LIG    1        2.271   1.741  -0.326  0.00  0.00    -0.120 A 
ENDBRANCH   6   9
BRANCH   1  23
ATOM     19  C   LIG    1        9.543  -3.800   1.951  0.00  0.00    +0.130 A 
ATOM     20  C   LIG    1       10.338  -2.851   2.576  0.00  0.00    -0.080 A 
ATOM     21  C   LIG    1       10.022  -1.510   2.470  0.00  0.00    +0.040 A 
ATOM     22  C   LIG    1        8.919  -1.114   1.737  0.00  0.00    -0.030 A 
ATOM     23  C   LIG    1        8.123  -2.059   1.117  0.00  0.00    -0.040 A 
ATOM     24  C   LIG    1        8.434  -3.401   1.220  0.00  0.00    -0.020 A 
BRANCH  19  26
ATOM     25  C   LIG    1       11.008  -5.458   2.822  0.00  0.00    +0.250 C 
ATOM     26  O   LIG    1        9.851  -5.120   2.054  0.00  0.00    -0.320 OA
ENDBRANCH  19  26
ENDBRANCH   1  23
TORSDOF 3
