REMARK  Name = ZINCkj00000hcN1L.0
REMARK                            x       y       z     vdW  Elec       q    Type
REMARK                         _______ _______ _______ _____ _____    ______ ____
ROOT
ATOM      1  C   LIG    1       -3.566   2.608   3.173  0.00  0.00    +0.320 A 
ATOM      2  C   LIG    1       -3.670   3.019   4.505  0.00  0.00    -0.120 A 
ATOM      3  C   LIG    1       -4.915   3.371   4.990  0.00  0.00    +0.370 A 
ATOM      4  N   LIG    1       -5.967   3.298   4.189  0.00  0.00    -0.590 NA
ATOM      5  C   LIG    1       -5.841   2.899   2.932  0.00  0.00    +0.570 A 
ATOM      6  N   LIG    1       -4.667   2.559   2.425  0.00  0.00    -0.570 NA
ENDROOT
BRANCH   1   9
ATOM      7  C   LIG    1       -3.046   1.652   0.235  0.00  0.00    +0.160 C 
ATOM      8  C   LIG    1       -2.017   1.808   1.324  0.00  0.00    +0.150 A 
ATOM      9  C   LIG    1       -2.252   2.226   2.603  0.00  0.00    -0.240 A 
ATOM     10  C   LIG    1       -1.016   2.233   3.281  0.00  0.00    +0.280 A 
ATOM     11  N   LIG    1       -0.094   1.833   2.446  0.00  0.00    -0.290 NA
ATOM     12  N   LIG    1       -0.698   1.558   1.213  0.00  0.00    -0.360 N 
ATOM     13  C   LIG    1       -0.013   1.086   0.008  0.00  0.00    +0.360 C 
ENDBRANCH   1   9
BRANCH   5  14
ATOM     14  N   LIG    1       -6.966   2.837   2.128  0.00  0.00    -0.700 N 
ATOM     15  H   LIG    1       -6.888   2.547   1.206  0.00  0.00    +0.420 HD
BRANCH  14  16
ATOM     16  C   LIG    1       -8.275   3.209   2.670  0.00  0.00    +0.260 C 
ATOM     17  C   LIG    1       -8.464   4.725   2.556  0.00  0.00    +0.030 C 
ATOM     18  C   LIG    1       -9.865   5.094   3.053  0.00  0.00    +0.070 C 
ATOM     19  C   LIG    1      -10.907   4.317   2.245  0.00  0.00    +0.260 C 
ATOM     20  N   LIG    1      -10.690   2.876   2.417  0.00  0.00    -0.500 N 
ATOM     21  H   LIG    1      -10.726   2.647   3.399  0.00  0.00    +0.430 HD
ATOM     22  H   LIG    1      -11.410   2.368   1.927  0.00  0.00    +0.440 HD
ATOM     23  C   LIG    1       -9.377   2.503   1.877  0.00  0.00    +0.260 C 
ENDBRANCH  14  16
ENDBRANCH   5  14
TORSDOF 3
