REMARK  Name = ZINCqH0000003LwN.0
REMARK                            x       y       z     vdW  Elec       q    Type
REMARK                         _______ _______ _______ _____ _____    ______ ____
ROOT
ATOM      1  N   LIG    1        3.590   2.127  -0.031  0.00  0.00    -0.670 N 
ATOM      2  H   LIG    1        3.581   3.094  -0.109  0.00  0.00    +0.410 HD
ATOM      3  C   LIG    1        4.763   1.470   0.063  0.00  0.00    +0.510 C 
ATOM      4  O   LIG    1        4.779   0.257   0.066  0.00  0.00    -0.510 OA
ENDROOT
BRANCH   1   8
ATOM      5  C   LIG    1        0.001  -0.002   0.016  0.00  0.00    +0.090 A 
ATOM      6  C   LIG    1        1.086  -0.455   0.748  0.00  0.00    -0.010 A 
ATOM      7  C   LIG    1        2.275   0.250   0.732  0.00  0.00    +0.030 A 
ATOM      8  C   LIG    1        2.384   1.414  -0.016  0.00  0.00    +0.140 A 
ATOM      9  C   LIG    1        1.298   1.871  -0.751  0.00  0.00    -0.060 A 
ATOM     10  C   LIG    1        0.107   1.165  -0.736  0.00  0.00    +0.120 A 
BRANCH   5  11
ATOM     11  O   LIG    1       -1.168  -0.697   0.031  0.00  0.00    -0.300 OA
BRANCH  11  13
ATOM     12  C   LIG    1       -2.591  -2.526   0.718  0.00  0.00    +0.070 C 
ATOM     13  C   LIG    1       -1.206  -1.885   0.824  0.00  0.00    +0.170 C 
ENDBRANCH  11  13
ENDBRANCH   5  11
BRANCH  10  14
ATOM     14  O   LIG    1       -0.956   1.608  -1.459  0.00  0.00    -0.300 OA
BRANCH  14  15
ATOM     15  C   LIG    1       -0.775   2.812  -2.207  0.00  0.00    +0.170 C 
ATOM     16  C   LIG    1       -2.070   3.150  -2.950  0.00  0.00    +0.070 C 
ENDBRANCH  14  15
ENDBRANCH  10  14
ENDBRANCH   1   8
BRANCH   3  17
ATOM     17  C   LIG    1        6.053   2.241   0.163  0.00  0.00    +0.300 C 
BRANCH  17  18
ATOM     18  N   LIG    1        7.176   1.305   0.254  0.00  0.00    -0.730 N 
ATOM     19  H   LIG    1        7.013   0.349   0.243  0.00  0.00    +0.420 HD
BRANCH  18  20
ATOM     20  C   LIG    1        8.475   1.787   0.356  0.00  0.00    +0.250 A 
ATOM     21  C   LIG    1        8.708   3.160   0.366  0.00  0.00    -0.090 A 
ATOM     22  C   LIG    1        9.983   3.638   0.471  0.00  0.00    +0.110 A 
ATOM     23  C   LIG    1       11.059   2.744   0.557  0.00  0.00    -0.240 A 
ATOM     24  C   LIG    1       10.820   1.363   0.542  0.00  0.00    +0.120 A 
ATOM     25  C   LIG    1        9.542   0.894   0.442  0.00  0.00    -0.080 A 
BRANCH  23  26
ATOM     26  C   LIG    1       12.431   3.252   0.664  0.00  0.00    +0.400 C 
ATOM     27  O   LIG    1       13.367   2.482   0.638  0.00  0.00    -0.470 OA
ATOM     28  C   LIG    1       12.677   4.732   0.806  0.00  0.00    +0.060 C 
ENDBRANCH  23  26
ENDBRANCH  18  20
ENDBRANCH  17  18
ENDBRANCH   3  17
TORSDOF 9
