REMARK  Name = ZINCrg00000xfWtU.0
REMARK                            x       y       z     vdW  Elec       q    Type
REMARK                         _______ _______ _______ _____ _____    ______ ____
ROOT
ATOM      1  C   LIG    1        5.451   3.020   0.268  0.00  0.00    +0.540 C 
ATOM      2  N   LIG    1        5.960   4.035   0.994  0.00  0.00    -0.620 N 
ATOM      3  C   LIG    1        5.389   4.378   2.304  0.00  0.00    +0.300 C 
ATOM      4  C   LIG    1        5.021   5.866   2.306  0.00  0.00    +0.050 C 
ATOM      5  C   LIG    1        6.239   6.690   1.902  0.00  0.00    +0.130 C 
ATOM      6  N   LIG    1        7.320   6.523   2.881  0.00  0.00    -0.720 N 
ATOM      7  H   LIG    1        7.775   5.697   3.109  0.00  0.00    +0.440 HD
ATOM      8  C   LIG    1        7.556   7.744   3.399  0.00  0.00    +0.710 C 
ATOM      9  N   LIG    1        6.763   8.684   2.872  0.00  0.00    -0.680 N 
ATOM     10  H   LIG    1        6.791   9.622   3.119  0.00  0.00    +0.430 HD
ATOM     11  O   LIG    1        8.398   7.966   4.247  0.00  0.00    -0.540 OA
ATOM     12  C   LIG    1        6.716   6.303   0.506  0.00  0.00    +0.050 C 
ATOM     13  C   LIG    1        5.917   8.166   1.958  0.00  0.00    +0.530 C 
ATOM     14  O   LIG    1        5.080   8.760   1.313  0.00  0.00    -0.460 OA
ATOM     15  C   LIG    1        7.097   4.818   0.491  0.00  0.00    +0.280 C 
ATOM     16  O   LIG    1        4.573   2.323   0.731  0.00  0.00    -0.500 OA
ENDROOT
BRANCH   1  17
ATOM     17  C   LIG    1        5.974   2.750  -1.120  0.00  0.00    -0.060 C 
ATOM     18  C   LIG    1        5.326   1.470  -1.703  0.00  0.00    +0.070 C 
ATOM     19  C   LIG    1        6.160   0.338  -1.052  0.00  0.00    +0.010 C 
ATOM     20  C   LIG    1        7.600   0.892  -1.033  0.00  0.00    +0.010 C 
ATOM     21  C   LIG    1        7.481   2.426  -1.075  0.00  0.00    +0.030 C 
BRANCH  17  22
ATOM     22  C   LIG    1        5.710   3.950  -2.032  0.00  0.00    +0.070 C 
BRANCH  22  25
ATOM     23  N   LIG    1        3.773   5.328  -2.715  0.00  0.00    -0.730 N 
ATOM     24  H   LIG    1        4.387   5.894  -3.208  0.00  0.00    +0.400 HD
ATOM     25  C   LIG    1        4.231   4.234  -2.075  0.00  0.00    +0.510 C 
ATOM     26  O   LIG    1        3.453   3.477  -1.533  0.00  0.00    -0.510 OA
BRANCH  23  28
ATOM     27  C   LIG    1        1.916   5.842  -1.208  0.00  0.00    +0.030 C 
ATOM     28  C   LIG    1        2.347   5.662  -2.665  0.00  0.00    +0.170 C 
ATOM     29  C   LIG    1        1.536   4.532  -3.301  0.00  0.00    +0.030 C 
ATOM     30  C   LIG    1        2.101   6.962  -3.434  0.00  0.00    +0.030 C 
ENDBRANCH  23  28
ENDBRANCH  22  25
ENDBRANCH  17  22
ENDBRANCH   1  17
TORSDOF 4
