REMARK  Name = ZINCrH000004lGuO.0
REMARK                            x       y       z     vdW  Elec       q    Type
REMARK                         _______ _______ _______ _____ _____    ______ ____
ROOT
ATOM      1  N   LIG    1        0.022   3.271  -6.901  0.00  0.00    -0.730 N 
ATOM      2  H   LIG    1        0.988   3.178  -6.916  0.00  0.00    +0.400 HD
ATOM      3  C   LIG    1       -0.658   3.051  -5.759  0.00  0.00    +0.710 C 
ATOM      4  N   LIG    1        0.002   2.701  -4.638  0.00  0.00    -0.680 N 
ATOM      5  H   LIG    1        0.972   2.682  -4.632  0.00  0.00    +0.410 HD
ATOM      6  O   LIG    1       -1.869   3.168  -5.740  0.00  0.00    -0.570 OA
ENDROOT
BRANCH   4   7
ATOM      7  C   LIG    1       -0.712   2.363  -3.480  0.00  0.00    +0.150 A 
ATOM      8  C   LIG    1       -1.941   1.726  -3.584  0.00  0.00    +0.050 A 
ATOM      9  C   LIG    1       -2.645   1.394  -2.444  0.00  0.00    +0.000 A 
ATOM     10  C   LIG    1       -2.124   1.698  -1.193  0.00  0.00    +0.140 A 
ATOM     11  C   LIG    1       -0.895   2.335  -1.090  0.00  0.00    -0.100 A 
ATOM     12  C   LIG    1       -0.332   2.663   0.269  0.00  0.00    +0.090 C 
ATOM     13  C   LIG    1       -1.475   3.007   1.225  0.00  0.00    +0.070 C 
ATOM     14  C   LIG    1       -2.551   1.959   1.137  0.00  0.00    +0.520 C 
ATOM     15  O   LIG    1       -3.167   1.647   2.134  0.00  0.00    -0.530 OA
ATOM     16  N   LIG    1       -2.836   1.363  -0.035  0.00  0.00    -0.550 N 
ATOM     17  C   LIG    1       -3.900   0.357  -0.100  0.00  0.00    +0.310 C 
ATOM     18  C   LIG    1       -0.191   2.667  -2.229  0.00  0.00    +0.020 A 
ENDBRANCH   4   7
BRANCH   1  19
ATOM     19  C   LIG    1       -0.696   3.651  -8.120  0.00  0.00    +0.320 C 
BRANCH  19  20
ATOM     20  C   LIG    1        0.304   3.840  -9.263  0.00  0.00    +0.200 C 
BRANCH  20  21
ATOM     21  C   LIG    1       -0.434   4.231 -10.517  0.00  0.00    -0.110 A 
ATOM     22  C   LIG    1       -0.572   5.565 -10.850  0.00  0.00    +0.060 A 
ATOM     23  C   LIG    1       -1.245   5.924 -12.003  0.00  0.00    +0.010 A 
ATOM     24  C   LIG    1       -1.791   4.950 -12.818  0.00  0.00    +0.030 A 
ATOM     25  C   LIG    1       -1.658   3.615 -12.483  0.00  0.00    +0.030 A 
ATOM     26  C   LIG    1       -0.980   3.255 -11.332  0.00  0.00    -0.030 A 
ATOM     27 CL   LIG    1       -0.814   1.579 -10.910  0.00  0.00    -0.060 Cl
ENDBRANCH  20  21
BRANCH  20  29
ATOM     28  C   LIG    1        2.529   4.700  -9.499  0.00  0.00    +0.210 C 
ATOM     29  O   LIG    1        1.234   4.868  -8.918  0.00  0.00    -0.370 OA
ENDBRANCH  20  29
ENDBRANCH  19  20
ENDBRANCH   1  19
TORSDOF 5
