REMARK  Name = ZINCrg00000SjSJT.0
REMARK                            x       y       z     vdW  Elec       q    Type
REMARK                         _______ _______ _______ _____ _____    ______ ____
ROOT
ATOM      1  N   LIG    1       -0.370   4.095   4.521  0.00  0.00    -0.730 N 
ATOM      2  H   LIG    1       -0.053   3.262   4.904  0.00  0.00    +0.400 HD
ATOM      3  C   LIG    1       -1.545   4.618   4.924  0.00  0.00    +0.710 C 
ATOM      4  N   LIG    1       -2.279   3.983   5.859  0.00  0.00    -0.740 N 
ATOM      5  H   LIG    1       -1.962   3.150   6.242  0.00  0.00    +0.400 HD
ATOM      6  O   LIG    1       -1.942   5.662   4.445  0.00  0.00    -0.570 OA
ENDROOT
BRANCH   4   7
ATOM      7  C   LIG    1       -3.557   4.551   6.298  0.00  0.00    +0.260 C 
ATOM      8  C   LIG    1       -3.877   4.056   7.711  0.00  0.00    +0.040 C 
ATOM      9  C   LIG    1       -5.088   4.826   8.254  0.00  0.00    +0.180 C 
ATOM     10  C   LIG    1       -6.170   4.807   7.202  0.00  0.00    +0.270 A 
ATOM     11  N   LIG    1       -7.435   5.084   7.349  0.00  0.00    -0.540 NA
ATOM     12  C   LIG    1       -8.065   4.949   6.180  0.00  0.00    +0.420 A 
ATOM     13  N   LIG    1       -7.198   4.582   5.268  0.00  0.00    -0.310 NA
ATOM     14  N   LIG    1       -5.961   4.485   5.911  0.00  0.00    -0.370 N 
ATOM     15  C   LIG    1       -4.668   4.112   5.337  0.00  0.00    +0.310 C 
ENDBRANCH   4   7
BRANCH   1  19
ATOM     16  N   LIG    1        1.157   4.074   1.394  0.00  0.00    -0.620 N 
ATOM     17  C   LIG    1        2.372   4.362   2.164  0.00  0.00    +0.260 C 
ATOM     18  C   LIG    1        1.922   4.407   3.642  0.00  0.00    +0.050 C 
ATOM     19  C   LIG    1        0.429   4.785   3.505  0.00  0.00    +0.260 C 
ATOM     20  C   LIG    1        0.050   4.313   2.118  0.00  0.00    +0.500 C 
ATOM     21  O   LIG    1       -1.086   4.169   1.720  0.00  0.00    -0.510 OA
BRANCH  16  22
ATOM     22  C   LIG    1        1.151   3.592   0.010  0.00  0.00    +0.350 C 
BRANCH  22  27
ATOM     23  C   LIG    1        1.229  -2.186  -0.021  0.00  0.00    +0.090 C 
ATOM     24  C   LIG    1        1.208  -0.679  -0.013  0.00  0.00    -0.080 A 
ATOM     25  C   LIG    1        0.002  -0.004   0.002  0.00  0.00    +0.000 A 
ATOM     26  C   LIG    1       -0.017   1.378   0.010  0.00  0.00    +0.030 A 
ATOM     27  C   LIG    1        1.171   2.086   0.002  0.00  0.00    -0.120 A 
ATOM     28  C   LIG    1        2.377   1.411  -0.015  0.00  0.00    +0.020 A 
ATOM     29  C   LIG    1        2.396   0.029  -0.021  0.00  0.00    +0.000 A 
ENDBRANCH  22  27
ENDBRANCH  16  22
ENDBRANCH   1  19
TORSDOF 4
