REMARK  Name = ZINCqH0000005gMN.0
REMARK                            x       y       z     vdW  Elec       q    Type
REMARK                         _______ _______ _______ _____ _____    ______ ____
ROOT
ATOM      1  C   LIG    1        1.262  -7.743  -4.065  0.00  0.00    +0.290 C 
ATOM      2  N   LIG    1        1.284  -8.702  -2.957  0.00  0.00    -0.630 N 
ATOM      3  C   LIG    1        1.291  -8.260  -1.684  0.00  0.00    +0.710 C 
ATOM      4  N   LIG    1        1.276  -6.936  -1.430  0.00  0.00    -0.740 N 
ATOM      5  H   LIG    1        1.262  -6.302  -2.163  0.00  0.00    +0.400 HD
ATOM      6  O   LIG    1        1.309  -9.055  -0.764  0.00  0.00    -0.580 OA
ENDROOT
BRANCH   4   7
ATOM      7  C   LIG    1        1.283  -6.456  -0.046  0.00  0.00    +0.340 C 
BRANCH   7   8
ATOM      8  C   LIG    1        1.264  -4.949  -0.037  0.00  0.00    -0.110 A 
ATOM      9  C   LIG    1        0.056  -4.275  -0.022  0.00  0.00    +0.040 A 
ATOM     10  C   LIG    1        0.033  -2.895  -0.014  0.00  0.00    +0.020 A 
ATOM     11  C   LIG    1        1.230  -2.181  -0.021  0.00  0.00    -0.030 A 
ATOM     12  C   LIG    1        2.443  -2.865  -0.042  0.00  0.00    +0.020 A 
ATOM     13  C   LIG    1        2.455  -4.245  -0.044  0.00  0.00    +0.040 A 
BRANCH  11  14
ATOM     14  C   LIG    1        1.211  -0.697  -0.013  0.00  0.00    -0.100 A 
ATOM     15  C   LIG    1        2.405   0.028  -0.020  0.00  0.00    +0.070 A 
ATOM     16  C   LIG    1        2.334   1.411  -0.013  0.00  0.00    -0.030 A 
ATOM     17  C   LIG    1        1.095   2.024   0.003  0.00  0.00    +0.260 A 
ATOM     18  N   LIG    1       -0.016   1.313   0.009  0.00  0.00    -0.480 NA
ATOM     19  C   LIG    1        0.002  -0.004   0.002  0.00  0.00    +0.270 A 
ENDBRANCH  11  14
ENDBRANCH   7   8
ENDBRANCH   4   7
BRANCH   2  20
ATOM     20  C   LIG    1        1.300 -10.140  -3.233  0.00  0.00    +0.360 C 
BRANCH  20  21
ATOM     21  C   LIG    1       -0.115 -10.652  -3.315  0.00  0.00    -0.120 A 
ATOM     22  C   LIG    1       -0.748 -11.117  -2.176  0.00  0.00    +0.050 A 
ATOM     23  C   LIG    1       -2.047 -11.580  -2.247  0.00  0.00    -0.020 A 
ATOM     24  C   LIG    1       -2.713 -11.590  -3.464  0.00  0.00    +0.110 A 
ATOM     25  C   LIG    1       -2.075 -11.129  -4.606  0.00  0.00    -0.020 A 
ATOM     26  C   LIG    1       -0.777 -10.660  -4.529  0.00  0.00    +0.030 A 
BRANCH  24  27
ATOM     27  O   LIG    1       -3.989 -12.052  -3.538  0.00  0.00    -0.500 OA
ATOM     28  H   LIG    1       -4.055 -13.000  -3.719  0.00  0.00    +0.390 HD
ENDBRANCH  24  27
ENDBRANCH  20  21
ENDBRANCH   2  20
TORSDOF 6
