REMARK  Name = ZINCvU0000000CO8.0
REMARK                            x       y       z     vdW  Elec       q    Type
REMARK                         _______ _______ _______ _____ _____    ______ ____
ROOT
ATOM      1  C   LIG    1        0.002  -0.004   0.002  0.00  0.00    +0.120 A 
ATOM      2  N   LIG    1       -0.016   1.306   0.009  0.00  0.00    -0.390 NA
ATOM      3  C   LIG    1        1.137   1.989   0.002  0.00  0.00    +0.070 A 
ATOM      4  C   LIG    1        1.144   3.394   0.010  0.00  0.00    +0.080 A 
ATOM      5  C   LIG    1        2.330   4.063   0.003  0.00  0.00    +0.040 A 
ATOM      6  C   LIG    1        3.541   3.375  -0.013  0.00  0.00    +0.060 A 
ATOM      7  C   LIG    1        3.572   2.014  -0.021  0.00  0.00    +0.060 A 
ATOM      8  C   LIG    1        2.368   1.289  -0.014  0.00  0.00    +0.110 A 
ATOM      9  N   LIG    1        2.369  -0.050  -0.021  0.00  0.00    -0.430 NA
ATOM     10  C   LIG    1        1.223  -0.704  -0.013  0.00  0.00    +0.110 A 
ENDROOT
BRANCH   1  11
ATOM     11  C   LIG    1       -1.297  -0.768   0.011  0.00  0.00    -0.230 C 
BRANCH  11  12
ATOM     12  S   LIG    1       -2.443  -0.026  -1.183  0.00  0.00    +2.520 S 
ATOM     13  O   LIG    1       -2.047  -0.335  -2.513  0.00  0.00    -0.900 OA
ATOM     14  O   LIG    1       -2.765   1.305  -0.805  0.00  0.00    -0.880 OA
BRANCH  12  19
ATOM     15  C   LIG    1       -7.594  -3.074  -0.421  0.00  0.00    +0.100 C 
ATOM     16  C   LIG    1       -6.308  -2.313  -0.611  0.00  0.00    -0.020 A 
ATOM     17  C   LIG    1       -6.065  -1.171   0.128  0.00  0.00    +0.000 A 
ATOM     18  C   LIG    1       -4.884  -0.472  -0.046  0.00  0.00    +0.130 A 
ATOM     19  C   LIG    1       -3.947  -0.917  -0.960  0.00  0.00    -0.680 A 
ATOM     20  C   LIG    1       -4.192  -2.056  -1.703  0.00  0.00    +0.130 A 
ATOM     21  C   LIG    1       -5.370  -2.758  -1.525  0.00  0.00    +0.000 A 
ENDBRANCH  12  19
ENDBRANCH  11  12
BRANCH  11  22
ATOM     22  C   LIG    1       -1.888  -0.715   1.358  0.00  0.00    +0.220 C 
ATOM     23  N   LIG    1       -2.345  -0.674   2.397  0.00  0.00    -0.350 NA
ENDBRANCH  11  22
ENDBRANCH   1  11
BRANCH  10  24
ATOM     24  S   LIG    1        1.220  -2.466  -0.023  0.00  0.00    -0.020 S 
BRANCH  24  25
ATOM     25  C   LIG    1        3.002  -2.782  -0.042  0.00  0.00    +0.160 C 
BRANCH  25  26
ATOM     26  C   LIG    1        3.248  -4.269  -0.052  0.00  0.00    -0.090 A 
ATOM     27  C   LIG    1        3.378  -4.956   1.140  0.00  0.00    +0.030 A 
ATOM     28  C   LIG    1        3.599  -6.321   1.131  0.00  0.00    +0.010 A 
ATOM     29  C   LIG    1        3.701  -6.996  -0.071  0.00  0.00    +0.020 A 
ATOM     30  C   LIG    1        3.576  -6.308  -1.263  0.00  0.00    +0.010 A 
ATOM     31  C   LIG    1        3.350  -4.944  -1.254  0.00  0.00    +0.030 A 
ENDBRANCH  25  26
ENDBRANCH  24  25
ENDBRANCH  10  24
TORSDOF 7
