REMARK  Name = ZINCpk00000xI4l2.1
REMARK                            x       y       z     vdW  Elec       q    Type
REMARK                         _______ _______ _______ _____ _____    ______ ____
ROOT
ATOM      1  N   LIG    1        5.155   4.881  -0.020  0.00  0.00    -0.500 NA
ATOM      2  C   LIG    1        4.588   5.415  -1.266  0.00  0.00    +0.220 C 
ENDROOT
BRANCH   1   3
ATOM      3  C   LIG    1        5.152   3.412  -0.028  0.00  0.00    +0.220 C 
BRANCH   3   6
ATOM      4  N   LIG    1        3.482   1.588  -0.022  0.00  0.00    -0.630 N 
ATOM      5  H   LIG    1        4.218   0.956  -0.032  0.00  0.00    +0.420 HD
ATOM      6  C   LIG    1        3.731   2.912  -0.018  0.00  0.00    +0.500 C 
ATOM      7  O   LIG    1        2.810   3.702  -0.005  0.00  0.00    -0.430 OA
BRANCH   4  11
ATOM      8  C   LIG    1        0.002  -0.004   0.002  0.00  0.00    +0.010 A 
ATOM      9  N   LIG    1       -0.015   1.291   0.009  0.00  0.00    -0.230 NA
ATOM     10  N   LIG    1        1.106   1.871   0.002  0.00  0.00    -0.270 NA
ATOM     11  C   LIG    1        2.170   1.127  -0.013  0.00  0.00    +0.230 A 
ATOM     12  S   LIG    1        1.690  -0.518  -0.017  0.00  0.00    +0.100 S 
BRANCH   8  14
ATOM     13  C   LIG    1       -1.625  -1.208  -1.431  0.00  0.00    +0.040 C 
ATOM     14  C   LIG    1       -1.203  -0.909   0.009  0.00  0.00    +0.150 C 
ENDBRANCH   8  14
ENDBRANCH   4  11
ENDBRANCH   3   6
ENDBRANCH   1   3
BRANCH   1  15
ATOM     15  C   LIG    1        6.509   5.404   0.208  0.00  0.00    +0.290 C 
BRANCH  15  16
ATOM     16  C   LIG    1        6.439   6.889   0.454  0.00  0.00    +0.440 A 
ATOM     17  N   LIG    1        5.270   7.465   0.426  0.00  0.00    -0.560 NA
ATOM     18  C   LIG    1        5.126   8.787   0.642  0.00  0.00    +0.530 A 
ATOM     19  C   LIG    1        6.338   9.583   0.903  0.00  0.00    -0.210 A 
ATOM     20  C   LIG    1        6.287  10.956   1.132  0.00  0.00    +0.110 A 
ATOM     21  C   LIG    1        7.455  11.647   1.370  0.00  0.00    -0.010 A 
ATOM     22  C   LIG    1        8.674  10.986   1.383  0.00  0.00    +0.080 A 
ATOM     23  C   LIG    1        8.741   9.626   1.158  0.00  0.00    -0.020 A 
ATOM     24  C   LIG    1        7.575   8.912   0.916  0.00  0.00    +0.180 A 
ATOM     25  O   LIG    1        4.025   9.310   0.618  0.00  0.00    -0.470 OA
ATOM     26  N   LIG    1        7.586   7.551   0.685  0.00  0.00    -0.630 N 
ATOM     27  H   LIG    1        8.428   7.069   0.690  0.00  0.00    +0.420 HD
ENDBRANCH  15  16
ENDBRANCH   1  15
TORSDOF 6
