REMARK  Name = ZINCvU00000005V4.0
REMARK                            x       y       z     vdW  Elec       q    Type
REMARK                         _______ _______ _______ _____ _____    ______ ____
ROOT
ATOM      1  C   LIG    1        0.361   3.086   3.983  0.00  0.00    +0.100 C 
ENDROOT
BRANCH   1   3
ATOM      2  N   LIG    1        0.016   1.002   2.696  0.00  0.00    -0.590 N 
ATOM      3  C   LIG    1        0.398   1.586   3.849  0.00  0.00    +0.540 C 
ATOM      4  O   LIG    1        0.772   0.903   4.779  0.00  0.00    -0.520 OA
BRANCH   2   6
ATOM      5  C   LIG    1        0.396   1.498   0.331  0.00  0.00    +0.040 C 
ATOM      6  C   LIG    1       -0.436   1.827   1.572  0.00  0.00    +0.260 C 
BRANCH   6   7
ATOM      7  C   LIG    1       -1.911   1.539   1.289  0.00  0.00    -0.060 C 
ATOM      8  C   LIG    1       -2.252   0.820  -0.018  0.00  0.00    +0.020 C 
ATOM      9  C   LIG    1       -2.574   2.307   0.143  0.00  0.00    +0.030 C 
ENDBRANCH   6   7
ENDBRANCH   2   6
BRANCH   2  10
ATOM     10  C   LIG    1        0.052  -0.456   2.565  0.00  0.00    +0.340 C 
BRANCH  10  11
ATOM     11  C   LIG    1       -1.214  -1.043   3.136  0.00  0.00    -0.110 A 
ATOM     12  C   LIG    1       -1.314  -1.283   4.493  0.00  0.00    +0.030 A 
ATOM     13  C   LIG    1       -2.476  -1.817   5.017  0.00  0.00    -0.010 A 
ATOM     14  C   LIG    1       -3.535  -2.120   4.182  0.00  0.00    +0.010 A 
ATOM     15  C   LIG    1       -3.433  -1.885   2.823  0.00  0.00    -0.010 A 
ATOM     16  C   LIG    1       -2.272  -1.347   2.300  0.00  0.00    +0.030 A 
ENDBRANCH  10  11
ENDBRANCH   2  10
ENDBRANCH   1   3
BRANCH   1  17
ATOM     17  S   LIG    1        0.929   3.558   5.635  0.00  0.00    +0.150 S 
BRANCH  17  18
ATOM     18  C   LIG    1        0.788   5.311   5.519  0.00  0.00    +0.110 A 
ATOM     19  N   LIG    1        0.379   5.988   4.473  0.00  0.00    -0.280 NA
ATOM     20  N   LIG    1        0.398   7.246   4.742  0.00  0.00    -0.270 NA
ATOM     21  C   LIG    1        0.829   7.423   5.968  0.00  0.00    +0.260 A 
ATOM     22  O   LIG    1        1.085   6.201   6.486  0.00  0.00    -0.210 OA
BRANCH  21  23
ATOM     23  C   LIG    1        1.003   8.717   6.655  0.00  0.00    -0.130 A 
ATOM     24  C   LIG    1        1.449   8.909   7.923  0.00  0.00    +0.310 A 
ATOM     25  N   LIG    1        1.475  10.244   8.205  0.00  0.00    -0.580 N 
ATOM     26  H   LIG    1        1.758  10.627   9.050  0.00  0.00    +0.430 HD
ATOM     27  C   LIG    1        1.041  10.969   7.116  0.00  0.00    +0.090 A 
ATOM     28  C   LIG    1        0.880  12.331   6.882  0.00  0.00    +0.000 A 
ATOM     29  C   LIG    1        0.415  12.768   5.660  0.00  0.00    +0.040 A 
ATOM     30  C   LIG    1        0.104  11.862   4.657  0.00  0.00    -0.010 A 
ATOM     31  C   LIG    1        0.257  10.510   4.868  0.00  0.00    +0.070 A 
ATOM     32  C   LIG    1        0.732  10.053   6.096  0.00  0.00    -0.070 A 
ENDBRANCH  21  23
ENDBRANCH  17  18
ENDBRANCH   1  17
TORSDOF 8
