REMARK  Name = ZINCpk00000jFn3k.0
REMARK                            x       y       z     vdW  Elec       q    Type
REMARK                         _______ _______ _______ _____ _____    ______ ____
ROOT
ATOM      1  C   LIG    1        1.265   1.750  -0.001  0.00  0.00    -0.050 A 
ATOM      2  C   LIG    1        2.091   0.661  -0.015  0.00  0.00    +0.250 A 
ATOM      3  N   LIG    1        1.297  -0.429  -0.014  0.00  0.00    -0.450 N 
ATOM      4  C   LIG    1        1.713  -1.834  -0.028  0.00  0.00    +0.280 C 
ATOM      5  C   LIG    1        0.520  -2.698  -0.451  0.00  0.00    +0.250 C 
ATOM      6  C   LIG    1       -0.701  -2.334   0.399  0.00  0.00    +0.040 C 
ATOM      7  C   LIG    1       -1.190  -0.933   0.010  0.00  0.00    +0.180 C 
ATOM      8  C   LIG    1        0.002  -0.004   0.002  0.00  0.00    +0.210 A 
ATOM      9  N   LIG    1       -0.015   1.294   0.009  0.00  0.00    -0.430 NA
ENDROOT
BRANCH   5  10
ATOM     10  N   LIG    1        0.847  -4.112  -0.255  0.00  0.00    -0.720 N 
ATOM     11  H   LIG    1        0.586  -4.562   0.564  0.00  0.00    +0.400 HD
ATOM     12  C   LIG    1        1.511  -4.789  -1.214  0.00  0.00    +0.610 C 
ATOM     13  O   LIG    1        1.838  -4.224  -2.241  0.00  0.00    -0.520 OA
BRANCH  12  14
ATOM     14  C   LIG    1        1.837  -6.201  -1.018  0.00  0.00    -0.360 A 
ATOM     15  C   LIG    1        2.503  -7.003  -1.903  0.00  0.00    +0.220 A 
ATOM     16  N   LIG    1        2.669  -8.233  -1.486  0.00  0.00    -0.550 NA
ATOM     17  C   LIG    1        2.193  -8.534  -0.312  0.00  0.00    +0.340 A 
ATOM     18  S   LIG    1        1.450  -7.170   0.401  0.00  0.00    +0.130 S 
BRANCH  17  19
ATOM     19  N   LIG    1        2.280  -9.778   0.276  0.00  0.00    -0.800 N 
ATOM     20  H   LIG    1        1.900  -9.926   1.156  0.00  0.00    +0.420 HD
ATOM     21  H   LIG    1        2.721 -10.505  -0.191  0.00  0.00    +0.420 HD
ENDBRANCH  17  19
BRANCH  15  22
ATOM     22  C   LIG    1        3.001  -6.516  -3.239  0.00  0.00    +0.130 C 
ATOM     23  C   LIG    1        4.424  -5.976  -3.087  0.00  0.00    +0.040 C 
ENDBRANCH  15  22
ENDBRANCH  12  14
ENDBRANCH   5  10
BRANCH   1  24
ATOM     24  C   LIG    1        1.685   3.160   0.003  0.00  0.00    +0.560 C 
ATOM     25  O   LIG    1        2.868   3.442  -0.007  0.00  0.00    -0.510 OA
BRANCH  24  26
ATOM     26  O   LIG    1        0.759   4.140   0.018  0.00  0.00    -0.340 OA
BRANCH  26  28
ATOM     27  C   LIG    1        0.058   6.472   0.039  0.00  0.00    +0.070 C 
ATOM     28  C   LIG    1        1.246   5.508   0.021  0.00  0.00    +0.200 C 
ENDBRANCH  26  28
ENDBRANCH  24  26
ENDBRANCH   1  24
TORSDOF 7
