REMARK  Name = ZINCqH0000034qhK.0
REMARK                            x       y       z     vdW  Elec       q    Type
REMARK                         _______ _______ _______ _____ _____    ______ ____
ROOT
ATOM      1  C   LIG    1       -3.462   6.431  -0.502  0.00  0.00    +0.310 C 
ATOM      2  N   LIG    1       -2.711   5.828  -1.607  0.00  0.00    -0.570 N 
ATOM      3  C   LIG    1       -1.890   4.786  -1.373  0.00  0.00    +0.500 C 
ATOM      4  O   LIG    1       -1.340   4.228  -2.299  0.00  0.00    -0.500 OA
ENDROOT
BRANCH   2   5
ATOM      5  C   LIG    1       -2.847   6.333  -2.899  0.00  0.00    +0.290 A 
ATOM      6  C   LIG    1       -1.939   7.276  -3.379  0.00  0.00    +0.050 A 
ATOM      7  C   LIG    1       -2.113   7.748  -4.668  0.00  0.00    +0.060 A 
ATOM      8  C   LIG    1       -3.190   7.251  -5.409  0.00  0.00    +0.120 A 
ATOM      9  N   LIG    1       -4.004   6.354  -4.868  0.00  0.00    -0.220 NA
ATOM     10  N   LIG    1       -3.836   5.913  -3.674  0.00  0.00    -0.230 NA
BRANCH   8  11
ATOM     11  C   LIG    1       -3.422   7.726  -6.795  0.00  0.00    -0.060 A 
ATOM     12  C   LIG    1       -2.571   8.673  -7.362  0.00  0.00    +0.040 A 
ATOM     13  C   LIG    1       -2.788   9.106  -8.654  0.00  0.00    +0.010 A 
ATOM     14  C   LIG    1       -3.855   8.611  -9.382  0.00  0.00    +0.030 A 
ATOM     15  C   LIG    1       -4.706   7.676  -8.823  0.00  0.00    +0.010 A 
ATOM     16  C   LIG    1       -4.495   7.230  -7.534  0.00  0.00    +0.070 A 
ENDBRANCH   8  11
ENDBRANCH   2   5
BRANCH   3  17
ATOM     17  C   LIG    1       -1.654   4.313   0.038  0.00  0.00    +0.350 C 
BRANCH  17  18
ATOM     18  N   LIG    1       -0.730   3.176   0.025  0.00  0.00    -0.470 N 
ATOM     19  C   LIG    1       -1.103   1.860   0.018  0.00  0.00    +0.230 A 
ATOM     20  C   LIG    1       -0.014   1.075   0.009  0.00  0.00    -0.050 A 
ATOM     21  C   LIG    1        1.152   1.962   0.000  0.00  0.00    -0.110 A 
ATOM     22  C   LIG    1        2.532   1.750  -0.014  0.00  0.00    +0.050 A 
ATOM     23  C   LIG    1        3.382   2.819  -0.019  0.00  0.00    -0.030 A 
ATOM     24  C   LIG    1        2.886   4.115  -0.009  0.00  0.00    +0.020 A 
ATOM     25  C   LIG    1        1.528   4.347   0.006  0.00  0.00    -0.020 A 
ATOM     26  C   LIG    1        0.643   3.273   0.011  0.00  0.00    +0.110 A 
ENDBRANCH  17  18
ENDBRANCH   3  17
TORSDOF 4
