REMARK  Name = ZINCqH0000005fJv.0
REMARK                            x       y       z     vdW  Elec       q    Type
REMARK                         _______ _______ _______ _____ _____    ______ ____
ROOT
ATOM      1  C   LIG    1       -5.007   1.161   0.845  0.00  0.00    +0.280 C 
ATOM      2  N   LIG    1       -4.387   2.250   1.604  0.00  0.00    -0.620 N 
ATOM      3  C   LIG    1       -3.056   2.250   1.818  0.00  0.00    +0.530 C 
ATOM      4  O   LIG    1       -2.555   3.104   2.518  0.00  0.00    -0.510 OA
ENDROOT
BRANCH   3   5
ATOM      5  C   LIG    1       -2.192   1.190   1.186  0.00  0.00    +0.120 C 
ATOM      6  C   LIG    1       -1.777   1.611  -0.240  0.00  0.00    +0.050 C 
ATOM      7  C   LIG    1       -0.327   1.112  -0.400  0.00  0.00    +0.030 C 
ATOM      8  C   LIG    1        0.013   0.430   0.943  0.00  0.00    +0.170 C 
ATOM      9  N   LIG    1       -0.907   1.055   1.927  0.00  0.00    -0.480 NA
BRANCH   9  10
ATOM     10  C   LIG    1       -1.067   0.204   3.113  0.00  0.00    +0.220 C 
BRANCH  10  11
ATOM     11  C   LIG    1        0.217   0.196   3.902  0.00  0.00    -0.090 A 
ATOM     12  C   LIG    1        1.183  -0.757   3.640  0.00  0.00    +0.050 A 
ATOM     13  C   LIG    1        2.364  -0.762   4.359  0.00  0.00    -0.020 A 
ATOM     14  C   LIG    1        2.573   0.182   5.351  0.00  0.00    +0.100 A 
ATOM     15  C   LIG    1        1.602   1.133   5.616  0.00  0.00    -0.010 A 
ATOM     16  F   LIG    1        3.724   0.174   6.058  0.00  0.00    -0.140 F 
ATOM     17  C   LIG    1        0.425   1.139   4.892  0.00  0.00    +0.070 A 
ENDBRANCH  10  11
ENDBRANCH   9  10
ENDBRANCH   3   5
BRANCH   2  18
ATOM     18  C   LIG    1       -5.213   3.339   2.130  0.00  0.00    +0.350 C 
BRANCH  18  19
ATOM     19  C   LIG    1       -5.303   4.441   1.107  0.00  0.00    -0.050 A 
ATOM     20  C   LIG    1       -4.373   5.463   1.109  0.00  0.00    +0.010 A 
ATOM     21  C   LIG    1       -4.451   6.474   0.165  0.00  0.00    +0.130 A 
ATOM     22  C   LIG    1       -5.468   6.466  -0.774  0.00  0.00    -0.040 A 
ATOM     23  C   LIG    1       -6.403   5.445  -0.771  0.00  0.00    +0.130 A 
ATOM     24  F   LIG    1       -7.396   5.436  -1.687  0.00  0.00    -0.130 F 
ATOM     25  F   LIG    1       -3.538   7.470   0.164  0.00  0.00    -0.130 F 
ATOM     26  C   LIG    1       -6.320   4.433   0.170  0.00  0.00    -0.010 A 
ENDBRANCH  18  19
ENDBRANCH   2  18
TORSDOF 5
