REMARK  Name = ZINCpe000000XSJp.0
REMARK                            x       y       z     vdW  Elec       q    Type
REMARK                         _______ _______ _______ _____ _____    ______ ____
ROOT
ATOM      1  N   LIG    1       -1.914   2.547  -8.308  0.00  0.00    -0.490 N 
ATOM      2  C   LIG    1       -0.548   2.011  -8.389  0.00  0.00    +0.210 C 
ATOM      3  C   LIG    1       -0.339   0.986  -7.272  0.00  0.00    +0.200 C 
ATOM      4  N   LIG    1       -0.573   1.628  -5.971  0.00  0.00    -0.520 NA
ATOM      5  C   LIG    1       -1.939   2.165  -5.890  0.00  0.00    +0.190 C 
ATOM      6  C   LIG    1       -2.148   3.189  -7.007  0.00  0.00    +0.200 C 
ENDROOT
BRANCH   1  12
ATOM      7  C   LIG    1       -4.995   5.602 -10.616  0.00  0.00    +0.090 C 
ATOM      8  C   LIG    1       -3.651   4.930 -10.501  0.00  0.00    -0.060 A 
ATOM      9  C   LIG    1       -2.666   5.193 -11.434  0.00  0.00    -0.030 A 
ATOM     10  C   LIG    1       -1.431   4.578 -11.332  0.00  0.00    +0.030 A 
ATOM     11  C   LIG    1       -1.177   3.704 -10.294  0.00  0.00    -0.050 A 
ATOM     12  C   LIG    1       -2.166   3.434  -9.357  0.00  0.00    +0.110 A 
ATOM     13  C   LIG    1       -3.405   4.053  -9.462  0.00  0.00    -0.020 A 
ENDBRANCH   1  12
BRANCH   4  14
ATOM     14  C   LIG    1       -0.308   0.695  -4.868  0.00  0.00    +0.180 C 
ATOM     15  C   LIG    1       -1.002  -0.639  -5.150  0.00  0.00    +0.030 C 
BRANCH  14  16
ATOM     16  C   LIG    1        1.178   0.472  -4.745  0.00  0.00    +0.520 C 
ATOM     17  N   LIG    1        1.684  -0.098  -3.633  0.00  0.00    -0.720 N 
ATOM     18  H   LIG    1        1.092  -0.365  -2.913  0.00  0.00    +0.410 HD
ATOM     19  O   LIG    1        1.918   0.805  -5.646  0.00  0.00    -0.510 OA
BRANCH  17  20
ATOM     20  C   LIG    1        3.128  -0.315  -3.514  0.00  0.00    +0.260 C 
ATOM     21  C   LIG    1        3.802   0.934  -2.919  0.00  0.00    +0.060 C 
ATOM     22  C   LIG    1        5.236   0.565  -2.491  0.00  0.00    -0.300 C 
ATOM     23  S   LIG    1        5.172  -1.227  -2.098  0.00  0.00    +2.390 S 
ATOM     24  O   LIG    1        5.991  -1.940  -3.014  0.00  0.00    -0.930 OA
ATOM     25  O   LIG    1        5.344  -1.412  -0.699  0.00  0.00    -0.930 OA
ATOM     26  C   LIG    1        3.410  -1.482  -2.532  0.00  0.00    -0.320 C 
ENDBRANCH  17  20
ENDBRANCH  14  16
ENDBRANCH   4  14
TORSDOF 4
