REMARK  Name = ZINCrD0000070Wud.0
REMARK                            x       y       z     vdW  Elec       q    Type
REMARK                         _______ _______ _______ _____ _____    ______ ____
ROOT
ATOM      1  C   LIG    1       -6.598   4.344   2.348  0.00  0.00    +0.420 C 
ATOM      2  O   LIG    1       -7.415   3.840   3.088  0.00  0.00    -0.430 OA
ENDROOT
BRANCH   1   6
ATOM      3  C   LIG    1       -3.537   1.963   0.630  0.00  0.00    -0.050 A 
ATOM      4  C   LIG    1       -3.597   3.316   0.346  0.00  0.00    +0.000 A 
ATOM      5  C   LIG    1       -4.592   4.096   0.897  0.00  0.00    +0.080 A 
ATOM      6  C   LIG    1       -5.536   3.518   1.752  0.00  0.00    -0.170 A 
ATOM      7  C   LIG    1       -5.465   2.151   2.038  0.00  0.00    +0.090 A 
ATOM      8  C   LIG    1       -4.467   1.383   1.476  0.00  0.00    +0.020 A 
BRANCH   3   9
ATOM      9  C   LIG    1       -2.449   1.117   0.020  0.00  0.00    +0.280 C 
ATOM     10  C   LIG    1       -2.830   0.756  -1.417  0.00  0.00    +0.040 C 
BRANCH   9  13
ATOM     11  C   LIG    1        1.280   1.980   0.001  0.00  0.00    +0.090 C 
ATOM     12  C   LIG    1       -0.014   1.209   0.009  0.00  0.00    +0.510 C 
ATOM     13  N   LIG    1       -1.191   1.867   0.018  0.00  0.00    -0.730 N 
ATOM     14  H   LIG    1       -1.204   2.837   0.023  0.00  0.00    +0.400 HD
ATOM     15  O   LIG    1        0.002  -0.004   0.002  0.00  0.00    -0.540 OA
ENDBRANCH   9  13
ENDBRANCH   3   9
ENDBRANCH   1   6
BRANCH   1  16
ATOM     16  C   LIG    1       -6.671   5.817   2.037  0.00  0.00    +0.090 C 
BRANCH  16  17
ATOM     17  S   LIG    1       -8.075   6.550   2.913  0.00  0.00    +0.140 S 
BRANCH  17  18
ATOM     18  C   LIG    1       -7.925   8.224   2.385  0.00  0.00    +0.130 A 
ATOM     19  N   LIG    1       -7.010   8.705   1.576  0.00  0.00    -0.290 NA
ATOM     20  N   LIG    1       -7.205   9.965   1.409  0.00  0.00    -0.260 NA
ATOM     21  C   LIG    1       -8.251  10.340   2.104  0.00  0.00    +0.220 A 
ATOM     22  O   LIG    1       -8.732   9.245   2.733  0.00  0.00    -0.200 OA
BRANCH  21  23
ATOM     23  C   LIG    1       -8.805  11.707   2.182  0.00  0.00    -0.080 A 
ATOM     24  C   LIG    1       -8.207  12.759   1.477  0.00  0.00    +0.130 A 
ATOM     25  C   LIG    1       -8.769  14.020   1.579  0.00  0.00    -0.020 A 
ATOM     26  C   LIG    1       -9.886  14.201   2.375  0.00  0.00    +0.290 A 
ATOM     27  N   LIG    1      -10.425  13.192   3.032  0.00  0.00    -0.480 NA
ATOM     28  C   LIG    1       -9.931  11.974   2.963  0.00  0.00    +0.310 A 
ENDBRANCH  21  23
ENDBRANCH  17  18
ENDBRANCH  16  17
ENDBRANCH   1  16
TORSDOF 7
