REMARK  Name = ZINCpk00000y6uoQ.0
REMARK                            x       y       z     vdW  Elec       q    Type
REMARK                         _______ _______ _______ _____ _____    ______ ____
ROOT
ATOM      1  C   LIG    1       -5.133   7.446   1.107  0.00  0.00    +0.300 C 
ATOM      2  C   LIG    1       -3.838   7.062   0.391  0.00  0.00    +0.270 C 
ATOM      3  C   LIG    1       -3.844   7.693  -1.007  0.00  0.00    +0.030 C 
ATOM      4  C   LIG    1       -3.747   9.212  -0.853  0.00  0.00    +0.090 C 
ATOM      5  C   LIG    1       -4.752   9.689   0.156  0.00  0.00    +0.520 C 
ATOM      6  O   LIG    1       -5.037  10.868   0.169  0.00  0.00    -0.540 OA
ATOM      7  N   LIG    1       -5.346   8.886   1.039  0.00  0.00    -0.600 N 
ATOM      8  C   LIG    1       -6.271   9.489   2.002  0.00  0.00    +0.300 C 
ENDROOT
BRANCH   1  14
ATOM      9  C   LIG    1       -6.205   4.807   2.330  0.00  0.00    +0.350 C 
ATOM     10  N   LIG    1       -5.519   5.869   3.070  0.00  0.00    -0.360 N 
ATOM     11  N   LIG    1       -5.237   5.867   4.442  0.00  0.00    -0.280 NA
ATOM     12  C   LIG    1       -4.618   6.982   4.733  0.00  0.00    +0.240 A 
ATOM     13  C   LIG    1       -4.482   7.727   3.557  0.00  0.00    -0.090 A 
ATOM     14  C   LIG    1       -5.049   7.022   2.550  0.00  0.00    +0.060 A 
ENDBRANCH   1  14
BRANCH   2  15
ATOM     15  N   LIG    1       -3.756   5.604   0.271  0.00  0.00    -0.740 N 
ATOM     16  H   LIG    1       -4.566   5.071   0.276  0.00  0.00    +0.390 HD
ATOM     17  C   LIG    1       -2.555   5.004   0.155  0.00  0.00    +0.700 C 
ATOM     18  N   LIG    1       -2.479   3.663   0.045  0.00  0.00    -0.670 N 
ATOM     19  H   LIG    1       -3.290   3.135  -0.024  0.00  0.00    +0.410 HD
ATOM     20  O   LIG    1       -1.539   5.673   0.149  0.00  0.00    -0.510 OA
BRANCH  18  21
ATOM     21  C   LIG    1       -1.234   3.033   0.032  0.00  0.00    +0.370 A 
ATOM     22  C   LIG    1       -1.165   1.645   0.025  0.00  0.00    -0.030 A 
ATOM     23  C   LIG    1        0.075   1.032   0.012  0.00  0.00    +0.070 A 
ATOM     24  C   LIG    1        1.210   1.834   0.006  0.00  0.00    +0.020 A 
ATOM     25  C   LIG    1        1.067   3.210   0.013  0.00  0.00    +0.280 A 
ATOM     26  F   LIG    1        2.441   1.276  -0.007  0.00  0.00    -0.130 F 
ATOM     27  N   LIG    1       -0.131   3.764   0.031  0.00  0.00    -0.450 NA
ENDBRANCH  18  21
ENDBRANCH   2  15
TORSDOF 3
