REMARK  Name = ZINCvU00000005Qx.0
REMARK                            x       y       z     vdW  Elec       q    Type
REMARK                         _______ _______ _______ _____ _____    ______ ____
ROOT
ATOM      1  C   LIG    1       -4.844   6.434   0.305  0.00  0.00    +0.120 C 
ATOM      2  C   LIG    1       -4.556   4.955   0.252  0.00  0.00    +0.000 A 
ATOM      3  C   LIG    1       -3.337   4.404   0.139  0.00  0.00    +0.060 A 
ATOM      4  C   LIG    1       -3.539   2.947   0.126  0.00  0.00    -0.210 A 
ATOM      5  C   LIG    1       -4.909   2.754   0.230  0.00  0.00    +0.100 A 
ATOM      6  C   LIG    1       -5.616   1.423   0.254  0.00  0.00    +0.150 C 
ATOM      7  N   LIG    1       -5.497   3.963   0.310  0.00  0.00    -0.390 N 
ENDROOT
BRANCH   4   8
ATOM      8  C   LIG    1       -2.542   1.948   0.023  0.00  0.00    +0.290 C 
ATOM      9  C   LIG    1       -1.416   2.171  -0.755  0.00  0.00    -0.280 C 
ATOM     10  C   LIG    1       -1.159   3.304  -1.656  0.00  0.00    +0.530 C 
ATOM     11  N   LIG    1        0.057   3.083  -2.195  0.00  0.00    -0.410 N 
ATOM     12  N   LIG    1        0.592   1.894  -1.699  0.00  0.00    -0.250 NA
ATOM     13  O   LIG    1       -1.897   4.250  -1.874  0.00  0.00    -0.480 OA
ATOM     14  C   LIG    1       -0.217   1.326  -0.858  0.00  0.00    +0.140 C 
ATOM     15  C   LIG    1        0.025   0.031  -0.126  0.00  0.00    +0.190 C 
BRANCH  11  16
ATOM     16  C   LIG    1        0.690   3.923  -3.119  0.00  0.00    +0.180 A 
ATOM     17  C   LIG    1        0.060   5.084  -3.550  0.00  0.00    +0.000 A 
ATOM     18  C   LIG    1        0.690   5.913  -4.457  0.00  0.00    +0.040 A 
ATOM     19  C   LIG    1        1.941   5.585  -4.944  0.00  0.00    -0.020 A 
ATOM     20  C   LIG    1        2.569   4.427  -4.522  0.00  0.00    +0.030 A 
ATOM     21  C   LIG    1        1.947   3.596  -3.611  0.00  0.00    -0.010 A 
ENDBRANCH  11  16
ENDBRANCH   4   8
BRANCH   7  22
ATOM     22  C   LIG    1       -6.877   4.176   0.429  0.00  0.00    +0.110 A 
ATOM     23  C   LIG    1       -7.729   3.802  -0.601  0.00  0.00    +0.060 A 
ATOM     24  C   LIG    1       -9.089   4.012  -0.481  0.00  0.00    +0.050 A 
ATOM     25  C   LIG    1       -9.601   4.594   0.664  0.00  0.00    +0.090 A 
ATOM     26  C   LIG    1       -8.755   4.968   1.692  0.00  0.00    -0.170 A 
ATOM     27  C   LIG    1       -7.395   4.755   1.579  0.00  0.00    +0.080 A 
BRANCH  26  28
ATOM     28  C   LIG    1       -9.317   5.601   2.938  0.00  0.00    +0.510 C 
ATOM     29  F   LIG    1       -8.765   6.876   3.103  0.00  0.00    -0.170 F 
ATOM     30  F   LIG    1       -9.001   4.810   4.047  0.00  0.00    -0.170 F 
ATOM     31  F   LIG    1      -10.707   5.707   2.821  0.00  0.00    -0.170 F 
ENDBRANCH  26  28
ENDBRANCH   7  22
TORSDOF 4
