REMARK  Name = ZINCqH0000034t5H.0
REMARK                            x       y       z     vdW  Elec       q    Type
REMARK                         _______ _______ _______ _____ _____    ______ ____
ROOT
ATOM      1  C   LIG    1       -1.278  -0.703   0.571  0.00  0.00    +0.300 C 
ATOM      2  N   LIG    1       -0.032  -0.016   0.221  0.00  0.00    -0.590 N 
ATOM      3  C   LIG    1       -0.063   1.269  -0.185  0.00  0.00    +0.560 C 
ATOM      4  O   LIG    1        0.976   1.870  -0.378  0.00  0.00    -0.500 OA
ENDROOT
BRANCH   3   5
ATOM      5  C   LIG    1       -1.362   1.947  -0.401  0.00  0.00    +0.110 A 
ATOM      6  N   LIG    1       -2.489   1.251  -0.304  0.00  0.00    -0.430 NA
ATOM      7  C   LIG    1       -3.664   1.807  -0.486  0.00  0.00    +0.330 A 
ATOM      8  C   LIG    1       -3.772   3.167  -0.794  0.00  0.00    -0.040 A 
ATOM      9  C   LIG    1       -2.607   3.933  -0.905  0.00  0.00    +0.140 A 
ATOM     10  C   LIG    1       -1.387   3.309  -0.700  0.00  0.00    -0.040 A 
ATOM     11 CL   LIG    1        0.092   4.210  -0.818  0.00  0.00    +0.000 Cl
BRANCH   8  12
ATOM     12  C   LIG    1       -5.057   3.767  -0.992  0.00  0.00    +0.250 C 
ATOM     13  N   LIG    1       -6.076   4.243  -1.150  0.00  0.00    -0.380 NA
ENDBRANCH   8  12
ENDBRANCH   3   5
BRANCH   2  14
ATOM     14  C   LIG    1        1.246  -0.725   0.310  0.00  0.00    +0.250 C 
ATOM     15  C   LIG    1        1.219  -1.950  -0.610  0.00  0.00    +0.000 C 
ATOM     16  C   LIG    1        2.528  -2.728  -0.450  0.00  0.00    +0.230 C 
ATOM     17  O   LIG    1        2.694  -3.102   0.919  0.00  0.00    -0.370 OA
ATOM     18  C   LIG    1        2.773  -1.997   1.821  0.00  0.00    +0.210 C 
ATOM     19  C   LIG    1        1.475  -1.189   1.752  0.00  0.00    +0.010 C 
BRANCH  18  20
ATOM     20  C   LIG    1        2.975  -2.507   3.224  0.00  0.00    -0.100 A 
ATOM     21  C   LIG    1        2.371  -3.684   3.625  0.00  0.00    +0.080 A 
ATOM     22  C   LIG    1        2.559  -4.155   4.911  0.00  0.00    -0.020 A 
ATOM     23  C   LIG    1        3.344  -3.442   5.801  0.00  0.00    +0.100 A 
ATOM     24  C   LIG    1        3.944  -2.260   5.400  0.00  0.00    -0.010 A 
ATOM     25  F   LIG    1        3.525  -3.899   7.059  0.00  0.00    -0.140 F 
ATOM     26  C   LIG    1        3.759  -1.794   4.112  0.00  0.00    +0.050 A 
ENDBRANCH  18  20
ENDBRANCH   2  14
TORSDOF 4
