REMARK  Name = ZINCpk00000KfKLz.0
REMARK                            x       y       z     vdW  Elec       q    Type
REMARK                         _______ _______ _______ _____ _____    ______ ____
ROOT
ATOM      1  N   LIG    1       -0.018   1.465   0.010  0.00  0.00    -0.530 NA
ATOM      2  C   LIG    1       -0.799   1.987  -1.120  0.00  0.00    +0.180 C 
ATOM      3  C   LIG    1       -0.862   3.514  -1.031  0.00  0.00    +0.170 C 
ATOM      4  N   LIG    1        0.503   4.059  -1.041  0.00  0.00    -0.530 NA
ATOM      5  C   LIG    1        1.284   3.537   0.089  0.00  0.00    +0.200 C 
ATOM      6  C   LIG    1        1.347   2.010   0.000  0.00  0.00    +0.190 C 
ENDROOT
BRANCH   1   7
ATOM      7  C   LIG    1        0.002  -0.004   0.002  0.00  0.00    +0.160 C 
BRANCH   7   8
ATOM      8  C   LIG    1       -1.409  -0.535   0.263  0.00  0.00    +0.250 C 
BRANCH   8   9
ATOM      9  C   LIG    1       -1.389  -2.042   0.255  0.00  0.00    -0.120 A 
ATOM     10  C   LIG    1       -1.053  -2.735   1.403  0.00  0.00    +0.010 A 
ATOM     11  C   LIG    1       -1.038  -4.117   1.397  0.00  0.00    +0.000 A 
ATOM     12  C   LIG    1       -1.351  -4.806   0.240  0.00  0.00    +0.000 A 
ATOM     13  C   LIG    1       -1.681  -4.113  -0.910  0.00  0.00    +0.000 A 
ATOM     14  C   LIG    1       -1.700  -2.731  -0.902  0.00  0.00    +0.010 A 
ENDBRANCH   8   9
BRANCH   8  15
ATOM     15  O   LIG    1       -1.864  -0.071   1.536  0.00  0.00    -0.540 OA
ATOM     16  H   LIG    1       -1.311  -0.353   2.278  0.00  0.00    +0.370 HD
ENDBRANCH   8  15
ENDBRANCH   7   8
ENDBRANCH   1   7
BRANCH   4  17
ATOM     17  C   LIG    1        0.483   5.528  -1.033  0.00  0.00    +0.310 C 
BRANCH  17  18
ATOM     18  C   LIG    1       -0.110   6.029  -2.324  0.00  0.00    +0.180 A 
ATOM     19  N   LIG    1        0.544   6.309  -3.423  0.00  0.00    -0.280 NA
ATOM     20  N   LIG    1       -0.280   6.708  -4.330  0.00  0.00    -0.290 NA
ATOM     21  C   LIG    1       -1.486   6.709  -3.849  0.00  0.00    +0.180 A 
ATOM     22  C   LIG    1       -2.771   7.100  -4.536  0.00  0.00    +0.160 C 
ATOM     23  C   LIG    1       -3.941   6.558  -3.704  0.00  0.00    +0.030 C 
ATOM     24  C   LIG    1       -3.734   6.933  -2.234  0.00  0.00    +0.030 C 
ATOM     25  C   LIG    1       -2.554   6.138  -1.662  0.00  0.00    +0.280 C 
ATOM     26  N   LIG    1       -1.411   6.280  -2.564  0.00  0.00    -0.470 N 
ENDBRANCH  17  18
ENDBRANCH   4  17
TORSDOF 6
