REMARK  Name = ZINCpk000005FkLZ.0
REMARK                            x       y       z     vdW  Elec       q    Type
REMARK                         _______ _______ _______ _____ _____    ______ ____
ROOT
ATOM      1  C   LIG    1        1.299  -2.342  -1.579  0.00  0.00    +0.040 C 
ATOM      2  C   LIG    1        0.285  -2.278  -2.723  0.00  0.00    +0.010 C 
ATOM      3  C   LIG    1       -0.705  -1.110  -2.511  0.00  0.00    +0.270 C 
ATOM      4  N   LIG    1        0.045   0.070  -2.999  0.00  0.00    -0.620 N 
ATOM      5  C   LIG    1        0.781  -0.384  -4.194  0.00  0.00    +0.260 C 
ATOM      6  C   LIG    1        0.059   1.304  -2.458  0.00  0.00    +0.520 C 
ATOM      7  O   LIG    1        0.728   2.180  -2.962  0.00  0.00    -0.520 OA
ATOM      8  C   LIG    1        0.981  -1.904  -4.052  0.00  0.00    -0.010 C 
ENDROOT
BRANCH   6   9
ATOM      9  C   LIG    1       -0.759   1.596  -1.226  0.00  0.00    +0.230 C 
ATOM     10  C   LIG    1       -0.013   1.086   0.008  0.00  0.00    +0.040 C 
ATOM     11  C   LIG    1       -0.737   1.584   1.265  0.00  0.00    +0.050 C 
ATOM     12  C   LIG    1       -0.587   3.105   1.339  0.00  0.00    +0.070 C 
ATOM     13  C   LIG    1       -0.935   3.720   0.014  0.00  0.00    +0.520 C 
ATOM     14  O   LIG    1       -1.182   4.907  -0.020  0.00  0.00    -0.550 OA
ATOM     15  N   LIG    1       -0.986   3.032  -1.127  0.00  0.00    -0.700 N 
ATOM     16  H   LIG    1       -1.187   3.517  -1.942  0.00  0.00    +0.400 HD
ENDBRANCH   6   9
BRANCH   8  17
ATOM     17  C   LIG    1        2.472  -2.240  -3.983  0.00  0.00    +0.290 C 
BRANCH  17  18
ATOM     18  N   LIG    1        3.103  -1.924  -5.267  0.00  0.00    -0.730 N 
ATOM     19  H   LIG    1        2.572  -1.561  -5.993  0.00  0.00    +0.400 HD
ATOM     20  C   LIG    1        4.422  -2.139  -5.441  0.00  0.00    +0.590 C 
ATOM     21  O   LIG    1        5.089  -2.595  -4.532  0.00  0.00    -0.520 OA
BRANCH  20  22
ATOM     22  C   LIG    1        5.056  -1.823  -6.731  0.00  0.00    -0.210 A 
ATOM     23  C   LIG    1        6.373  -1.975  -7.065  0.00  0.00    +0.100 A 
ATOM     24  O   LIG    1        6.536  -1.574  -8.329  0.00  0.00    -0.170 OA
ATOM     25  C   LIG    1        5.373  -1.150  -8.851  0.00  0.00    +0.210 A 
ATOM     26 CL   LIG    1        7.620  -2.589  -6.025  0.00  0.00    +0.060 Cl
ATOM     27  C   LIG    1        4.407  -1.270  -7.929  0.00  0.00    -0.020 A 
ENDBRANCH  20  22
ENDBRANCH  17  18
ENDBRANCH   8  17
TORSDOF 4
