REMARK  Name = ZINCrH000004omjp.0
REMARK                            x       y       z     vdW  Elec       q    Type
REMARK                         _______ _______ _______ _____ _____    ______ ____
ROOT
ATOM      1  N   LIG    1        3.515  -2.044  -0.629  0.00  0.00    -0.720 N 
ATOM      2  H   LIG    1        2.641  -2.464  -0.602  0.00  0.00    +0.400 HD
ATOM      3  C   LIG    1        4.551  -2.681  -1.210  0.00  0.00    +0.560 C 
ATOM      4  O   LIG    1        5.646  -2.155  -1.245  0.00  0.00    -0.520 OA
ENDROOT
BRANCH   3   5
ATOM      5  C   LIG    1        4.355  -4.020  -1.806  0.00  0.00    -0.100 A 
ATOM      6  C   LIG    1        3.100  -4.629  -1.762  0.00  0.00    +0.020 A 
ATOM      7  C   LIG    1        2.918  -5.877  -2.323  0.00  0.00    +0.050 A 
ATOM      8  C   LIG    1        3.979  -6.532  -2.920  0.00  0.00    +0.000 A 
ATOM      9  C   LIG    1        5.234  -5.937  -2.963  0.00  0.00    +0.180 A 
ATOM     10  C   LIG    1        5.425  -4.682  -2.408  0.00  0.00    +0.070 A 
BRANCH   9  11
ATOM     11  N   LIG    1        6.305  -6.605  -3.569  0.00  0.00    -0.570 N 
ATOM     12  C   LIG    1        6.240  -7.935  -4.195  0.00  0.00    +0.260 C 
ATOM     13  C   LIG    1        7.678  -8.177  -4.692  0.00  0.00    +0.260 C 
ATOM     14  O   LIG    1        8.395  -6.972  -4.299  0.00  0.00    -0.320 OA
ATOM     15  C   LIG    1        7.555  -6.135  -3.679  0.00  0.00    +0.640 C 
ATOM     16  O   LIG    1        7.895  -5.050  -3.251  0.00  0.00    -0.490 OA
ENDBRANCH   9  11
ENDBRANCH   3   5
BRANCH   1  18
ATOM     17  C   LIG    1        4.231  -0.866   1.391  0.00  0.00    +0.040 C 
ATOM     18  C   LIG    1        3.710  -0.717  -0.040  0.00  0.00    +0.300 C 
BRANCH  18  19
ATOM     19  C   LIG    1        2.396   0.022  -0.022  0.00  0.00    -0.110 A 
ATOM     20  C   LIG    1        1.208  -0.681  -0.014  0.00  0.00    +0.040 A 
ATOM     21  C   LIG    1        0.002  -0.004   0.002  0.00  0.00    -0.010 A 
ATOM     22  C   LIG    1       -0.017   1.378   0.010  0.00  0.00    +0.050 A 
ATOM     23  C   LIG    1        1.170   2.086   0.002  0.00  0.00    -0.040 A 
ATOM     24  C   LIG    1        2.380   1.409  -0.013  0.00  0.00    +0.120 A 
BRANCH  24  25
ATOM     25  O   LIG    1        3.548   2.104  -0.022  0.00  0.00    -0.320 OA
BRANCH  25  26
ATOM     26  C   LIG    1        3.456   3.530  -0.013  0.00  0.00    +0.590 C 
ATOM     27  F   LIG    1        2.779   3.946   1.139  0.00  0.00    -0.200 F 
ATOM     28  F   LIG    1        2.755   3.959  -1.145  0.00  0.00    -0.200 F 
ENDBRANCH  25  26
ENDBRANCH  24  25
ENDBRANCH  18  19
ENDBRANCH   1  18
TORSDOF 6
