REMARK  Name = ZINCqH0000007hOc.0
REMARK                            x       y       z     vdW  Elec       q    Type
REMARK                         _______ _______ _______ _____ _____    ______ ____
ROOT
ATOM      1  N   LIG    1        8.078   2.675  -3.658  0.00  0.00    -0.450 NA
ATOM      2  C   LIG    1        7.507   2.381  -2.514  0.00  0.00    +0.350 C 
ATOM      3  N   LIG    1        8.021   1.570  -1.538  0.00  0.00    -0.680 N 
ATOM      4  H   LIG    1        8.887   1.153  -1.663  0.00  0.00    +0.420 HD
ATOM      5  C   LIG    1        7.341   1.353  -0.424  0.00  0.00    +0.530 C 
ATOM      6  C   LIG    1        6.010   2.065  -0.362  0.00  0.00    +0.050 C 
ATOM      7  O   LIG    1        7.751   0.644   0.470  0.00  0.00    -0.480 OA
ATOM      8  S   LIG    1        5.928   2.965  -1.946  0.00  0.00    +0.050 S 
ENDROOT
BRANCH   1  12
ATOM      9  C   LIG    1       11.793   1.096  -4.586  0.00  0.00    +0.130 A 
ATOM     10  C   LIG    1       10.783   1.095  -5.538  0.00  0.00    +0.010 A 
ATOM     11  C   LIG    1        9.544   1.620  -5.233  0.00  0.00    +0.080 A 
ATOM     12  C   LIG    1        9.307   2.153  -3.965  0.00  0.00    +0.050 A 
ATOM     13  C   LIG    1       10.327   2.157  -3.012  0.00  0.00    -0.010 A 
ATOM     14  C   LIG    1       11.561   1.625  -3.324  0.00  0.00    -0.060 A 
BRANCH   9  16
ATOM     15  C   LIG    1       14.006   0.612  -3.865  0.00  0.00    +0.240 C 
ATOM     16  O   LIG    1       13.012   0.578  -4.891  0.00  0.00    -0.310 OA
ENDBRANCH   9  16
ENDBRANCH   1  12
BRANCH   6  17
ATOM     17  C   LIG    1        4.864   1.057  -0.255  0.00  0.00    +0.130 C 
BRANCH  17  18
ATOM     18  C   LIG    1        3.556   1.794  -0.124  0.00  0.00    +0.520 C 
ATOM     19  N   LIG    1        2.403   1.106  -0.015  0.00  0.00    -0.670 N 
ATOM     20  H   LIG    1        2.419   0.138   0.046  0.00  0.00    +0.420 HD
ATOM     21  O   LIG    1        3.542   3.007  -0.118  0.00  0.00    -0.510 OA
BRANCH  19  22
ATOM     22  C   LIG    1        1.181   1.788   0.008  0.00  0.00    +0.160 A 
ATOM     23  C   LIG    1        0.059   1.225  -0.586  0.00  0.00    +0.000 A 
ATOM     24  C   LIG    1       -1.145   1.903  -0.566  0.00  0.00    +0.070 A 
ATOM     25  C   LIG    1       -1.235   3.136   0.054  0.00  0.00    -0.100 A 
ATOM     26  C   LIG    1       -0.119   3.699   0.647  0.00  0.00    +0.070 A 
ATOM     27 BR   LIG    1       -2.886   4.058   0.085  0.00  0.00    -0.050 Br
ATOM     28  C   LIG    1        1.088   3.028   0.626  0.00  0.00    +0.040 A 
ENDBRANCH  19  22
ENDBRANCH  17  18
ENDBRANCH   6  17
TORSDOF 5
