REMARK  Name = ZINCqH0000007hOc.1
REMARK                            x       y       z     vdW  Elec       q    Type
REMARK                         _______ _______ _______ _____ _____    ______ ____
ROOT
ATOM      1  N   LIG    1        4.944   0.519   3.001  0.00  0.00    -0.450 NA
ATOM      2  C   LIG    1        4.225   0.772   1.935  0.00  0.00    +0.350 C 
ATOM      3  N   LIG    1        4.587   1.572   0.884  0.00  0.00    -0.680 N 
ATOM      4  H   LIG    1        5.451   2.013   0.889  0.00  0.00    +0.420 HD
ATOM      5  C   LIG    1        3.766   1.747  -0.137  0.00  0.00    +0.530 C 
ATOM      6  C   LIG    1        2.457   1.002  -0.013  0.00  0.00    +0.060 C 
ATOM      7  O   LIG    1        4.039   2.444  -1.090  0.00  0.00    -0.480 OA
ATOM      8  S   LIG    1        2.605   0.142   1.588  0.00  0.00    +0.050 S 
ENDROOT
BRANCH   1  12
ATOM      9  C   LIG    1        8.704   2.207   3.413  0.00  0.00    +0.130 A 
ATOM     10  C   LIG    1        7.825   2.207   4.487  0.00  0.00    +0.010 A 
ATOM     11  C   LIG    1        6.572   1.646   4.354  0.00  0.00    +0.080 A 
ATOM     12  C   LIG    1        6.189   1.078   3.138  0.00  0.00    +0.050 A 
ATOM     13  C   LIG    1        7.079   1.076   2.062  0.00  0.00    -0.010 A 
ATOM     14  C   LIG    1        8.328   1.643   2.203  0.00  0.00    -0.060 A 
BRANCH   9  16
ATOM     15  C   LIG    1       10.794   2.728   2.405  0.00  0.00    +0.240 C 
ATOM     16  O   LIG    1        9.939   2.761   3.549  0.00  0.00    -0.310 OA
ENDBRANCH   9  16
ENDBRANCH   1  12
BRANCH   6  17
ATOM     17  C   LIG    1        1.280   1.980   0.007  0.00  0.00    +0.130 C 
BRANCH  17  18
ATOM     18  C   LIG    1       -0.014   1.209   0.007  0.00  0.00    +0.520 C 
ATOM     19  N   LIG    1       -1.191   1.867   0.018  0.00  0.00    -0.670 N 
ATOM     20  H   LIG    1       -1.205   2.833   0.098  0.00  0.00    +0.420 HD
ATOM     21  O   LIG    1        0.002  -0.004  -0.008  0.00  0.00    -0.510 OA
BRANCH  19  22
ATOM     22  C   LIG    1       -2.391   1.155  -0.086  0.00  0.00    +0.160 A 
ATOM     23  C   LIG    1       -3.468   1.704  -0.769  0.00  0.00    +0.000 A 
ATOM     24  C   LIG    1       -4.650   0.997  -0.875  0.00  0.00    +0.070 A 
ATOM     25  C   LIG    1       -4.765  -0.252  -0.291  0.00  0.00    -0.100 A 
ATOM     26  C   LIG    1       -3.696  -0.799   0.395  0.00  0.00    +0.070 A 
ATOM     27 BR   LIG    1       -6.388  -1.213  -0.431  0.00  0.00    -0.050 Br
ATOM     28  C   LIG    1       -2.510  -0.099   0.499  0.00  0.00    +0.040 A 
ENDBRANCH  19  22
ENDBRANCH  17  18
ENDBRANCH   6  17
TORSDOF 5
