REMARK  Name = ZINCpe00000y5R7c.0
REMARK                            x       y       z     vdW  Elec       q    Type
REMARK                         _______ _______ _______ _____ _____    ______ ____
ROOT
ATOM      1  S   LIG    1        2.935   2.082  -2.252  0.00  0.00    +2.720 S 
ATOM      2  O   LIG    1        4.005   1.247  -2.673  0.00  0.00    -0.960 OA
ATOM      3  O   LIG    1        3.120   3.423  -1.818  0.00  0.00    -0.950 OA
ENDROOT
BRANCH   1   7
ATOM      4  C   LIG    1        0.923  -2.191  -0.345  0.00  0.00    +0.080 C 
ATOM      5  C   LIG    1        0.850  -0.740  -0.864  0.00  0.00    +0.110 C 
ATOM      6  C   LIG    1        2.275  -0.172  -0.858  0.00  0.00    +0.280 C 
ATOM      7  N   LIG    1        2.184   1.289  -1.012  0.00  0.00    -1.000 NA
ATOM      8  C   LIG    1        1.391   2.007  -0.000  0.00  0.00    +0.300 C 
ATOM      9  C   LIG    1       -0.017   1.406   0.010  0.00  0.00    +0.090 C 
ATOM     10  C   LIG    1       -0.864   2.014  -1.120  0.00  0.00    -0.010 C 
ATOM     11  C   LIG    1       -2.252   2.155  -0.435  0.00  0.00    +0.200 C 
ATOM     12  O   LIG    1       -1.913   2.595   0.897  0.00  0.00    -0.370 OA
ATOM     13  C   LIG    1       -0.731   1.886   1.297  0.00  0.00    +0.240 C 
ATOM     14  C   LIG    1        0.318  -0.781  -2.295  0.00  0.00    +0.010 C 
ATOM     15  O   LIG    1        0.002  -0.004   0.002  0.00  0.00    -0.360 OA
ENDBRANCH   1   7
BRANCH   1  16
ATOM     16  C   LIG    1        1.797   2.147  -3.595  0.00  0.00    -0.820 A 
ATOM     17  C   LIG    1        1.673   1.226  -4.580  0.00  0.00    +0.370 A 
ATOM     18  N   LIG    1        0.692   1.639  -5.409  0.00  0.00    -0.350 N 
ATOM     19  N   LIG    1        0.202   2.858  -4.923  0.00  0.00    -0.280 NA
ATOM     20  C   LIG    1        0.865   3.161  -3.836  0.00  0.00    +0.340 A 
BRANCH  18  21
ATOM     21  C   LIG    1        0.226   0.939  -6.608  0.00  0.00    +0.250 C 
ATOM     22  C   LIG    1        1.142   1.261  -7.814  0.00  0.00    +0.020 C 
ATOM     23  C   LIG    1        2.087   0.028  -7.836  0.00  0.00    +0.220 C 
ATOM     24  O   LIG    1        1.222  -1.067  -7.468  0.00  0.00    -0.360 OA
ATOM     25  C   LIG    1        0.355  -0.586  -6.427  0.00  0.00    +0.220 C 
ENDBRANCH  18  21
ENDBRANCH   1  16
TORSDOF 3
