REMARK  Name = ZINCtV000002OF8M.0
REMARK                            x       y       z     vdW  Elec       q    Type
REMARK                         _______ _______ _______ _____ _____    ______ ____
ROOT
ATOM      1  O   LIG    1        5.182   7.564  -0.004  0.00  0.00    -0.530 OA
ATOM      2  C   LIG    1        4.032   7.166   0.004  0.00  0.00    +0.600 C 
ATOM      3  N   LIG    1        3.014   8.049   0.018  0.00  0.00    -0.620 N 
ATOM      4  H   LIG    1        2.097   7.732   0.024  0.00  0.00    +0.420 HD
ENDROOT
BRANCH   2   5
ATOM      5  C   LIG    1        3.753   5.720  -0.002  0.00  0.00    +0.010 A 
ATOM      6  C   LIG    1        4.735   4.792  -0.016  0.00  0.00    -0.040 A 
ATOM      7  S   LIG    1        4.033   3.232  -0.010  0.00  0.00    +0.240 S 
ATOM      8  C   LIG    1        2.421   3.939   0.001  0.00  0.00    +0.060 A 
ATOM      9  N   LIG    1        2.519   5.234   0.007  0.00  0.00    -0.410 NA
BRANCH   8  10
ATOM     10  C   LIG    1        1.154   3.177   0.008  0.00  0.00    -0.010 A 
ATOM     11  C   LIG    1        1.175   1.781   0.000  0.00  0.00    -0.020 A 
ATOM     12  C   LIG    1       -0.013   1.076   0.008  0.00  0.00    +0.050 A 
ATOM     13  C   LIG    1       -1.221   1.750   0.017  0.00  0.00    +0.070 A 
ATOM     14  C   LIG    1       -1.249   3.132   0.031  0.00  0.00    +0.050 A 
ATOM     15 CL   LIG    1        2.690   0.933  -0.018  0.00  0.00    -0.020 Cl
ATOM     16  C   LIG    1       -0.069   3.850   0.023  0.00  0.00    +0.010 A 
ATOM     17 CL   LIG    1       -0.107   5.586   0.033  0.00  0.00    -0.020 Cl
ENDBRANCH   8  10
ENDBRANCH   2   5
BRANCH   3  18
ATOM     18  C   LIG    1        3.281   9.431   0.023  0.00  0.00    +0.010 A 
ATOM     19  C   LIG    1        4.510  10.008   0.015  0.00  0.00    +0.270 A 
ATOM     20  N   LIG    1        4.330  11.354   0.024  0.00  0.00    -0.390 N 
ATOM     21  N   LIG    1        2.952  11.605   0.038  0.00  0.00    -0.260 NA
ATOM     22  C   LIG    1        2.325  10.457   0.032  0.00  0.00    +0.110 A 
BRANCH  22  23
ATOM     23  C   LIG    1        0.829  10.269   0.036  0.00  0.00    +0.030 C 
ATOM     24  C   LIG    1       -0.040  11.514  -0.158  0.00  0.00    +0.050 C 
ATOM     25  C   LIG    1        0.048  10.849   1.218  0.00  0.00    +0.040 C 
ENDBRANCH  22  23
BRANCH  20  26
ATOM     26  C   LIG    1        5.391  12.365   0.020  0.00  0.00    +0.370 C 
BRANCH  26  27
ATOM     27  C   LIG    1        5.179  13.322  -1.154  0.00  0.00    +0.440 C 
ATOM     28  F   LIG    1        5.216  12.604  -2.354  0.00  0.00    -0.180 F 
ATOM     29  F   LIG    1        6.191  14.288  -1.158  0.00  0.00    -0.180 F 
ATOM     30  F   LIG    1        3.935  13.951  -1.025  0.00  0.00    -0.160 F 
ENDBRANCH  26  27
ENDBRANCH  20  26
ENDBRANCH   3  18
TORSDOF 6
