REMARK  Name = ZINCpe00000zranI.0
REMARK                            x       y       z     vdW  Elec       q    Type
REMARK                         _______ _______ _______ _____ _____    ______ ____
ROOT
ATOM      1  C   LIG    1       -1.298   2.057   0.005  0.00  0.00    +0.260 C 
ATOM      2  C   LIG    1       -1.123   3.465  -0.591  0.00  0.00    +0.050 C 
ATOM      3  C   LIG    1       -1.503   4.464   0.521  0.00  0.00    -0.010 C 
ATOM      4  C   LIG    1       -2.432   3.654   1.459  0.00  0.00    +0.020 C 
ATOM      5  C   LIG    1       -1.777   2.250   1.458  0.00  0.00    +0.150 C 
ENDROOT
BRANCH   1   8
ATOM      6  O   LIG    1       -1.037  -0.627   0.119  0.00  0.00    -0.500 OA
ATOM      7  C   LIG    1        0.002  -0.004   0.002  0.00  0.00    +0.590 C 
ATOM      8  N   LIG    1       -0.018   1.343  -0.011  0.00  0.00    -0.730 N 
ATOM      9  H   LIG    1        0.814   1.841  -0.034  0.00  0.00    +0.390 HD
BRANCH   7  10
ATOM     10  C   LIG    1        1.277  -0.720  -0.125  0.00  0.00    -0.080 A 
ATOM     11  C   LIG    1        1.453  -2.073  -0.243  0.00  0.00    +0.260 A 
ATOM     12  N   LIG    1        2.764  -2.309  -0.335  0.00  0.00    -0.480 NA
ATOM     13  C   LIG    1        3.417  -1.183  -0.281  0.00  0.00    +0.200 A 
ATOM     14  C   LIG    1        4.911  -0.966  -0.348  0.00  0.00    +0.370 C 
ATOM     15  O   LIG    1        5.141   0.428  -0.595  0.00  0.00    -0.370 OA
ATOM     16  C   LIG    1        4.419   1.302   0.278  0.00  0.00    +0.250 C 
ATOM     17  C   LIG    1        2.922   1.241  -0.055  0.00  0.00    +0.260 C 
ATOM     18  N   LIG    1        2.533  -0.168  -0.154  0.00  0.00    -0.440 N 
ENDBRANCH   7  10
ENDBRANCH   1   8
BRANCH   5  19
ATOM     19  O   LIG    1       -2.738   1.250   1.805  0.00  0.00    -0.550 OA
ATOM     20  H   LIG    1       -3.074   1.324   2.709  0.00  0.00    +0.380 HD
ENDBRANCH   5  19
BRANCH   3  21
ATOM     21  C   LIG    1       -2.251   5.662  -0.069  0.00  0.00    +0.330 C 
BRANCH  21  22
ATOM     22  N   LIG    1       -2.575   6.610   1.001  0.00  0.00    -0.360 N 
ATOM     23  C   LIG    1       -2.247   7.920   1.027  0.00  0.00    +0.250 A 
ATOM     24  C   LIG    1       -2.727   8.441   2.181  0.00  0.00    -0.190 A 
ATOM     25  C   LIG    1       -3.369   7.415   2.882  0.00  0.00    +0.250 A 
ATOM     26 CL   LIG    1       -2.574  10.091   2.698  0.00  0.00    -0.040 Cl
ATOM     27  N   LIG    1       -3.284   6.319   2.173  0.00  0.00    -0.270 NA
ENDBRANCH  21  22
ENDBRANCH   3  21
TORSDOF 5
