REMARK  Name = ZINCnE000008Jeek.1
REMARK                            x       y       z     vdW  Elec       q    Type
REMARK                         _______ _______ _______ _____ _____    ______ ____
ROOT
ATOM      1  C   LIG    1       -1.212  -0.897   0.008  0.00  0.00    +0.130 C 
ENDROOT
BRANCH   1   2
ATOM      2  C   LIG    1        0.002  -0.004   0.002  0.00  0.00    +0.160 A 
ATOM      3  N   LIG    1       -0.015   1.290   0.009  0.00  0.00    -0.330 NA
ATOM      4  N   LIG    1        1.310   1.744  -0.001  0.00  0.00    -0.390 NA
ATOM      5  C   LIG    1        2.107   0.655  -0.015  0.00  0.00    +0.390 A 
ATOM      6  S   LIG    1        3.820   0.653  -0.030  0.00  0.00    -0.780 S 
ATOM      7  N   LIG    1        1.308  -0.430  -0.013  0.00  0.00    -0.500 N 
BRANCH   7   8
ATOM      8  C   LIG    1        1.755  -1.825  -0.024  0.00  0.00    +0.230 C 
ATOM      9  C   LIG    1        2.676  -2.094   1.184  0.00  0.00    +0.020 C 
ATOM     10  C   LIG    1        3.751  -3.063   0.632  0.00  0.00    +0.000 C 
ATOM     11  C   LIG    1        3.993  -2.527  -0.800  0.00  0.00    +0.030 C 
ATOM     12  C   LIG    1        2.592  -2.100  -1.286  0.00  0.00    +0.010 C 
ENDBRANCH   7   8
ENDBRANCH   1   2
BRANCH   1  13
ATOM     13  C   LIG    1       -2.477  -0.038   0.025  0.00  0.00    +0.100 C 
BRANCH  13  17
ATOM     14  C   LIG    1       -5.921  -2.574   0.049  0.00  0.00    +0.090 A 
ATOM     15  C   LIG    1       -5.348  -2.167   1.243  0.00  0.00    -0.040 A 
ATOM     16  C   LIG    1       -4.235  -1.347   1.232  0.00  0.00    +0.020 A 
ATOM     17  C   LIG    1       -3.691  -0.932   0.032  0.00  0.00    -0.070 A 
ATOM     18  C   LIG    1       -4.261  -1.329  -1.164  0.00  0.00    -0.030 A 
ATOM     19  C   LIG    1       -5.373  -2.155  -1.160  0.00  0.00    +0.100 A 
BRANCH  14  21
ATOM     20  C   LIG    1       -7.523  -3.771   1.336  0.00  0.00    +0.230 C 
ATOM     21  O   LIG    1       -7.016  -3.381   0.059  0.00  0.00    -0.310 OA
ENDBRANCH  14  21
BRANCH  19  22
ATOM     22  O   LIG    1       -5.932  -2.552  -2.335  0.00  0.00    -0.310 OA
ATOM     23  C   LIG    1       -5.316  -2.083  -3.536  0.00  0.00    +0.250 C 
ENDBRANCH  19  22
ENDBRANCH  13  17
ENDBRANCH   1  13
TORSDOF 6
