REMARK  Name = ZINCrD000000fCl0.0
REMARK                            x       y       z     vdW  Elec       q    Type
REMARK                         _______ _______ _______ _____ _____    ______ ____
ROOT
ATOM      1  C   LIG    1       -2.503   1.006   0.019  0.00  0.00    +0.570 C 
ATOM      2  N   LIG    1       -2.490  -0.342   0.011  0.00  0.00    -0.730 N 
ATOM      3  H   LIG    1       -1.645  -0.818   0.004  0.00  0.00    +0.400 HD
ATOM      4  O   LIG    1       -3.562   1.603   0.027  0.00  0.00    -0.530 OA
ENDROOT
BRANCH   1  12
ATOM      5  C   LIG    1        3.909   2.238  -0.022  0.00  0.00    +0.120 C 
ATOM      6  C   LIG    1        3.537   3.698  -0.010  0.00  0.00    +0.520 C 
ATOM      7  N   LIG    1        2.239   4.062   0.004  0.00  0.00    -0.550 N 
ATOM      8  C   LIG    1        1.757   5.445   0.016  0.00  0.00    +0.280 C 
ATOM      9  C   LIG    1        0.223   5.338   0.030  0.00  0.00    +0.110 C 
ATOM     10  C   LIG    1       -0.052   3.850   0.024  0.00  0.00    -0.140 A 
ATOM     11  C   LIG    1       -1.241   3.154   0.031  0.00  0.00    +0.130 A 
ATOM     12  C   LIG    1       -1.232   1.757   0.017  0.00  0.00    -0.160 A 
ATOM     13  C   LIG    1       -0.013   1.076   0.008  0.00  0.00    +0.080 A 
ATOM     14  C   LIG    1        1.169   1.778   0.001  0.00  0.00    -0.020 A 
ATOM     15  C   LIG    1        1.162   3.177   0.009  0.00  0.00    +0.180 A 
ATOM     16  O   LIG    1        4.404   4.545  -0.013  0.00  0.00    -0.510 OA
ENDBRANCH   1  12
BRANCH   2  17
ATOM     17  C   LIG    1       -3.751  -1.087   0.013  0.00  0.00    +0.260 C 
BRANCH  17  18
ATOM     18  C   LIG    1       -3.456  -2.588   0.003  0.00  0.00    +0.010 C 
BRANCH  18  19
ATOM     19  C   LIG    1       -4.773  -3.366   0.004  0.00  0.00    +0.300 C 
BRANCH  19  20
ATOM     20  N   LIG    1       -4.491  -4.804  -0.005  0.00  0.00    -0.490 N 
ATOM     21  C   LIG    1       -4.446  -5.589  -1.125  0.00  0.00    +0.220 A 
ATOM     22  C   LIG    1       -4.160  -6.855  -0.786  0.00  0.00    -0.050 A 
ATOM     23  C   LIG    1       -4.018  -6.886   0.672  0.00  0.00    -0.110 A 
ATOM     24  C   LIG    1       -3.734  -7.891   1.598  0.00  0.00    +0.050 A 
ATOM     25  C   LIG    1       -3.671  -7.589   2.930  0.00  0.00    -0.030 A 
ATOM     26  C   LIG    1       -3.887  -6.290   3.368  0.00  0.00    +0.020 A 
ATOM     27  C   LIG    1       -4.168  -5.282   2.471  0.00  0.00    -0.010 A 
ATOM     28  C   LIG    1       -4.237  -5.568   1.112  0.00  0.00    +0.100 A 
ENDBRANCH  19  20
ENDBRANCH  18  19
ENDBRANCH  17  18
ENDBRANCH   2  17
TORSDOF 5
