REMARK  Name = ZINCrH000004jOqz.2
REMARK                            x       y       z     vdW  Elec       q    Type
REMARK                         _______ _______ _______ _____ _____    ______ ____
ROOT
ATOM      1  N   LIG    1       -1.531   3.963   0.037  0.00  0.00    -0.520 NA
ATOM      2  C   LIG    1       -0.832   3.539  -1.183  0.00  0.00    +0.170 C 
ATOM      3  C   LIG    1       -0.761   2.011  -1.228  0.00  0.00    +0.030 C 
ATOM      4  C   LIG    1       -0.018   1.503   0.010  0.00  0.00    +0.060 C 
ATOM      5  C   LIG    1       -0.738   1.998   1.268  0.00  0.00    +0.040 C 
ATOM      6  C   LIG    1       -0.810   3.526   1.240  0.00  0.00    +0.170 C 
ENDROOT
BRANCH   4   7
ATOM      7  C   LIG    1        0.002  -0.004   0.002  0.00  0.00    -0.150 A 
ATOM      8  C   LIG    1       -1.065  -0.818   0.014  0.00  0.00    +0.250 A 
ATOM      9  N   LIG    1       -0.655  -2.125  -0.003  0.00  0.00    -0.580 N 
ATOM     10  H   LIG    1       -1.247  -2.893  -0.002  0.00  0.00    +0.420 HD
ATOM     11  C   LIG    1        0.718  -2.187  -0.017  0.00  0.00    +0.290 A 
ATOM     12  N   LIG    1        1.581  -3.194  -0.030  0.00  0.00    -0.500 NA
ATOM     13  C   LIG    1        2.881  -2.990  -0.041  0.00  0.00    +0.300 A 
ATOM     14  C   LIG    1        3.415  -1.711  -0.039  0.00  0.00    -0.060 A 
ATOM     15  C   LIG    1        2.565  -0.620  -0.025  0.00  0.00    +0.100 A 
ATOM     16  C   LIG    1        1.190  -0.860  -0.014  0.00  0.00    -0.150 A 
ENDBRANCH   4   7
BRANCH   1  17
ATOM     17  C   LIG    1       -1.739   5.417   0.047  0.00  0.00    +0.200 C 
BRANCH  17  20
ATOM     18  C   LIG    1       -2.467   8.117   0.505  0.00  0.00    +0.280 C 
ATOM     19  N   LIG    1       -3.001   7.073   1.383  0.00  0.00    -0.620 N 
ATOM     20  C   LIG    1       -2.664   5.784   1.178  0.00  0.00    +0.510 C 
ATOM     21  O   LIG    1       -3.106   4.920   1.905  0.00  0.00    -0.510 OA
BRANCH  19  22
ATOM     22  C   LIG    1       -3.900   7.430   2.483  0.00  0.00    +0.290 C 
BRANCH  22  23
ATOM     23  C   LIG    1       -3.078   7.711   3.742  0.00  0.00    -0.030 C 
ATOM     24  C   LIG    1       -2.378   6.427   4.192  0.00  0.00    +0.030 C 
ATOM     25  C   LIG    1       -1.557   6.708   5.452  0.00  0.00    +0.000 C 
ATOM     26  C   LIG    1       -2.483   7.201   6.565  0.00  0.00    +0.000 C 
ATOM     27  C   LIG    1       -3.183   8.485   6.116  0.00  0.00    +0.000 C 
ATOM     28  C   LIG    1       -4.004   8.204   4.856  0.00  0.00    +0.010 C 
ENDBRANCH  22  23
ENDBRANCH  19  22
ENDBRANCH  17  20
ENDBRANCH   1  17
TORSDOF 5
