REMARK  Name = ZINCqH0000003HpA.0
REMARK                            x       y       z     vdW  Elec       q    Type
REMARK                         _______ _______ _______ _____ _____    ______ ____
ROOT
ATOM      1  C   LIG    1        6.090  -0.971  -2.671  0.00  0.00    +0.330 C 
ENDROOT
BRANCH   1  11
ATOM      2  C   LIG    1        7.116  -0.187  -4.818  0.00  0.00    +0.120 A 
ATOM      3  C   LIG    1        7.509  -0.412  -6.130  0.00  0.00    -0.030 A 
ATOM      4  C   LIG    1        7.300  -1.645  -6.709  0.00  0.00    -0.120 A 
ATOM      5  C   LIG    1        6.693  -2.671  -5.997  0.00  0.00    +0.070 A 
ATOM      6  O   LIG    1        6.571  -3.794  -6.759  0.00  0.00    -0.300 OA
ATOM      7  C   LIG    1        7.484  -3.715  -7.867  0.00  0.00    +0.200 C 
ATOM      8  C   LIG    1        8.833  -4.340  -7.503  0.00  0.00    +0.040 C 
ATOM      9  C   LIG    1        6.309  -2.442  -4.678  0.00  0.00    +0.060 A 
ATOM     10  C   LIG    1        7.628  -2.191  -8.085  0.00  0.00    +0.080 C 
ATOM     11  C   LIG    1        6.515  -1.209  -4.097  0.00  0.00    -0.110 A 
BRANCH   2  12
ATOM     12  O   LIG    1        7.320   1.028  -4.242  0.00  0.00    -0.310 OA
BRANCH  12  14
ATOM     13  C   LIG    1        8.089   3.319  -4.234  0.00  0.00    +0.070 C 
ATOM     14  C   LIG    1        7.945   2.030  -5.047  0.00  0.00    +0.170 C 
ENDBRANCH  12  14
ENDBRANCH   2  12
ENDBRANCH   1  11
BRANCH   1  15
ATOM     15  N   LIG    1        4.812  -0.255  -2.655  0.00  0.00    -0.720 N 
ATOM     16  H   LIG    1        4.381  -0.013  -3.490  0.00  0.00    +0.400 HD
ATOM     17  C   LIG    1        4.236   0.068  -1.481  0.00  0.00    +0.510 C 
ATOM     18  O   LIG    1        4.775  -0.234  -0.437  0.00  0.00    -0.540 OA
BRANCH  17  19
ATOM     19  C   LIG    1        2.921   0.805  -1.464  0.00  0.00    +0.060 C 
BRANCH  19  20
ATOM     20  C   LIG    1        2.490   1.046  -0.016  0.00  0.00    +0.100 C 
BRANCH  20  21
ATOM     21  C   LIG    1        1.175   1.783   0.000  0.00  0.00    -0.090 A 
ATOM     22  C   LIG    1       -0.013   1.076   0.008  0.00  0.00    +0.040 A 
ATOM     23  C   LIG    1       -1.219   1.750   0.017  0.00  0.00    -0.010 A 
ATOM     24  C   LIG    1       -1.237   3.135   0.030  0.00  0.00    +0.090 A 
ATOM     25  C   LIG    1       -0.047   3.842   0.022  0.00  0.00    -0.010 A 
ATOM     26  F   LIG    1       -2.416   3.795   0.045  0.00  0.00    -0.140 F 
ATOM     27  C   LIG    1        1.158   3.165   0.007  0.00  0.00    +0.040 A 
ENDBRANCH  20  21
ENDBRANCH  19  20
ENDBRANCH  17  19
ENDBRANCH   1  15
TORSDOF 7
