REMARK  Name = ZINCrH000004rnFx.0
REMARK                            x       y       z     vdW  Elec       q    Type
REMARK                         _______ _______ _______ _____ _____    ______ ____
ROOT
ATOM      1  N   LIG    1        0.004  -0.007   0.002  0.00  0.00    -0.560 N 
ATOM      2  C   LIG    1        1.255  -0.480  -0.020  0.00  0.00    +0.710 C 
ATOM      3  N   LIG    1        2.175   0.501  -0.021  0.00  0.00    -0.710 N 
ATOM      4  H   LIG    1        3.139   0.392  -0.036  0.00  0.00    +0.440 HD
ATOM      5  C   LIG    1        1.434   1.774   0.003  0.00  0.00    +0.170 C 
ATOM      6  C   LIG    1        1.772   2.570   1.266  0.00  0.00    +0.110 C 
ATOM      7  O   LIG    1        1.529  -1.664  -0.037  0.00  0.00    -0.530 OA
ATOM      8  C   LIG    1       -0.018   1.341   0.018  0.00  0.00    +0.540 C 
ATOM      9  O   LIG    1       -0.996   2.057   0.034  0.00  0.00    -0.450 OA
ENDROOT
BRANCH   5  10
ATOM     10  C   LIG    1        1.733   2.585  -1.232  0.00  0.00    -0.090 A 
ATOM     11  C   LIG    1        0.738   3.346  -1.816  0.00  0.00    +0.060 A 
ATOM     12  C   LIG    1        1.013   4.095  -2.945  0.00  0.00    +0.040 A 
ATOM     13  C   LIG    1        2.281   4.073  -3.497  0.00  0.00    -0.020 A 
ATOM     14  C   LIG    1        3.275   3.307  -2.915  0.00  0.00    +0.030 A 
ATOM     15 CL   LIG    1        2.626   5.008  -4.919  0.00  0.00    -0.060 Cl
ATOM     16  C   LIG    1        3.001   2.563  -1.783  0.00  0.00    +0.050 A 
ENDBRANCH   5  10
BRANCH   1  17
ATOM     17  C   LIG    1       -1.195  -0.849   0.010  0.00  0.00    +0.370 C 
BRANCH  17  20
ATOM     18  N   LIG    1       -2.713  -1.882  -1.648  0.00  0.00    -0.670 N 
ATOM     19  H   LIG    1       -3.179  -2.307  -0.911  0.00  0.00    +0.420 HD
ATOM     20  C   LIG    1       -1.626  -1.122  -1.408  0.00  0.00    +0.500 C 
ATOM     21  O   LIG    1       -0.994  -0.659  -2.334  0.00  0.00    -0.500 OA
BRANCH  18  26
ATOM     22  C   LIG    1       -4.563  -2.590  -6.965  0.00  0.00    +0.100 C 
ATOM     23  C   LIG    1       -4.072  -2.401  -5.552  0.00  0.00    -0.090 A 
ATOM     24  C   LIG    1       -2.716  -2.302  -5.301  0.00  0.00    +0.050 A 
ATOM     25  C   LIG    1       -2.263  -2.130  -4.007  0.00  0.00    +0.030 A 
ATOM     26  C   LIG    1       -3.170  -2.056  -2.959  0.00  0.00    +0.150 A 
ATOM     27  C   LIG    1       -4.531  -2.160  -3.213  0.00  0.00    +0.010 A 
ATOM     28  C   LIG    1       -4.979  -2.328  -4.510  0.00  0.00    -0.020 A 
ATOM     29 CL   LIG    1       -6.681  -2.453  -4.830  0.00  0.00    -0.060 Cl
ENDBRANCH  18  26
ENDBRANCH  17  20
ENDBRANCH   1  17
TORSDOF 4
