REMARK  Name = ZINCrH000004omtW.0
REMARK                            x       y       z     vdW  Elec       q    Type
REMARK                         _______ _______ _______ _____ _____    ______ ____
ROOT
ATOM      1  N   LIG    1       -1.118   1.863   0.730  0.00  0.00    -0.720 N 
ATOM      2  H   LIG    1       -1.130   2.833   0.745  0.00  0.00    +0.400 HD
ATOM      3  C   LIG    1        0.036   1.207   0.496  0.00  0.00    +0.560 C 
ATOM      4  O   LIG    1        0.051  -0.009   0.477  0.00  0.00    -0.500 OA
ENDROOT
BRANCH   3   5
ATOM      5  C   LIG    1        1.278   1.964   0.256  0.00  0.00    -0.130 A 
ATOM      6  C   LIG    1        1.265   3.361   0.271  0.00  0.00    +0.070 A 
ATOM      7  C   LIG    1        2.430   4.062   0.051  0.00  0.00    +0.000 A 
ATOM      8  C   LIG    1        3.617   3.389  -0.196  0.00  0.00    +0.060 A 
ATOM      9  C   LIG    1        3.646   2.010  -0.220  0.00  0.00    -0.020 A 
ATOM     10  C   LIG    1        2.482   1.285   0.005  0.00  0.00    -0.050 A 
BRANCH  10  11
ATOM     11  S   LIG    1        2.516  -0.477  -0.024  0.00  0.00    +0.040 S 
BRANCH  11  12
ATOM     12  C   LIG    1        4.284  -0.848  -0.196  0.00  0.00    -0.020 C 
ATOM     13  C   LIG    1        4.472  -2.350  -0.472  0.00  0.00    +0.110 C 
ATOM     14  C   LIG    1        5.981  -2.650  -0.278  0.00  0.00    -0.300 C 
ATOM     15  S   LIG    1        6.385  -1.698   1.236  0.00  0.00    +2.390 S 
ATOM     16  O   LIG    1        7.626  -1.031   1.054  0.00  0.00    -0.930 OA
ATOM     17  O   LIG    1        6.184  -2.520   2.377  0.00  0.00    -0.930 OA
ATOM     18  C   LIG    1        5.018  -0.489   1.111  0.00  0.00    -0.310 C 
ENDBRANCH  11  12
ENDBRANCH  10  11
ENDBRANCH   3   5
BRANCH   1  20
ATOM     19  C   LIG    1       -2.997   0.760  -0.380  0.00  0.00    +0.040 C 
ATOM     20  C   LIG    1       -2.353   1.111   0.963  0.00  0.00    +0.300 C 
BRANCH  20  21
ATOM     21  C   LIG    1       -3.307   1.951   1.773  0.00  0.00    -0.140 A 
ATOM     22  C   LIG    1       -3.212   3.329   1.741  0.00  0.00    +0.080 A 
ATOM     23  C   LIG    1       -4.087   4.101   2.483  0.00  0.00    -0.010 A 
ATOM     24  C   LIG    1       -5.059   3.493   3.259  0.00  0.00    +0.130 A 
ATOM     25  C   LIG    1       -5.156   2.113   3.291  0.00  0.00    -0.040 A 
ATOM     26  F   LIG    1       -5.913   4.248   3.985  0.00  0.00    -0.130 F 
ATOM     27  C   LIG    1       -4.283   1.341   2.544  0.00  0.00    +0.140 A 
ATOM     28  F   LIG    1       -4.379  -0.006   2.571  0.00  0.00    -0.120 F 
ENDBRANCH  20  21
ENDBRANCH   1  20
TORSDOF 5
