REMARK  Name = ZINCrD000000CPAP.0
REMARK                            x       y       z     vdW  Elec       q    Type
REMARK                         _______ _______ _______ _____ _____    ______ ____
ROOT
ATOM      1  S   LIG    1        2.146   4.870  -2.602  0.00  0.00    +2.700 S 
ATOM      2  O   LIG    1        1.785   6.205  -2.928  0.00  0.00    -0.930 OA
ATOM      3  O   LIG    1        1.347   3.744  -2.938  0.00  0.00    -0.930 OA
ENDROOT
BRANCH   1  10
ATOM      4  O   LIG    1        8.672   2.712  -6.462  0.00  0.00    -0.490 OA
ATOM      5  C   LIG    1        7.590   2.954  -5.968  0.00  0.00    +0.490 C 
ATOM      6  C   LIG    1        6.374   2.170  -6.391  0.00  0.00    +0.320 C 
ATOM      7  O   LIG    1        5.465   2.065  -5.292  0.00  0.00    -0.290 OA
ATOM      8  C   LIG    1        5.212   3.206  -4.596  0.00  0.00    +0.060 A 
ATOM      9  C   LIG    1        3.971   3.422  -4.024  0.00  0.00    +0.170 A 
ATOM     10  C   LIG    1        3.729   4.592  -3.325  0.00  0.00    -0.670 A 
ATOM     11  C   LIG    1        4.726   5.541  -3.187  0.00  0.00    +0.060 A 
ATOM     12  C   LIG    1        5.971   5.328  -3.753  0.00  0.00    +0.020 A 
ATOM     13 CL   LIG    1        4.415   7.002  -2.303  0.00  0.00    -0.020 Cl
ATOM     14  C   LIG    1        6.217   4.162  -4.458  0.00  0.00    +0.170 A 
ATOM     15  N   LIG    1        7.471   3.927  -5.039  0.00  0.00    -0.660 N 
ATOM     16  H   LIG    1        8.242   4.455  -4.777  0.00  0.00    +0.420 HD
ENDBRANCH   1  10
BRANCH   1  17
ATOM     17  N   LIG    1        2.345   4.828  -0.958  0.00  0.00    -1.000 NA
ATOM     18  C   LIG    1        2.487   6.003  -0.080  0.00  0.00    +0.270 C 
ATOM     19  C   LIG    1        3.239   5.477   1.169  0.00  0.00    +0.040 C 
ATOM     20  C   LIG    1        2.624   4.061   1.327  0.00  0.00    +0.050 C 
ATOM     21  C   LIG    1        2.406   3.613  -0.133  0.00  0.00    +0.280 C 
BRANCH  21  22
ATOM     22  C   LIG    1        1.112   2.849  -0.247  0.00  0.00    -0.070 A 
ATOM     23  C   LIG    1        1.132   1.482  -0.450  0.00  0.00    +0.020 A 
ATOM     24  C   LIG    1       -0.055   0.781  -0.554  0.00  0.00    +0.040 A 
ATOM     25  C   LIG    1       -1.262   1.446  -0.463  0.00  0.00    -0.010 A 
ATOM     26  C   LIG    1       -1.283   2.816  -0.255  0.00  0.00    +0.100 A 
ATOM     27  F   LIG    1       -2.463   3.467  -0.160  0.00  0.00    -0.140 F 
ATOM     28  C   LIG    1       -0.095   3.517  -0.150  0.00  0.00    -0.010 A 
ENDBRANCH  21  22
ENDBRANCH   1  17
TORSDOF 3
