REMARK  Name = ZINCqH0000038XlY.0
REMARK                            x       y       z     vdW  Elec       q    Type
REMARK                         _______ _______ _______ _____ _____    ______ ____
ROOT
ATOM      1  N   LIG    1       -0.753   1.587   1.194  0.00  0.00    -0.500 NA
ATOM      2  C   LIG    1       -0.013   1.086   0.008  0.00  0.00    +0.170 C 
ATOM      3  C   LIG    1       -0.806   1.620  -1.204  0.00  0.00    +0.020 C 
ATOM      4  C   LIG    1       -2.235   1.858  -0.674  0.00  0.00    +0.250 C 
ATOM      5  C   LIG    1       -2.185   1.447   0.813  0.00  0.00    +0.170 C 
ENDROOT
BRANCH   4   6
ATOM      6  N   LIG    1       -3.193   1.021  -1.402  0.00  0.00    -0.740 N 
ATOM      7  H   LIG    1       -3.442   0.151  -1.051  0.00  0.00    +0.400 HD
BRANCH   6   8
ATOM      8  C   LIG    1       -3.748   1.475  -2.601  0.00  0.00    +0.220 A 
ATOM      9  C   LIG    1       -3.395   2.723  -3.101  0.00  0.00    -0.040 A 
ATOM     10  C   LIG    1       -3.937   3.175  -4.290  0.00  0.00    +0.060 A 
ATOM     11  C   LIG    1       -4.840   2.395  -4.983  0.00  0.00    +0.000 A 
ATOM     12  C   LIG    1       -5.205   1.141  -4.486  0.00  0.00    +0.020 A 
ATOM     13  C   LIG    1       -4.654   0.683  -3.289  0.00  0.00    -0.020 A 
BRANCH  12  14
ATOM     14  C   LIG    1       -6.142   0.330  -5.203  0.00  0.00    +0.250 C 
ATOM     15  N   LIG    1       -6.885  -0.314  -5.772  0.00  0.00    -0.420 NA
ENDBRANCH  12  14
ENDBRANCH   6   8
ENDBRANCH   4   6
BRANCH   1  16
ATOM     16  C   LIG    1       -0.442   0.788   2.386  0.00  0.00    +0.280 C 
BRANCH  16  20
ATOM     17  C   LIG    1        4.562   0.578   2.743  0.00  0.00    +0.360 C 
ATOM     18  N   LIG    1        3.174   0.977   2.983  0.00  0.00    -0.370 N 
ATOM     19  N   LIG    1        2.043   0.459   2.340  0.00  0.00    -0.280 NA
ATOM     20  C   LIG    1        0.978   1.056   2.814  0.00  0.00    +0.080 A 
ATOM     21  C   LIG    1        1.376   1.984   3.775  0.00  0.00    -0.070 A 
ATOM     22  C   LIG    1        2.751   1.921   3.874  0.00  0.00    +0.150 A 
BRANCH  22  23
ATOM     23  C   LIG    1        3.602   2.724   4.769  0.00  0.00    -0.140 A 
ATOM     24  C   LIG    1        3.153   3.587   5.705  0.00  0.00    +0.050 A 
ATOM     25  C   LIG    1        4.143   4.223   6.424  0.00  0.00    +0.020 A 
ATOM     26  C   LIG    1        5.392   3.896   6.080  0.00  0.00    -0.040 A 
ATOM     27  S   LIG    1        5.361   2.713   4.779  0.00  0.00    +0.120 S 
ENDBRANCH  22  23
ENDBRANCH  16  20
ENDBRANCH   1  16
TORSDOF 6
