REMARK  Name = ZINCrD000000AK5f.0
REMARK                            x       y       z     vdW  Elec       q    Type
REMARK                         _______ _______ _______ _____ _____    ______ ____
ROOT
ATOM      1  O   LIG    1       -3.832   5.822   2.822  0.00  0.00    -0.520 OA
ATOM      2  C   LIG    1       -3.289   5.084   2.028  0.00  0.00    +0.520 C 
ATOM      3  N   LIG    1       -2.465   4.112   2.467  0.00  0.00    -0.700 N 
ATOM      4  H   LIG    1       -2.080   3.482   1.837  0.00  0.00    +0.400 HD
ENDROOT
BRANCH   2   5
ATOM      5  C   LIG    1       -3.536   5.253   0.551  0.00  0.00    +0.000 C 
ATOM      6  C   LIG    1       -2.259   5.735  -0.178  0.00  0.00    +0.080 C 
ATOM      7  C   LIG    1       -2.389   7.242  -0.194  0.00  0.00    +0.510 C 
ATOM      8  N   LIG    1       -3.658   7.599   0.070  0.00  0.00    -0.530 N 
ATOM      9  O   LIG    1       -1.482   8.016  -0.417  0.00  0.00    -0.520 OA
ATOM     10  C   LIG    1       -4.509   6.423   0.284  0.00  0.00    +0.310 C 
BRANCH   8  11
ATOM     11  C   LIG    1       -4.112   8.930   0.133  0.00  0.00    +0.010 A 
ATOM     12  C   LIG    1       -3.358  10.042  -0.059  0.00  0.00    +0.230 A 
ATOM     13  N   LIG    1       -4.171  11.120   0.087  0.00  0.00    -0.470 N 
ATOM     14  H   LIG    1       -3.908  12.050   0.005  0.00  0.00    +0.450 HD
ATOM     15  N   LIG    1       -5.459  10.650   0.377  0.00  0.00    -0.270 NA
ATOM     16  C   LIG    1       -5.426   9.343   0.398  0.00  0.00    +0.230 A 
ENDBRANCH   8  11
ENDBRANCH   2   5
BRANCH   3  17
ATOM     17  C   LIG    1       -2.149   4.008   3.893  0.00  0.00    +0.160 C 
ATOM     18  C   LIG    1       -1.689   2.604   4.322  0.00  0.00    +0.030 C 
ATOM     19  C   LIG    1       -3.171   2.281   4.571  0.00  0.00    +0.010 C 
ATOM     20  C   LIG    1       -3.384   3.789   4.783  0.00  0.00    +0.040 C 
BRANCH  17  21
ATOM     21  C   LIG    1       -1.232   5.131   4.383  0.00  0.00    +0.090 C 
BRANCH  21  22
ATOM     22  C   LIG    1        0.043   5.124   3.580  0.00  0.00    -0.060 A 
ATOM     23  C   LIG    1        0.139   5.882   2.428  0.00  0.00    +0.040 A 
ATOM     24  C   LIG    1        1.308   5.876   1.692  0.00  0.00    +0.040 A 
ATOM     25  C   LIG    1        2.384   5.112   2.107  0.00  0.00    -0.030 A 
ATOM     26  C   LIG    1        2.289   4.354   3.260  0.00  0.00    +0.040 A 
ATOM     27 CL   LIG    1        3.853   5.105   1.182  0.00  0.00    -0.060 Cl
ATOM     28  C   LIG    1        1.120   4.364   4.000  0.00  0.00    -0.020 A 
ATOM     29 CL   LIG    1        1.003   3.418   5.451  0.00  0.00    -0.050 Cl
ENDBRANCH  21  22
ENDBRANCH  17  21
ENDBRANCH   3  17
TORSDOF 5
