REMARK  Name = ZINCkj000005kbz4.0
REMARK                            x       y       z     vdW  Elec       q    Type
REMARK                         _______ _______ _______ _____ _____    ______ ____
ROOT
ATOM      1  C   LIG    1       -5.532   4.155   1.326  0.00  0.00    +0.150 C 
ATOM      2  C   LIG    1       -4.072   4.525   1.314  0.00  0.00    +0.200 A 
ATOM      3  C   LIG    1       -3.715   5.865   1.319  0.00  0.00    -0.040 A 
ATOM      4  C   LIG    1       -2.365   6.213   1.308  0.00  0.00    -0.010 A 
ATOM      5  C   LIG    1       -1.416   5.167   1.293  0.00  0.00    -0.180 A 
ATOM      6  C   LIG    1       -0.005   5.126   1.280  0.00  0.00    +0.290 A 
ATOM      7  N   LIG    1        0.374   3.880   1.275  0.00  0.00    -0.220 NA
ATOM      8  N   LIG    1       -0.749   3.044   1.275  0.00  0.00    -0.380 N 
ATOM      9  C   LIG    1       -1.870   3.833   1.290  0.00  0.00    +0.320 A 
ATOM     10  N   LIG    1       -3.169   3.570   1.300  0.00  0.00    -0.480 NA
ENDROOT
BRANCH   4  11
ATOM     11  C   LIG    1       -1.942   7.629   1.312  0.00  0.00    +0.570 C 
ATOM     12  N   LIG    1       -2.867   8.609   1.327  0.00  0.00    -0.730 N 
ATOM     13  H   LIG    1       -3.811   8.385   1.334  0.00  0.00    +0.400 HD
ATOM     14  O   LIG    1       -0.759   7.910   1.304  0.00  0.00    -0.510 OA
BRANCH  12  15
ATOM     15  C   LIG    1       -2.447  10.013   1.331  0.00  0.00    +0.280 C 
BRANCH  15  16
ATOM     16  C   LIG    1       -3.683  10.915   1.348  0.00  0.00    +0.030 C 
BRANCH  16  17
ATOM     17  C   LIG    1       -3.244  12.381   1.353  0.00  0.00    +0.280 C 
BRANCH  17  18
ATOM     18  N   LIG    1       -4.431  13.247   1.368  0.00  0.00    -0.640 N 
ATOM     19  H   LIG    1       -4.975  13.056   2.196  0.00  0.00    +0.440 HD
ATOM     20  H   LIG    1       -4.990  13.066   0.548  0.00  0.00    +0.440 HD
ATOM     21  H   LIG    1       -4.142  14.213   1.371  0.00  0.00    +0.440 HD
ENDBRANCH  17  18
ENDBRANCH  16  17
ENDBRANCH  15  16
ENDBRANCH  12  15
ENDBRANCH   4  11
BRANCH   8  22
ATOM     22  C   LIG    1       -0.729   1.579   1.267  0.00  0.00    +0.270 C 
ATOM     23  C   LIG    1        0.011   1.072   2.506  0.00  0.00    +0.050 C 
ATOM     24  C   LIG    1       -0.013   1.086   0.008  0.00  0.00    +0.050 C 
ENDBRANCH   8  22
TORSDOF 6
