REMARK  Name = ZINCkj000005mj36.0
REMARK                            x       y       z     vdW  Elec       q    Type
REMARK                         _______ _______ _______ _____ _____    ______ ____
ROOT
ATOM      1  C   LIG    1        2.603   5.179  -0.570  0.00  0.00    -0.310 A 
ATOM      2  C   LIG    1        2.566   3.858  -0.289  0.00  0.00    +0.310 A 
ATOM      3  N   LIG    1        3.709   3.536   0.354  0.00  0.00    -0.450 N 
ATOM      4  H   LIG    1        3.950   2.655   0.679  0.00  0.00    +0.460 HD
ATOM      5  N   LIG    1        4.485   4.696   0.471  0.00  0.00    -0.260 NA
ATOM      6  C   LIG    1        3.824   5.688  -0.087  0.00  0.00    +0.140 A 
ENDROOT
BRANCH   6   7
ATOM      7  C   LIG    1        4.282   7.097  -0.186  0.00  0.00    -0.060 A 
ATOM      8  C   LIG    1        4.892   7.711   0.906  0.00  0.00    +0.090 A 
ATOM      9  C   LIG    1        5.316   9.020   0.811  0.00  0.00    +0.000 A 
ATOM     10  C   LIG    1        5.131   9.726  -0.366  0.00  0.00    +0.130 A 
ATOM     11  C   LIG    1        4.531   9.118  -1.457  0.00  0.00    +0.000 A 
ATOM     12  F   LIG    1        5.543  11.010  -0.454  0.00  0.00    -0.130 F 
ATOM     13  C   LIG    1        4.104   7.809  -1.370  0.00  0.00    +0.060 A 
ENDBRANCH   6   7
BRANCH   1  14
ATOM     14  C   LIG    1        1.531   5.966  -1.278  0.00  0.00    +0.360 C 
BRANCH  14  15
ATOM     15  N   LIG    1        0.801   6.787  -0.302  0.00  0.00    -0.510 N 
ATOM     16  H   LIG    1        1.424   7.476   0.090  0.00  0.00    +0.430 HD
ATOM     17  H   LIG    1        0.445   6.196   0.434  0.00  0.00    +0.420 HD
BRANCH  15  18
ATOM     18  C   LIG    1       -0.318   7.463  -0.971  0.00  0.00    +0.290 C 
BRANCH  18  19
ATOM     19  C   LIG    1       -1.079   8.318   0.045  0.00  0.00    +0.200 C 
BRANCH  19  20
ATOM     20  O   LIG    1       -0.229   9.367   0.515  0.00  0.00    -0.390 OA
BRANCH  20  21
ATOM     21  C   LIG    1       -0.846  10.228   1.474  0.00  0.00    +0.210 C 
BRANCH  21  22
ATOM     22  C   LIG    1        0.149  11.307   1.905  0.00  0.00    +0.190 C 
BRANCH  22  23
ATOM     23  O   LIG    1        0.457  12.144   0.788  0.00  0.00    -0.570 OA
ATOM     24  H   LIG    1        1.084  12.852   0.989  0.00  0.00    +0.390 HD
ENDBRANCH  22  23
ENDBRANCH  21  22
ENDBRANCH  20  21
ENDBRANCH  19  20
ENDBRANCH  18  19
ENDBRANCH  15  18
ENDBRANCH  14  15
ENDBRANCH   1  14
TORSDOF 9
