REMARK  Name = ZINCqH0000006qFl.0
REMARK                            x       y       z     vdW  Elec       q    Type
REMARK                         _______ _______ _______ _____ _____    ______ ____
ROOT
ATOM      1  C   LIG    1        0.696  -6.847  -1.101  0.00  0.00    +0.390 A 
ATOM      2  N   LIG    1        1.330  -6.576  -2.228  0.00  0.00    -0.570 NA
ATOM      3  C   LIG    1        1.538  -5.330  -2.618  0.00  0.00    +0.440 A 
ATOM      4  C   LIG    1        1.066  -4.266  -1.802  0.00  0.00    -0.200 A 
ATOM      5  C   LIG    1        0.400  -4.610  -0.618  0.00  0.00    +0.120 A 
ATOM      6  S   LIG    1       -0.092  -3.147   0.225  0.00  0.00    +0.220 S 
ATOM      7  C   LIG    1        0.605  -2.133  -1.026  0.00  0.00    -0.260 A 
ATOM      8  C   LIG    1        1.152  -2.881  -1.991  0.00  0.00    +0.040 A 
ATOM      9  C   LIG    1        1.820  -2.275  -3.199  0.00  0.00    +0.140 C 
ATOM     10  N   LIG    1        0.240  -5.902  -0.311  0.00  0.00    -0.500 NA
ENDROOT
BRANCH   7  11
ATOM     11  C   LIG    1        0.585  -0.664  -1.018  0.00  0.00    +0.600 C 
ATOM     12  N   LIG    1        0.002  -0.004   0.002  0.00  0.00    -0.720 N 
ATOM     13  H   LIG    1       -0.404  -0.499   0.731  0.00  0.00    +0.400 HD
ATOM     14  O   LIG    1        1.095  -0.044  -1.932  0.00  0.00    -0.510 OA
BRANCH  12  15
ATOM     15  C   LIG    1       -0.018   1.461   0.010  0.00  0.00    +0.330 C 
BRANCH  15  16
ATOM     16  C   LIG    1       -0.723   1.947   1.250  0.00  0.00    -0.110 A 
ATOM     17  C   LIG    1       -2.088   2.164   1.228  0.00  0.00    +0.050 A 
ATOM     18  C   LIG    1       -2.736   2.605   2.366  0.00  0.00    +0.030 A 
ATOM     19  C   LIG    1       -2.017   2.840   3.525  0.00  0.00    -0.030 A 
ATOM     20  C   LIG    1       -0.650   2.627   3.544  0.00  0.00    +0.030 A 
ATOM     21 CL   LIG    1       -2.829   3.401   4.952  0.00  0.00    -0.060 Cl
ATOM     22  C   LIG    1       -0.004   2.180   2.407  0.00  0.00    +0.050 A 
ENDBRANCH  15  16
ENDBRANCH  12  15
ENDBRANCH   7  11
BRANCH   3  23
ATOM     23  O   LIG    1        2.189  -5.071  -3.776  0.00  0.00    -0.280 OA
ATOM     24  C   LIG    1        2.630  -6.197  -4.537  0.00  0.00    +0.280 C 
ENDBRANCH   3  23
BRANCH   1  25
ATOM     25  C   LIG    1        0.490  -8.287  -0.710  0.00  0.00    +0.300 C 
BRANCH  25  27
ATOM     26  C   LIG    1       -1.042 -10.117  -0.933  0.00  0.00    +0.220 C 
ATOM     27  O   LIG    1       -0.749  -8.755  -1.248  0.00  0.00    -0.380 OA
ENDBRANCH  25  27
ENDBRANCH   1  25
TORSDOF 6
