REMARK  Name = ZINCvU0000000Jos.0
REMARK                            x       y       z     vdW  Elec       q    Type
REMARK                         _______ _______ _______ _____ _____    ______ ____
ROOT
ATOM      1  C   LIG    1       -1.209   3.283  -1.321  0.00  0.00    +0.160 A 
ATOM      2  N   LIG    1       -2.060   3.342  -2.321  0.00  0.00    -0.280 NA
ATOM      3  N   LIG    1       -2.926   2.399  -2.222  0.00  0.00    -0.250 NA
ATOM      4  C   LIG    1       -2.679   1.673  -1.153  0.00  0.00    +0.260 A 
ATOM      5  N   LIG    1       -1.574   2.222  -0.540  0.00  0.00    -0.450 N 
ENDROOT
BRANCH   4   6
ATOM      6  C   LIG    1       -3.440   0.499  -0.697  0.00  0.00    +0.040 A 
ATOM      7  C   LIG    1       -4.681   0.135  -1.125  0.00  0.00    +0.030 A 
ATOM      8  C   LIG    1       -5.020  -1.042  -0.429  0.00  0.00    -0.050 A 
ATOM      9  C   LIG    1       -3.986  -1.332   0.386  0.00  0.00    +0.190 A 
ATOM     10  O   LIG    1       -3.033  -0.399   0.222  0.00  0.00    -0.180 OA
ENDBRANCH   4   6
BRANCH   1  11
ATOM     11  S   LIG    1        0.149   4.369  -1.040  0.00  0.00    +0.060 S 
BRANCH  11  12
ATOM     12  C   LIG    1       -0.030   5.472  -2.464  0.00  0.00    +0.100 C 
BRANCH  12  13
ATOM     13  C   LIG    1        1.058   6.515  -2.431  0.00  0.00    +0.450 C 
ATOM     14  O   LIG    1        1.874   6.513  -1.533  0.00  0.00    -0.460 OA
BRANCH  13  18
ATOM     15  C   LIG    1        0.059   9.272  -6.598  0.00  0.00    +0.130 C 
ATOM     16  C   LIG    1        0.673   8.739  -5.330  0.00  0.00    +0.010 A 
ATOM     17  C   LIG    1        0.233   7.674  -4.639  0.00  0.00    +0.000 A 
ATOM     18  C   LIG    1        1.129   7.531  -3.484  0.00  0.00    -0.270 A 
ATOM     19  C   LIG    1        2.058   8.548  -3.597  0.00  0.00    +0.130 A 
ATOM     20  C   LIG    1        3.196   8.817  -2.647  0.00  0.00    +0.150 C 
ATOM     21  N   LIG    1        1.770   9.257  -4.703  0.00  0.00    -0.410 N 
BRANCH  21  22
ATOM     22  C   LIG    1        2.526  10.422  -5.170  0.00  0.00    +0.170 C 
ATOM     23  C   LIG    1        2.920  10.463  -6.647  0.00  0.00    +0.060 C 
ATOM     24  C   LIG    1        3.984  10.201  -5.578  0.00  0.00    +0.040 C 
ENDBRANCH  21  22
ENDBRANCH  13  18
ENDBRANCH  12  13
ENDBRANCH  11  12
ENDBRANCH   1  11
BRANCH   5  25
ATOM     25  C   LIG    1       -0.922   1.762   0.688  0.00  0.00    +0.370 C 
BRANCH  25  26
ATOM     26  C   LIG    1       -1.540   2.455   1.875  0.00  0.00    -0.120 A 
ATOM     27  C   LIG    1       -1.014   3.652   2.326  0.00  0.00    +0.040 A 
ATOM     28  C   LIG    1       -1.583   4.291   3.412  0.00  0.00    +0.010 A 
ATOM     29  C   LIG    1       -2.671   3.728   4.053  0.00  0.00    +0.030 A 
ATOM     30  C   LIG    1       -3.193   2.529   3.605  0.00  0.00    +0.010 A 
ATOM     31  C   LIG    1       -2.627   1.893   2.516  0.00  0.00    +0.030 A 
ENDBRANCH  25  26
ENDBRANCH   5  25
TORSDOF 8
