REMARK  Name = ZINCqH000005012p.0
REMARK                            x       y       z     vdW  Elec       q    Type
REMARK                         _______ _______ _______ _____ _____    ______ ____
ROOT
ATOM      1  C   LIG    1       -0.052   0.963  -0.288  0.00  0.00    +0.520 C 
ATOM      2  O   LIG    1        0.168  -0.232  -0.281  0.00  0.00    -0.510 OA
ENDROOT
BRANCH   1   8
ATOM      3  C   LIG    1       -7.474   1.182  -1.219  0.00  0.00    +0.150 C 
ATOM      4  C   LIG    1       -5.992   1.385  -1.029  0.00  0.00    +0.070 A 
ATOM      5  C   LIG    1       -5.087   0.399  -0.932  0.00  0.00    -0.160 A 
ATOM      6  C   LIG    1       -3.779   1.037  -0.756  0.00  0.00    -0.120 A 
ATOM      7  C   LIG    1       -2.482   0.556  -0.601  0.00  0.00    +0.150 A 
ATOM      8  C   LIG    1       -1.432   1.458  -0.453  0.00  0.00    -0.160 A 
ATOM      9  C   LIG    1       -1.685   2.837  -0.455  0.00  0.00    +0.100 A 
ATOM     10  C   LIG    1       -2.954   3.311  -0.612  0.00  0.00    -0.010 A 
ATOM     11  C   LIG    1       -4.020   2.426  -0.761  0.00  0.00    +0.130 A 
ATOM     12  C   LIG    1       -5.362  -1.081  -0.993  0.00  0.00    +0.130 C 
ATOM     13  N   LIG    1       -5.372   2.601  -0.929  0.00  0.00    -0.590 N 
ATOM     14  H   LIG    1       -5.822   3.459  -0.970  0.00  0.00    +0.420 HD
ENDBRANCH   1   8
BRANCH   1  15
ATOM     15  O   LIG    1        0.965   1.836  -0.150  0.00  0.00    -0.320 OA
BRANCH  15  16
ATOM     16  C   LIG    1        2.297   1.277   0.002  0.00  0.00    +0.240 C 
BRANCH  16  17
ATOM     17  C   LIG    1        3.311   2.231  -0.575  0.00  0.00    -0.100 A 
ATOM     18  C   LIG    1        3.231   3.581  -0.289  0.00  0.00    +0.050 A 
ATOM     19  C   LIG    1        4.163   4.456  -0.815  0.00  0.00    +0.010 A 
ATOM     20  C   LIG    1        5.170   3.982  -1.634  0.00  0.00    +0.020 A 
ATOM     21  C   LIG    1        5.247   2.632  -1.925  0.00  0.00    +0.010 A 
ATOM     22  C   LIG    1        4.317   1.757  -1.396  0.00  0.00    +0.030 A 
ENDBRANCH  16  17
BRANCH  16  23
ATOM     23  C   LIG    1        2.587   1.060   1.465  0.00  0.00    +0.510 C 
ATOM     24  N   LIG    1        3.545   0.190   1.840  0.00  0.00    -0.610 N 
ATOM     25  C   LIG    1        4.366  -0.477   0.827  0.00  0.00    +0.290 C 
ATOM     26  C   LIG    1        3.766  -0.088   3.261  0.00  0.00    +0.290 C 
ATOM     27  O   LIG    1        1.958   1.669   2.304  0.00  0.00    -0.520 OA
ENDBRANCH  16  23
ENDBRANCH  15  16
ENDBRANCH   1  15
TORSDOF 5
