REMARK  Name = ZINCrD00000hQ4mm.0
REMARK                            x       y       z     vdW  Elec       q    Type
REMARK                         _______ _______ _______ _____ _____    ______ ____
ROOT
ATOM      1  C   LIG    1       -0.908   4.110  -5.311  0.00  0.00    +0.160 C 
ATOM      2  C   LIG    1        0.411   3.825  -6.077  0.00  0.00    +0.080 C 
ATOM      3  C   LIG    1        1.354   3.320  -4.965  0.00  0.00    +0.330 C 
ATOM      4  N   LIG    1        0.831   3.823  -3.687  0.00  0.00    -0.600 N 
ATOM      5  C   LIG    1        1.362   3.583  -2.471  0.00  0.00    +0.550 C 
ATOM      6  O   LIG    1        2.410   2.982  -2.376  0.00  0.00    -0.520 OA
ATOM      7  C   LIG    1       -0.376   4.628  -3.954  0.00  0.00    +0.260 C 
ENDROOT
BRANCH   3   8
ATOM      8  C   LIG    1        2.746   3.852  -5.194  0.00  0.00    +0.170 A 
ATOM      9  N   LIG    1        3.246   4.950  -4.695  0.00  0.00    -0.270 NA
ATOM     10  N   LIG    1        4.460   5.093  -5.095  0.00  0.00    -0.290 NA
ATOM     11  C   LIG    1        4.786   4.098  -5.874  0.00  0.00    +0.180 A 
ATOM     12  C   LIG    1        6.115   3.895  -6.554  0.00  0.00    +0.200 C 
ATOM     13  N   LIG    1        3.708   3.282  -5.959  0.00  0.00    -0.580 N 
ATOM     14  H   LIG    1        3.638   2.458  -6.465  0.00  0.00    +0.430 HD
ENDBRANCH   3   8
BRANCH   5  15
ATOM     15  C   LIG    1        0.652   4.062  -1.231  0.00  0.00    -0.010 C 
ATOM     16  C   LIG    1        1.577   3.906  -0.022  0.00  0.00    +0.040 C 
ATOM     17  C   LIG    1        1.956   2.433   0.143  0.00  0.00    +0.030 C 
ATOM     18  C   LIG    1        0.689   1.602   0.360  0.00  0.00    +0.020 C 
ATOM     19  C   LIG    1       -0.235   1.758  -0.849  0.00  0.00    +0.020 C 
ATOM     20  C   LIG    1       -0.614   3.231  -1.015  0.00  0.00    +0.040 C 
BRANCH  18  21
ATOM     21  C   LIG    1        1.062   0.151   0.523  0.00  0.00    -0.070 A 
ATOM     22  C   LIG    1        1.722  -0.512  -0.495  0.00  0.00    +0.010 A 
ATOM     23  C   LIG    1        2.068  -1.841  -0.343  0.00  0.00    +0.000 A 
ATOM     24  C   LIG    1        1.746  -2.510   0.823  0.00  0.00    -0.010 A 
ATOM     25  C   LIG    1        1.082  -1.849   1.839  0.00  0.00    +0.000 A 
ATOM     26  C   LIG    1        0.741  -0.518   1.689  0.00  0.00    +0.000 A 
ENDBRANCH  18  21
ENDBRANCH   5  15
BRANCH   1  28
ATOM     27  C   LIG    1       -3.081   3.124  -5.086  0.00  0.00    +0.210 C 
ATOM     28  O   LIG    1       -1.668   2.913  -5.136  0.00  0.00    -0.370 OA
ENDBRANCH   1  28
TORSDOF 4
