REMARK  Name = ZINCrD00000hQ4mm.1
REMARK                            x       y       z     vdW  Elec       q    Type
REMARK                         _______ _______ _______ _____ _____    ______ ____
ROOT
ATOM      1  C   LIG    1        0.002  -0.004   0.002  0.00  0.00    +0.160 C 
ATOM      2  C   LIG    1       -1.252  -0.573  -0.713  0.00  0.00    +0.070 C 
ATOM      3  C   LIG    1       -2.327  -0.536   0.393  0.00  0.00    +0.350 C 
ATOM      4  N   LIG    1       -1.625  -0.519   1.684  0.00  0.00    -0.600 N 
ATOM      5  C   LIG    1       -2.211  -0.466   2.897  0.00  0.00    +0.540 C 
ATOM      6  O   LIG    1       -3.420  -0.426   2.984  0.00  0.00    -0.530 OA
ATOM      7  C   LIG    1       -0.173  -0.570   1.433  0.00  0.00    +0.260 C 
ENDROOT
BRANCH   3   8
ATOM      8  C   LIG    1       -3.200  -1.762   0.300  0.00  0.00    +0.230 A 
ATOM      9  N   LIG    1       -2.847  -2.973   0.641  0.00  0.00    -0.300 NA
ATOM     10  N   LIG    1       -3.955  -3.802   0.398  0.00  0.00    -0.480 N 
ATOM     11  H   LIG    1       -4.010  -4.758   0.552  0.00  0.00    +0.440 HD
ATOM     12  C   LIG    1       -4.921  -3.008  -0.095  0.00  0.00    +0.290 A 
ATOM     13  C   LIG    1       -6.300  -3.447  -0.514  0.00  0.00    +0.190 C 
ATOM     14  N   LIG    1       -4.454  -1.786  -0.149  0.00  0.00    -0.530 NA
ENDBRANCH   3   8
BRANCH   5  15
ATOM     15  C   LIG    1       -1.365  -0.454   4.143  0.00  0.00    +0.000 C 
ATOM     16  C   LIG    1       -0.520  -1.729   4.197  0.00  0.00    +0.030 C 
ATOM     17  C   LIG    1        0.340  -1.717   5.463  0.00  0.00    +0.030 C 
ATOM     18  C   LIG    1       -0.567  -1.653   6.694  0.00  0.00    +0.030 C 
ATOM     19  C   LIG    1       -1.411  -0.379   6.640  0.00  0.00    +0.030 C 
ATOM     20  C   LIG    1       -2.271  -0.390   5.374  0.00  0.00    +0.040 C 
BRANCH  18  21
ATOM     21  C   LIG    1        0.280  -1.642   7.941  0.00  0.00    -0.080 A 
ATOM     22  C   LIG    1        1.199  -0.629   8.144  0.00  0.00    +0.000 A 
ATOM     23  C   LIG    1        1.972  -0.616   9.289  0.00  0.00    +0.000 A 
ATOM     24  C   LIG    1        1.834  -1.621  10.228  0.00  0.00    -0.010 A 
ATOM     25  C   LIG    1        0.919  -2.637  10.023  0.00  0.00    +0.000 A 
ATOM     26  C   LIG    1        0.142  -2.647   8.879  0.00  0.00    +0.000 A 
ENDBRANCH  18  21
ENDBRANCH   5  15
BRANCH   1  28
ATOM     27  C   LIG    1        1.280   2.024   0.001  0.00  0.00    +0.210 C 
ATOM     28  O   LIG    1       -0.017   1.425   0.010  0.00  0.00    -0.370 OA
ENDBRANCH   1  28
TORSDOF 4
