REMARK  Name = ZINCrg00000SjSHQ.0
REMARK                            x       y       z     vdW  Elec       q    Type
REMARK                         _______ _______ _______ _____ _____    ______ ____
ROOT
ATOM      1  C   LIG    1       -8.922  -9.443  -2.895  0.00  0.00    +0.350 C 
ATOM      2  N   LIG    1       -8.351  -8.390  -2.050  0.00  0.00    -0.550 N 
ATOM      3  C   LIG    1       -7.559  -7.447  -2.606  0.00  0.00    +0.600 A 
ATOM      4  C   LIG    1       -7.001  -6.407  -1.741  0.00  0.00    -0.090 A 
ATOM      5  C   LIG    1       -7.313  -6.437  -0.387  0.00  0.00    +0.290 A 
ATOM      6  N   LIG    1       -8.129  -7.436   0.091  0.00  0.00    -0.520 N 
ATOM      7  C   LIG    1       -8.464  -7.478   1.516  0.00  0.00    +0.340 C 
ATOM      8  N   LIG    1       -6.677  -5.377   0.177  0.00  0.00    -0.550 N 
ATOM      9  H   LIG    1       -6.700  -5.127   1.114  0.00  0.00    +0.430 HD
ATOM     10  C   LIG    1       -6.001  -4.726  -0.814  0.00  0.00    +0.230 A 
ATOM     11  N   LIG    1       -6.198  -5.335  -1.947  0.00  0.00    -0.370 NA
ATOM     12  O   LIG    1       -7.315  -7.463  -3.798  0.00  0.00    -0.480 OA
ATOM     13  C   LIG    1       -8.623  -8.376  -0.735  0.00  0.00    +0.720 A 
ATOM     14  O   LIG    1       -9.341  -9.242  -0.275  0.00  0.00    -0.520 OA
ENDROOT
BRANCH  10  15
ATOM     15  C   LIG    1       -5.159  -3.490  -0.625  0.00  0.00    +0.240 C 
BRANCH  15  16
ATOM     16  S   LIG    1       -3.454  -3.972  -0.256  0.00  0.00    +0.030 S 
BRANCH  16  17
ATOM     17  C   LIG    1       -2.716  -2.380  -0.089  0.00  0.00    +0.150 A 
ATOM     18  N   LIG    1       -3.324  -1.222  -0.217  0.00  0.00    -0.280 NA
ATOM     19  N   LIG    1       -2.489  -0.263  -0.032  0.00  0.00    -0.260 NA
ATOM     20  C   LIG    1       -1.298  -0.749   0.225  0.00  0.00    +0.230 A 
ATOM     21  N   LIG    1       -1.405  -2.121   0.191  0.00  0.00    -0.460 N 
ATOM     22  C   LIG    1       -0.337  -3.098   0.413  0.00  0.00    +0.350 C 
BRANCH  20  23
ATOM     23  C   LIG    1       -0.070   0.029   0.494  0.00  0.00    -0.020 A 
ATOM     24  C   LIG    1        1.015  -0.572   1.134  0.00  0.00    +0.020 A 
ATOM     25  C   LIG    1        2.158   0.160   1.382  0.00  0.00    +0.010 A 
ATOM     26  C   LIG    1        2.231   1.487   0.997  0.00  0.00    +0.030 A 
ATOM     27  C   LIG    1        1.159   2.089   0.362  0.00  0.00    +0.010 A 
ATOM     28  C   LIG    1        0.010   1.368   0.108  0.00  0.00    +0.070 A 
ENDBRANCH  20  23
ENDBRANCH  16  17
ENDBRANCH  15  16
ENDBRANCH  10  15
TORSDOF 4
