REMARK  Name = ZINCrg000000mWmh.0
REMARK                            x       y       z     vdW  Elec       q    Type
REMARK                         _______ _______ _______ _____ _____    ______ ____
ROOT
ATOM      1  C   LIG    1       -4.748   2.768   2.161  0.00  0.00    +0.210 C 
ATOM      2  C   LIG    1       -5.473   1.420   2.185  0.00  0.00    +0.090 C 
ENDROOT
BRANCH   1   3
ATOM      3  N   LIG    1       -5.668   3.825   2.589  0.00  0.00    -0.410 N 
ATOM      4  C   LIG    1       -6.296   3.908   3.778  0.00  0.00    +0.530 A 
ATOM      5  N   LIG    1       -7.039   4.985   3.810  0.00  0.00    -0.500 NA
ATOM      6  C   LIG    1       -6.929   5.645   2.654  0.00  0.00    +0.330 A 
ATOM      7  N   LIG    1       -7.482   6.816   2.160  0.00  0.00    -0.510 N 
ATOM      8  C   LIG    1       -8.406   7.594   2.988  0.00  0.00    +0.340 C 
ATOM      9  C   LIG    1       -7.170   7.239   0.920  0.00  0.00    +0.710 A 
ATOM     10  O   LIG    1       -7.666   8.268   0.504  0.00  0.00    -0.530 OA
ATOM     11  N   LIG    1       -6.327   6.551   0.132  0.00  0.00    -0.550 N 
ATOM     12  C   LIG    1       -6.021   7.055  -1.210  0.00  0.00    +0.350 C 
ATOM     13  C   LIG    1       -5.757   5.404   0.556  0.00  0.00    +0.600 A 
ATOM     14  O   LIG    1       -4.994   4.790  -0.168  0.00  0.00    -0.520 OA
ATOM     15  C   LIG    1       -6.051   4.927   1.852  0.00  0.00    -0.160 A 
ENDBRANCH   1   3
BRANCH   1  16
ATOM     16  C   LIG    1       -3.568   2.720   3.098  0.00  0.00    +0.420 C 
ATOM     17  O   LIG    1       -3.702   3.043   4.260  0.00  0.00    -0.430 OA
BRANCH  16  22
ATOM     18  C   LIG    1       -0.134   1.750   2.494  0.00  0.00    -0.260 A 
ATOM     19  C   LIG    1       -0.717   1.577   1.246  0.00  0.00    +0.130 A 
ATOM     20  N   LIG    1       -2.011   1.913   1.328  0.00  0.00    -0.520 N 
ATOM     21  H   LIG    1       -2.645   1.886   0.594  0.00  0.00    +0.420 HD
ATOM     22  C   LIG    1       -2.303   2.299   2.621  0.00  0.00    -0.110 A 
ATOM     23  C   LIG    1       -0.009   1.098   0.005  0.00  0.00    +0.160 C 
ATOM     24  C   LIG    1       -1.147   2.210   3.365  0.00  0.00    -0.000 A 
ATOM     25  C   LIG    1       -0.993   2.538   4.828  0.00  0.00    +0.140 C 
BRANCH  18  27
ATOM     26  C   LIG    1        1.715   0.115   3.228  0.00  0.00    +0.070 C 
ATOM     27  C   LIG    1        1.269   1.502   2.842  0.00  0.00    +0.430 C 
ATOM     28  O   LIG    1        2.070   2.413   2.820  0.00  0.00    -0.450 OA
ENDBRANCH  18  27
ENDBRANCH  16  22
ENDBRANCH   1  16
TORSDOF 4
