REMARK  Name = ZINCqH000000511C.0
REMARK                            x       y       z     vdW  Elec       q    Type
REMARK                         _______ _______ _______ _____ _____    ______ ____
ROOT
ATOM      1  N   LIG    1        5.864   3.410   0.179  0.00  0.00    -0.670 N 
ATOM      2  H   LIG    1        6.003   4.370   0.205  0.00  0.00    +0.420 HD
ATOM      3  C   LIG    1        6.922   2.576   0.205  0.00  0.00    +0.530 C 
ATOM      4  O   LIG    1        6.755   1.381   0.087  0.00  0.00    -0.490 OA
ENDROOT
BRANCH   1   8
ATOM      5  C   LIG    1        2.000   1.868  -0.016  0.00  0.00    -0.150 A 
ATOM      6  C   LIG    1        2.303   3.078  -0.646  0.00  0.00    +0.070 A 
ATOM      7  C   LIG    1        3.580   3.588  -0.575  0.00  0.00    -0.020 A 
ATOM      8  C   LIG    1        4.571   2.894   0.114  0.00  0.00    +0.170 A 
ATOM      9  C   LIG    1        4.273   1.687   0.737  0.00  0.00    +0.010 A 
ATOM     10  C   LIG    1        2.997   1.174   0.675  0.00  0.00    +0.100 A 
BRANCH   5  13
ATOM     11  C   LIG    1       -1.761   1.594  -0.461  0.00  0.00    +0.300 C 
ATOM     12  N   LIG    1       -0.415   2.146  -0.287  0.00  0.00    -0.620 N 
ATOM     13  C   LIG    1        0.631   1.321  -0.086  0.00  0.00    +0.560 C 
ATOM     14  O   LIG    1        0.446   0.126   0.044  0.00  0.00    -0.530 OA
ATOM     15  C   LIG    1       -0.207   3.595  -0.332  0.00  0.00    +0.280 C 
ENDBRANCH   5  13
ENDBRANCH   1   8
BRANCH   3  16
ATOM     16  C   LIG    1        8.313   3.128   0.381  0.00  0.00    +0.110 C 
BRANCH  16  17
ATOM     17  S   LIG    1        9.510   1.766   0.374  0.00  0.00    -0.150 S 
BRANCH  17  18
ATOM     18  C   LIG    1       11.098   2.616   0.593  0.00  0.00    +0.090 C 
BRANCH  18  19
ATOM     19  C   LIG    1       12.230   1.586   0.609  0.00  0.00    +0.240 C 
BRANCH  19  20
ATOM     20  O   LIG    1       13.480   2.256   0.782  0.00  0.00    -0.310 OA
BRANCH  20  21
ATOM     21  C   LIG    1       14.596   1.480   0.819  0.00  0.00    +0.140 A 
ATOM     22  C   LIG    1       14.488   0.103   0.696  0.00  0.00    -0.060 A 
ATOM     23  C   LIG    1       15.623  -0.684   0.729  0.00  0.00    +0.070 A 
ATOM     24  C   LIG    1       16.866  -0.099   0.893  0.00  0.00    -0.070 A 
ATOM     25  C   LIG    1       16.975   1.275   1.021  0.00  0.00    +0.070 A 
ATOM     26 CL   LIG    1       18.291  -1.089   0.940  0.00  0.00    -0.070 Cl
ATOM     27  C   LIG    1       15.843   2.065   0.984  0.00  0.00    +0.000 A 
ENDBRANCH  20  21
ENDBRANCH  19  20
ENDBRANCH  18  19
ENDBRANCH  17  18
ENDBRANCH  16  17
ENDBRANCH   3  16
TORSDOF 8
