REMARK  Name = ZINCrD000000C7uQ.0
REMARK                            x       y       z     vdW  Elec       q    Type
REMARK                         _______ _______ _______ _____ _____    ______ ____
ROOT
ATOM      1  O   LIG    1       -1.428   6.066   0.204  0.00  0.00    -0.560 OA
ATOM      2  C   LIG    1       -2.475   5.450   0.156  0.00  0.00    +0.710 C 
ATOM      3  N   LIG    1       -3.648   6.103   0.272  0.00  0.00    -0.620 N 
ATOM      4  C   LIG    1       -4.915   5.366   0.386  0.00  0.00    +0.270 C 
ATOM      5  C   LIG    1       -5.679   5.905   1.605  0.00  0.00    +0.170 C 
ATOM      6  N   LIG    1       -5.819   7.362   1.484  0.00  0.00    -0.530 NA
ATOM      7  C   LIG    1       -4.508   8.026   1.500  0.00  0.00    +0.170 C 
ATOM      8  C   LIG    1       -3.695   7.573   0.282  0.00  0.00    +0.310 C 
ATOM      9  N   LIG    1       -2.462   4.113  -0.013  0.00  0.00    -0.680 N 
ATOM     10  H   LIG    1       -3.291   3.637  -0.182  0.00  0.00    +0.410 HD
ENDROOT
BRANCH   9  11
ATOM     11  C   LIG    1       -1.254   3.410   0.055  0.00  0.00    +0.200 A 
ATOM     12  C   LIG    1       -0.053   4.069  -0.173  0.00  0.00    +0.010 A 
ATOM     13  C   LIG    1        1.140   3.376  -0.106  0.00  0.00    +0.080 A 
ATOM     14  C   LIG    1        1.142   2.025   0.188  0.00  0.00    -0.080 A 
ATOM     15  C   LIG    1       -0.056   1.362   0.418  0.00  0.00    +0.130 A 
ATOM     16  C   LIG    1       -1.255   2.053   0.346  0.00  0.00    -0.020 A 
BRANCH  15  17
ATOM     17  O   LIG    1       -0.053   0.034   0.707  0.00  0.00    -0.310 OA
BRANCH  17  18
ATOM     18  C   LIG    1        1.219  -0.616   0.759  0.00  0.00    +0.610 C 
ATOM     19  F   LIG    1        1.853  -0.500  -0.483  0.00  0.00    -0.160 F 
ATOM     20  F   LIG    1        1.039  -1.968   1.067  0.00  0.00    -0.130 F 
ATOM     21  F   LIG    1        2.010  -0.014   1.744  0.00  0.00    -0.160 F 
ENDBRANCH  17  18
ENDBRANCH  15  17
ENDBRANCH   9  11
BRANCH   6  22
ATOM     22  C   LIG    1       -6.692   7.897   2.537  0.00  0.00    +0.240 C 
BRANCH  22  23
ATOM     23  C   LIG    1       -8.093   7.378   2.339  0.00  0.00    -0.130 A 
ATOM     24  C   LIG    1       -8.493   6.192   2.936  0.00  0.00    +0.060 A 
ATOM     25  C   LIG    1       -9.792   5.753   2.726  0.00  0.00    -0.030 A 
ATOM     26  C   LIG    1      -10.638   6.507   1.935  0.00  0.00    +0.260 A 
ATOM     27  N   LIG    1      -10.223   7.630   1.383  0.00  0.00    -0.480 NA
ATOM     28  C   LIG    1       -8.997   8.081   1.565  0.00  0.00    +0.280 A 
ENDBRANCH  22  23
ENDBRANCH   6  22
TORSDOF 5
