REMARK  Name = ZINCpe000000SztK.0
REMARK                            x       y       z     vdW  Elec       q    Type
REMARK                         _______ _______ _______ _____ _____    ______ ____
ROOT
ATOM      1  C   LIG    1        7.106  -1.399   1.597  0.00  0.00    +0.520 C 
ATOM      2  N   LIG    1        6.097  -1.285   0.711  0.00  0.00    -0.620 N 
ATOM      3  C   LIG    1        5.998  -0.116  -0.175  0.00  0.00    +0.300 C 
ATOM      4  C   LIG    1        4.584   0.464  -0.060  0.00  0.00    +0.190 C 
ATOM      5  N   LIG    1        3.601  -0.597  -0.319  0.00  0.00    -0.490 N 
ATOM      6  C   LIG    1        3.688  -1.662   0.689  0.00  0.00    +0.190 C 
ATOM      7  C   LIG    1        5.066  -2.329   0.605  0.00  0.00    +0.280 C 
ATOM      8  O   LIG    1        7.995  -0.573   1.612  0.00  0.00    -0.510 OA
ENDROOT
BRANCH   5   9
ATOM      9  C   LIG    1        2.307  -0.075  -0.384  0.00  0.00    +0.110 A 
ATOM     10  C   LIG    1        1.228  -0.916  -0.622  0.00  0.00    -0.020 A 
ATOM     11  C   LIG    1       -0.050  -0.397  -0.687  0.00  0.00    +0.030 A 
ATOM     12  C   LIG    1       -0.256   0.960  -0.515  0.00  0.00    -0.020 A 
ATOM     13  C   LIG    1        0.816   1.801  -0.279  0.00  0.00    +0.030 A 
ATOM     14  C   LIG    1        2.097   1.288  -0.213  0.00  0.00    -0.040 A 
ENDBRANCH   5   9
BRANCH   1  15
ATOM     15  C   LIG    1        7.131  -2.550   2.569  0.00  0.00    +0.130 C 
ATOM     16  C   LIG    1        6.223  -2.233   3.759  0.00  0.00    +0.070 C 
BRANCH  15  22
ATOM     17  C   LIG    1       11.837  -6.026   4.727  0.00  0.00    +0.100 C 
ATOM     18  C   LIG    1       11.851  -5.015   3.610  0.00  0.00    +0.510 C 
ATOM     19  N   LIG    1       10.925  -4.037   3.573  0.00  0.00    -0.620 N 
ATOM     20  C   LIG    1        9.961  -3.869   4.671  0.00  0.00    +0.290 C 
ATOM     21  C   LIG    1        8.550  -3.806   4.075  0.00  0.00    +0.180 C 
ATOM     22  N   LIG    1        8.505  -2.761   3.044  0.00  0.00    -0.520 NA
ATOM     23  C   LIG    1        9.405  -3.076   1.927  0.00  0.00    +0.170 C 
ATOM     24  C   LIG    1       10.851  -3.109   2.434  0.00  0.00    +0.300 C 
ATOM     25  O   LIG    1       12.697  -5.082   2.743  0.00  0.00    -0.550 OA
ENDBRANCH  15  22
ENDBRANCH   1  15
TORSDOF 3
