REMARK  Name = ZINCrD00000hQ6Rm.0
REMARK                            x       y       z     vdW  Elec       q    Type
REMARK                         _______ _______ _______ _____ _____    ______ ____
ROOT
ATOM      1  N   LIG    1       -1.156  -0.694   0.009  0.00  0.00    -0.630 N 
ATOM      2  H   LIG    1       -2.002  -0.220   0.020  0.00  0.00    +0.420 HD
ATOM      3  C   LIG    1        0.002  -0.004   0.002  0.00  0.00    +0.520 C 
ATOM      4  O   LIG    1        1.060  -0.596  -0.011  0.00  0.00    -0.490 OA
ENDROOT
BRANCH   1   6
ATOM      5  C   LIG    1       -2.255  -2.875   0.008  0.00  0.00    -0.190 A 
ATOM      6  C   LIG    1       -1.137  -2.080   0.002  0.00  0.00    +0.050 A 
ATOM      7  S   LIG    1        0.278  -3.030  -0.024  0.00  0.00    +0.310 S 
ATOM      8  C   LIG    1       -0.635  -4.528  -0.016  0.00  0.00    -0.250 A 
ATOM      9  C   LIG    1       -0.020  -5.904  -0.029  0.00  0.00    +0.150 C 
ATOM     10  C   LIG    1       -1.938  -4.287  -0.002  0.00  0.00    -0.050 A 
ATOM     11  C   LIG    1       -2.983  -5.372   0.003  0.00  0.00    +0.120 C 
BRANCH   5  12
ATOM     12  C   LIG    1       -3.622  -2.352   0.025  0.00  0.00    +0.540 C 
ATOM     13  O   LIG    1       -4.201  -2.128  -1.022  0.00  0.00    -0.490 OA
BRANCH  12  14
ATOM     14  O   LIG    1       -4.240  -2.117   1.200  0.00  0.00    -0.350 OA
BRANCH  14  16
ATOM     15  C   LIG    1       -6.127  -1.397   2.561  0.00  0.00    +0.070 C 
ATOM     16  C   LIG    1       -5.595  -1.598   1.141  0.00  0.00    +0.200 C 
ENDBRANCH  14  16
ENDBRANCH  12  14
ENDBRANCH   5  12
ENDBRANCH   1   6
BRANCH   3  17
ATOM     17  C   LIG    1       -0.018   1.503   0.010  0.00  0.00    +0.080 C 
BRANCH  17  18
ATOM     18  C   LIG    1        1.417   2.032  -0.001  0.00  0.00    +0.300 C 
ATOM     19  N   LIG    1        2.093   1.647   1.247  0.00  0.00    -0.740 N 
ATOM     20  H   LIG    1        2.712   0.900   1.268  0.00  0.00    +0.420 HD
ATOM     21  C   LIG    1        1.817   2.389   2.404  0.00  0.00    +0.160 A 
ATOM     22  C   LIG    1        1.901   1.809   3.657  0.00  0.00    -0.010 A 
ATOM     23  C   LIG    1        1.633   2.566   4.784  0.00  0.00    +0.030 A 
ATOM     24  C   LIG    1        1.283   3.898   4.659  0.00  0.00    +0.000 A 
ATOM     25  C   LIG    1        1.195   4.483   3.408  0.00  0.00    +0.010 A 
ATOM     26  C   LIG    1        1.457   3.731   2.274  0.00  0.00    +0.090 A 
ATOM     27  N   LIG    1        1.350   4.302   1.001  0.00  0.00    -0.650 N 
ATOM     28  H   LIG    1        1.240   5.261   0.914  0.00  0.00    +0.410 HD
ATOM     29  C   LIG    1        1.399   3.536  -0.105  0.00  0.00    +0.510 C 
ATOM     30  O   LIG    1        1.429   4.062  -1.197  0.00  0.00    -0.520 OA
ENDBRANCH  17  18
ENDBRANCH   3  17
TORSDOF 6
