REMARK  Name = ZINCah0000003XSs.0
REMARK                            x       y       z     vdW  Elec       q    Type
REMARK                         _______ _______ _______ _____ _____    ______ ____
ROOT
ATOM      1  N   LIG    1        2.601  -1.181  -0.029  0.00  0.00    -0.780 N 
ATOM      2  C   LIG    1        1.779  -0.063  -0.015  0.00  0.00    +0.340 A 
ATOM      3  N   LIG    1        2.129   1.204  -0.012  0.00  0.00    -0.340 NA
ATOM      4  N   LIG    1        1.242   2.100   0.002  0.00  0.00    -0.150 NA
ATOM      5  C   LIG    1       -0.022   1.774   0.012  0.00  0.00    -0.120 A 
ATOM      6  S   LIG    1        0.002  -0.004   0.002  0.00  0.00    +0.090 S 
ATOM      7  H   LIG    1        3.565  -1.074  -0.037  0.00  0.00    +0.430 HD
ATOM      8  H   LIG    1        2.211  -2.069  -0.029  0.00  0.00    +0.430 HD
ENDROOT
BRANCH   5   9
ATOM      9  C   LIG    1       -1.220   2.689   0.023  0.00  0.00    +0.580 C 
ATOM     10  F   LIG    1       -1.985   2.442   1.167  0.00  0.00    -0.160 F 
ATOM     11  F   LIG    1       -1.996   2.454  -1.117  0.00  0.00    -0.160 F 
ATOM     12  F   LIG    1       -0.789   4.020   0.028  0.00  0.00    -0.150 F 
ENDBRANCH   5   9
TORSDOF 1
