REMARK  Name = ZINCqH0000004tEq.2
REMARK                            x       y       z     vdW  Elec       q    Type
REMARK                         _______ _______ _______ _____ _____    ______ ____
ROOT
ATOM      1  C   LIG    1        0.828   2.215  -0.905  0.00  0.00    +0.510 C 
ATOM      2  N   LIG    1       -0.387   1.684  -1.147  0.00  0.00    -0.630 N 
ATOM      3  H   LIG    1       -1.179   2.241  -1.096  0.00  0.00    +0.420 HD
ATOM      4  O   LIG    1        1.819   1.519  -0.974  0.00  0.00    -0.500 OA
ENDROOT
BRANCH   2   5
ATOM      5  C   LIG    1       -0.504   0.340  -1.476  0.00  0.00    +0.060 A 
ATOM      6  C   LIG    1       -1.683  -0.296  -1.733  0.00  0.00    -0.110 A 
ATOM      7  C   LIG    1       -1.523  -1.704  -2.058  0.00  0.00    -0.040 A 
ATOM      8  C   LIG    1       -0.244  -2.091  -2.022  0.00  0.00    -0.240 A 
ATOM      9  C   LIG    1        0.249  -3.497  -2.293  0.00  0.00    +0.120 C 
ATOM     10  C   LIG    1       -0.393  -4.040  -3.569  0.00  0.00    +0.020 C 
ATOM     11  C   LIG    1       -1.696  -4.750  -3.212  0.00  0.00    +0.000 C 
ATOM     12  C   LIG    1       -2.357  -4.056  -2.024  0.00  0.00    +0.030 C 
ATOM     13  C   LIG    1       -2.691  -2.615  -2.395  0.00  0.00    +0.090 C 
ATOM     14  S   LIG    1        0.803  -0.742  -1.605  0.00  0.00    +0.320 S 
BRANCH   6  15
ATOM     15  C   LIG    1       -2.955   0.361  -1.691  0.00  0.00    +0.270 C 
ATOM     16  N   LIG    1       -3.964   0.882  -1.657  0.00  0.00    -0.420 NA
ENDBRANCH   6  15
ENDBRANCH   2   5
BRANCH   1  17
ATOM     17  C   LIG    1        0.955   3.674  -0.549  0.00  0.00    +0.080 C 
BRANCH  17  18
ATOM     18  C   LIG    1        2.429   4.018  -0.326  0.00  0.00    +0.210 C 
BRANCH  18  25
ATOM     19  C   LIG    1        3.958   5.870  -0.011  0.00  0.00    +0.100 C 
ATOM     20  C   LIG    1        4.035   7.367   0.298  0.00  0.00    +0.230 C 
ATOM     21  O   LIG    1        3.420   7.620   1.564  0.00  0.00    -0.380 OA
ATOM     22  C   LIG    1        2.050   7.214   1.631  0.00  0.00    +0.160 C 
ATOM     23  C   LIG    1        1.953   5.715   1.335  0.00  0.00    +0.160 C 
ATOM     24  C   LIG    1        1.500   7.496   3.030  0.00  0.00    +0.050 C 
ATOM     25  N   LIG    1        2.552   5.440   0.021  0.00  0.00    -0.530 NA
BRANCH  19  27
ATOM     26  C   LIG    1        6.029   5.964  -1.405  0.00  0.00    +0.020 C 
ATOM     27  C   LIG    1        4.542   5.604  -1.399  0.00  0.00    +0.020 C 
ENDBRANCH  19  27
ENDBRANCH  18  25
ENDBRANCH  17  18
ENDBRANCH   1  17
TORSDOF 6
