REMARK  Name = ZINCtV00000L6jkA.0
REMARK                            x       y       z     vdW  Elec       q    Type
REMARK                         _______ _______ _______ _____ _____    ______ ____
ROOT
ATOM      1  C   LIG    1       10.997   2.497   0.231  0.00  0.00    -0.240 A 
ATOM      2  C   LIG    1       10.699   1.172   0.196  0.00  0.00    +0.150 A 
ATOM      3  O   LIG    1        9.484   0.707  -0.096  0.00  0.00    -0.210 OA
ATOM      4  C   LIG    1        8.402   1.507  -0.068  0.00  0.00    +0.180 A 
ATOM      5  C   LIG    1        7.123   0.964  -0.053  0.00  0.00    -0.030 A 
ATOM      6  C   LIG    1        6.020   1.800  -0.045  0.00  0.00    +0.190 A 
ATOM      7  C   LIG    1        6.176   3.184  -0.039  0.00  0.00    -0.090 A 
ATOM      8  C   LIG    1        7.427   3.735  -0.043  0.00  0.00    +0.160 A 
ATOM      9  C   LIG    1        8.547   2.906  -0.054  0.00  0.00    -0.250 A 
ATOM     10  C   LIG    1       11.793   0.182   0.501  0.00  0.00    +0.180 C 
ATOM     11  C   LIG    1        9.915   3.460  -0.049  0.00  0.00    +0.430 A 
ATOM     12  O   LIG    1       10.136   4.640  -0.263  0.00  0.00    -0.450 OA
ENDROOT
BRANCH   1  16
ATOM     13  C   LIG    1       14.936   3.831   1.122  0.00  0.00    +0.130 A 
ATOM     14  C   LIG    1       14.392   4.068  -0.133  0.00  0.00    -0.020 A 
ATOM     15  C   LIG    1       13.115   3.636  -0.425  0.00  0.00    +0.080 A 
ATOM     16  C   LIG    1       12.371   2.962   0.542  0.00  0.00    -0.060 A 
ATOM     17  C   LIG    1       12.918   2.730   1.802  0.00  0.00    +0.060 A 
ATOM     18  C   LIG    1       14.198   3.159   2.087  0.00  0.00    -0.080 A 
BRANCH  13  20
ATOM     19  C   LIG    1       16.693   3.980   2.717  0.00  0.00    +0.250 C 
ATOM     20  O   LIG    1       16.195   4.257   1.407  0.00  0.00    -0.320 OA
ENDBRANCH  13  20
ENDBRANCH   1  16
BRANCH   6  21
ATOM     21  O   LIG    1        4.772   1.265  -0.036  0.00  0.00    -0.300 OA
BRANCH  21  22
ATOM     22  C   LIG    1        3.674   2.180  -0.021  0.00  0.00    +0.280 C 
BRANCH  22  23
ATOM     23  C   LIG    1        2.379   1.409  -0.013  0.00  0.00    -0.090 A 
ATOM     24  C   LIG    1        2.397   0.028  -0.020  0.00  0.00    +0.050 A 
ATOM     25  C   LIG    1        1.208  -0.679  -0.013  0.00  0.00    +0.020 A 
ATOM     26  C   LIG    1        0.002  -0.004   0.002  0.00  0.00    +0.040 A 
ATOM     27  C   LIG    1       -0.017   1.378   0.010  0.00  0.00    +0.030 A 
ATOM     28  C   LIG    1        1.172   2.086   0.002  0.00  0.00    -0.030 A 
ATOM     29 CL   LIG    1        1.149   3.822   0.011  0.00  0.00    -0.060 Cl
ENDBRANCH  22  23
ENDBRANCH  21  22
ENDBRANCH   6  21
TORSDOF 5
