REMARK  Name = ZINCqH0000037r0J.0
REMARK                            x       y       z     vdW  Elec       q    Type
REMARK                         _______ _______ _______ _____ _____    ______ ____
ROOT
ATOM      1  C   LIG    1        0.770  -1.871  -1.244  0.00  0.00    +0.030 A 
ATOM      2  C   LIG    1        1.455  -2.620  -0.298  0.00  0.00    +0.030 A 
ATOM      3  C   LIG    1        1.445  -4.000  -0.369  0.00  0.00    +0.020 A 
ATOM      4  C   LIG    1        0.750  -4.638  -1.388  0.00  0.00    +0.180 A 
ATOM      5  C   LIG    1        0.064  -3.890  -2.335  0.00  0.00    -0.040 A 
ATOM      6  C   LIG    1        0.069  -2.510  -2.261  0.00  0.00    +0.150 A 
ATOM      7  F   LIG    1       -0.603  -1.781  -3.180  0.00  0.00    -0.120 F 
ENDROOT
BRANCH   1  11
ATOM      8  C   LIG    1        3.518   2.139  -1.431  0.00  0.00    +0.060 C 
ATOM      9  C   LIG    1        2.096   1.585  -1.324  0.00  0.00    +0.160 C 
ATOM     10  C   LIG    1        2.140   0.055  -1.351  0.00  0.00    +0.170 C 
ATOM     11  N   LIG    1        0.780  -0.472  -1.171  0.00  0.00    -0.500 N 
ATOM     12  C   LIG    1        0.205  -0.007   0.099  0.00  0.00    +0.170 C 
ATOM     13  C   LIG    1        0.180   1.524   0.112  0.00  0.00    +0.160 C 
ATOM     14  C   LIG    1       -0.343   2.015   1.463  0.00  0.00    +0.050 C 
ATOM     15  O   LIG    1        1.506   2.018  -0.096  0.00  0.00    -0.380 OA
ENDBRANCH   1  11
BRANCH   4  16
ATOM     16  N   LIG    1        0.742  -6.037  -1.460  0.00  0.00    -0.670 N 
ATOM     17  H   LIG    1        0.713  -6.478  -2.323  0.00  0.00    +0.410 HD
ATOM     18  C   LIG    1        0.773  -6.771  -0.329  0.00  0.00    +0.510 C 
ATOM     19  O   LIG    1        0.712  -6.222   0.751  0.00  0.00    -0.490 OA
BRANCH  18  20
ATOM     20  C   LIG    1        0.884  -8.271  -0.407  0.00  0.00    +0.220 C 
BRANCH  20  21
ATOM     21  O   LIG    1        0.898  -8.818   0.913  0.00  0.00    -0.360 OA
BRANCH  21  22
ATOM     22  C   LIG    1        1.000 -10.242   0.952  0.00  0.00    +0.150 C 
ATOM     23  C   LIG    1       -0.401 -10.855   0.938  0.00  0.00    -0.010 C 
ATOM     24  C   LIG    1       -0.291 -12.381   0.979  0.00  0.00    +0.010 C 
ATOM     25  C   LIG    1        0.438 -12.805   2.256  0.00  0.00    +0.020 C 
ATOM     26  C   LIG    1        1.840 -12.192   2.270  0.00  0.00    +0.010 C 
ATOM     27  C   LIG    1        1.730 -10.666   2.228  0.00  0.00    +0.020 C 
ENDBRANCH  21  22
ENDBRANCH  20  21
ENDBRANCH  18  20
ENDBRANCH   4  16
TORSDOF 5
