REMARK  Name = ZINCqH0000038GF2.0
REMARK                            x       y       z     vdW  Elec       q    Type
REMARK                         _______ _______ _______ _____ _____    ______ ____
ROOT
ATOM      1  N   LIG    1        3.607   2.135  -0.226  0.00  0.00    -0.740 N 
ATOM      2  H   LIG    1        4.117   2.018   0.591  0.00  0.00    +0.400 HD
ATOM      3  C   LIG    1        4.027   3.005  -1.165  0.00  0.00    +0.720 C 
ATOM      4  N   LIG    1        5.157   3.713  -0.970  0.00  0.00    -0.630 N 
ATOM      5  C   LIG    1        6.026   3.635   0.219  0.00  0.00    +0.240 C 
ATOM      6  C   LIG    1        7.417   4.104  -0.276  0.00  0.00    +0.040 C 
ATOM      7  C   LIG    1        7.031   5.225  -1.276  0.00  0.00    +0.040 C 
ATOM      8  C   LIG    1        5.731   4.687  -1.910  0.00  0.00    +0.290 C 
ATOM      9  O   LIG    1        3.388   3.150  -2.189  0.00  0.00    -0.570 OA
ENDROOT
BRANCH   1  15
ATOM     10  C   LIG    1       -3.568   0.539   0.036  0.00  0.00    +0.190 C 
ATOM     11  C   LIG    1       -2.063   0.619   0.024  0.00  0.00    +0.220 A 
ATOM     12  N   LIG    1       -1.361   1.724   0.018  0.00  0.00    -0.310 NA
ATOM     13  N   LIG    1       -0.016   1.343   0.009  0.00  0.00    -0.370 N 
ATOM     14  C   LIG    1        1.170   2.199   0.003  0.00  0.00    +0.310 C 
ATOM     15  C   LIG    1        2.378   1.365  -0.438  0.00  0.00    +0.260 C 
ATOM     16  C   LIG    1        2.436   0.074   0.385  0.00  0.00    +0.040 C 
ATOM     17  C   LIG    1        1.264  -0.832  -0.012  0.00  0.00    +0.180 C 
ATOM     18  C   LIG    1        0.002  -0.004   0.002  0.00  0.00    +0.270 A 
ATOM     19  N   LIG    1       -1.232  -0.425   0.010  0.00  0.00    -0.530 NA
ENDBRANCH   1  15
BRANCH   8  20
ATOM     20  C   LIG    1        4.763   5.821  -2.128  0.00  0.00    -0.070 A 
ATOM     21  C   LIG    1        4.014   6.302  -1.071  0.00  0.00    +0.040 A 
ATOM     22  C   LIG    1        3.129   7.346  -1.269  0.00  0.00    +0.040 A 
ATOM     23  C   LIG    1        2.984   7.901  -2.527  0.00  0.00    -0.030 A 
ATOM     24  C   LIG    1        3.730   7.415  -3.587  0.00  0.00    -0.030 A 
ATOM     25 CL   LIG    1        3.551   8.111  -5.168  0.00  0.00    -0.050 Cl
ATOM     26 CL   LIG    1        1.868   9.207  -2.777  0.00  0.00    -0.050 Cl
ATOM     27  C   LIG    1        4.619   6.374  -3.387  0.00  0.00    +0.060 A 
ENDBRANCH   8  20
TORSDOF 2
