REMARK  Name = ZINCvU0000000IeR.0
REMARK                            x       y       z     vdW  Elec       q    Type
REMARK                         _______ _______ _______ _____ _____    ______ ____
ROOT
ATOM      1  C   LIG    1       -2.449   1.120   0.020  0.00  0.00    +0.270 C 
ENDROOT
BRANCH   1   2
ATOM      2  C   LIG    1       -3.537   1.966   0.630  0.00  0.00    +0.510 C 
ATOM      3  N   LIG    1       -4.789   1.479   0.737  0.00  0.00    -0.630 N 
ATOM      4  H   LIG    1       -4.990   0.584   0.422  0.00  0.00    +0.430 HD
ATOM      5  O   LIG    1       -3.285   3.085   1.024  0.00  0.00    -0.450 OA
BRANCH   3   6
ATOM      6  C   LIG    1       -5.789   2.257   1.298  0.00  0.00    +0.360 A 
ATOM      7  N   LIG    1       -5.625   3.451   1.751  0.00  0.00    -0.470 NA
ATOM      8  C   LIG    1       -6.697   4.084   2.265  0.00  0.00    +0.160 A 
ATOM      9  C   LIG    1       -6.778   5.382   2.813  0.00  0.00    +0.100 A 
ATOM     10  C   LIG    1       -7.970   5.858   3.299  0.00  0.00    +0.120 A 
ATOM     11  C   LIG    1       -9.113   5.073   3.258  0.00  0.00    -0.040 A 
ATOM     12  C   LIG    1       -9.058   3.804   2.727  0.00  0.00    +0.180 A 
ATOM     13  C   LIG    1       -7.857   3.304   2.230  0.00  0.00    -0.200 A 
ATOM     14  S   LIG    1       -7.460   1.750   1.500  0.00  0.00    +0.130 S 
BRANCH  11  15
ATOM     15  N   LIG    1      -10.392   5.600   3.786  0.00  0.00    +0.030 N 
ATOM     16  O   LIG    1      -10.440   6.723   4.256  0.00  0.00    -0.150 OA
ATOM     17  O   LIG    1      -11.395   4.911   3.751  0.00  0.00    -0.160 OA
ENDBRANCH  11  15
ENDBRANCH   3   6
ENDBRANCH   1   2
BRANCH   1  18
ATOM     18  N   LIG    1       -1.191   1.869   0.018  0.00  0.00    -0.710 N 
ATOM     19  H   LIG    1       -1.204   2.839   0.023  0.00  0.00    +0.410 HD
ATOM     20  C   LIG    1       -0.014   1.212   0.009  0.00  0.00    +0.560 C 
ATOM     21  O   LIG    1        0.002  -0.004   0.002  0.00  0.00    -0.500 OA
BRANCH  20  22
ATOM     22  C   LIG    1        1.255   1.967   0.001  0.00  0.00    -0.130 A 
ATOM     23  C   LIG    1        1.239   3.364   0.003  0.00  0.00    +0.090 A 
ATOM     24  C   LIG    1        2.427   4.064   0.001  0.00  0.00    +0.040 A 
ATOM     25  C   LIG    1        3.635   3.385  -0.014  0.00  0.00    +0.000 A 
ATOM     26  C   LIG    1        3.658   2.001  -0.022  0.00  0.00    +0.040 A 
ATOM     27 CL   LIG    1        5.125   4.275  -0.024  0.00  0.00    -0.040 Cl
ATOM     28  C   LIG    1        2.476   1.288  -0.015  0.00  0.00    +0.030 A 
ATOM     29 CL   LIG    1        2.506  -0.448  -0.025  0.00  0.00    -0.010 Cl
ENDBRANCH  20  22
ENDBRANCH   1  18
BRANCH   1  30
ATOM     30  C   LIG    1       -2.830   0.759  -1.417  0.00  0.00    +0.060 C 
BRANCH  30  31
ATOM     31  C   LIG    1       -1.788  -0.201  -1.995  0.00  0.00    +0.100 C 
BRANCH  31  33
ATOM     32  C   LIG    1       -0.909  -1.755  -4.203  0.00  0.00    +0.140 C 
ATOM     33  S   LIG    1       -2.239  -0.629  -3.699  0.00  0.00    -0.270 S 
ENDBRANCH  31  33
ENDBRANCH  30  31
ENDBRANCH   1  30
TORSDOF 8
