REMARK  Name = ZINCkj000005jntR.1
REMARK                            x       y       z     vdW  Elec       q    Type
REMARK                         _______ _______ _______ _____ _____    ______ ____
ROOT
ATOM      1  C   LIG    1       -0.019   1.526   0.010  0.00  0.00    +0.100 C 
ATOM      2  C   LIG    1        0.002  -0.004   0.002  0.00  0.00    +0.140 C 
ATOM      3  C   LIG    1        0.742  -0.511   1.242  0.00  0.00    +0.260 C 
ATOM      4  O   LIG    1        2.099  -0.059   1.200  0.00  0.00    -0.340 OA
ATOM      5  C   LIG    1        2.806  -0.476   0.029  0.00  0.00    +0.160 C 
ATOM      6  C   LIG    1        2.070   0.032  -1.214  0.00  0.00    +0.230 C 
ATOM      7  N   LIG    1        0.692  -0.478  -1.206  0.00  0.00    -0.380 N 
ATOM      8  H   LIG    1        0.706  -1.487  -1.211  0.00  0.00    +0.420 HD
ENDROOT
BRANCH   5   9
ATOM      9  C   LIG    1        4.223   0.102   0.055  0.00  0.00    +0.230 C 
BRANCH   9  10
ATOM     10  O   LIG    1        4.946  -0.458   1.153  0.00  0.00    -0.560 OA
ATOM     11  H   LIG    1        5.854  -0.136   1.231  0.00  0.00    +0.400 HD
ENDBRANCH   9  10
ENDBRANCH   5   9
BRANCH   7  12
ATOM     12  C   LIG    1       -0.017   0.007  -2.397  0.00  0.00    +0.320 C 
BRANCH  12  13
ATOM     13  C   LIG    1        0.617  -0.579  -3.632  0.00  0.00    -0.160 A 
ATOM     14  C   LIG    1        1.502   0.177  -4.375  0.00  0.00    +0.040 A 
ATOM     15  C   LIG    1        2.083  -0.361  -5.509  0.00  0.00    +0.030 A 
ATOM     16  C   LIG    1        1.774  -1.650  -5.895  0.00  0.00    +0.060 A 
ATOM     17  C   LIG    1        0.885  -2.409  -5.151  0.00  0.00    -0.110 A 
ATOM     18  C   LIG    1        0.569  -3.809  -5.609  0.00  0.00    +0.290 C 
ATOM     19  O   LIG    1       -0.048  -4.546  -4.554  0.00  0.00    -0.370 OA
ATOM     20  C   LIG    1       -1.170  -3.870  -3.975  0.00  0.00    +0.240 C 
ATOM     21  C   LIG    1       -0.654  -2.672  -3.176  0.00  0.00    +0.040 C 
ATOM     22  C   LIG    1        0.313  -1.876  -4.015  0.00  0.00    -0.060 A 
ENDBRANCH  12  13
ENDBRANCH   7  12
TORSDOF 4
