REMARK  Name = ZINCkj000005jntR.2
REMARK                            x       y       z     vdW  Elec       q    Type
REMARK                         _______ _______ _______ _____ _____    ______ ____
ROOT
ATOM      1  C   LIG    1        1.256   1.996  -2.372  0.00  0.00    +0.090 C 
ATOM      2  C   LIG    1        0.035   1.074  -2.391  0.00  0.00    +0.140 C 
ATOM      3  C   LIG    1       -0.784   1.338  -3.657  0.00  0.00    +0.270 C 
ATOM      4  O   LIG    1       -1.953   0.513  -3.642  0.00  0.00    -0.340 OA
ATOM      5  C   LIG    1       -2.784   0.716  -2.496  0.00  0.00    +0.230 C 
ATOM      6  C   LIG    1       -1.969   0.452  -1.228  0.00  0.00    +0.250 C 
ATOM      7  N   LIG    1       -0.797   1.338  -1.208  0.00  0.00    -0.390 N 
ATOM      8  H   LIG    1       -1.102   2.300  -1.219  0.00  0.00    +0.410 HD
ENDROOT
BRANCH   5   9
ATOM      9  C   LIG    1       -3.294   2.159  -2.484  0.00  0.00    +0.150 C 
BRANCH   9  10
ATOM     10  O   LIG    1       -4.151   2.371  -3.608  0.00  0.00    -0.550 OA
ATOM     11  H   LIG    1       -4.511   3.266  -3.665  0.00  0.00    +0.400 HD
ENDBRANCH   9  10
ENDBRANCH   5   9
BRANCH   7  12
ATOM     12  C   LIG    1       -0.013   1.086   0.008  0.00  0.00    +0.320 C 
BRANCH  12  13
ATOM     13  C   LIG    1       -0.822   1.476   1.218  0.00  0.00    -0.160 A 
ATOM     14  C   LIG    1       -1.482   0.506   1.946  0.00  0.00    +0.050 A 
ATOM     15  C   LIG    1       -2.220   0.864   3.059  0.00  0.00    +0.030 A 
ATOM     16  C   LIG    1       -2.308   2.191   3.429  0.00  0.00    +0.060 A 
ATOM     17  C   LIG    1       -1.652   3.167   2.694  0.00  0.00    -0.110 A 
ATOM     18  C   LIG    1       -1.780   4.605   3.124  0.00  0.00    +0.290 C 
ATOM     19  O   LIG    1       -0.768   5.398   2.504  0.00  0.00    -0.360 OA
ATOM     20  C   LIG    1       -0.717   5.233   1.082  0.00  0.00    +0.230 C 
ATOM     21  C   LIG    1       -0.169   3.839   0.774  0.00  0.00    +0.040 C 
ATOM     22  C   LIG    1       -0.907   2.809   1.590  0.00  0.00    -0.060 A 
ENDBRANCH  12  13
ENDBRANCH   7  12
TORSDOF 4
