REMARK  Name = ZINCpk00000KfKTi.0
REMARK                            x       y       z     vdW  Elec       q    Type
REMARK                         _______ _______ _______ _____ _____    ______ ____
ROOT
ATOM      1  O   LIG    1        1.133   3.341   2.367  0.00  0.00    -0.510 OA
ATOM      2  C   LIG    1        1.092   4.145   1.460  0.00  0.00    +0.500 C 
ATOM      3  N   LIG    1        1.056   5.465   1.731  0.00  0.00    -0.610 N 
ATOM      4  C   LIG    1        1.013   6.452   0.642  0.00  0.00    +0.270 C 
ATOM      5  C   LIG    1       -0.186   7.384   0.875  0.00  0.00    +0.040 C 
ATOM      6  C   LIG    1       -0.085   7.996   2.274  0.00  0.00    +0.030 C 
ATOM      7  C   LIG    1       -0.130   6.883   3.324  0.00  0.00    +0.260 C 
ATOM      8  C   LIG    1        1.064   5.945   3.119  0.00  0.00    +0.290 C 
ENDROOT
BRANCH   7   9
ATOM      9  N   LIG    1       -0.065   7.471   4.664  0.00  0.00    -0.370 N 
ATOM     10  C   LIG    1        1.044   7.818   5.339  0.00  0.00    +0.470 A 
ATOM     11  N   LIG    1        0.679   8.307   6.496  0.00  0.00    -0.540 NA
ATOM     12  C   LIG    1       -0.649   8.289   6.596  0.00  0.00    +0.420 A 
ATOM     13  N   LIG    1       -1.150   7.791   5.496  0.00  0.00    -0.320 NA
ENDBRANCH   7   9
BRANCH   2  14
ATOM     14  C   LIG    1        1.083   3.669   0.030  0.00  0.00    +0.340 C 
BRANCH  14  15
ATOM     15  N   LIG    1        1.128   2.205   0.003  0.00  0.00    -0.540 N 
ATOM     16  C   LIG    1       -0.018   1.501   0.010  0.00  0.00    +0.530 C 
ATOM     17  C   LIG    1        0.002  -0.004   0.002  0.00  0.00    +0.080 C 
ATOM     18  C   LIG    1        1.176  -0.504  -0.841  0.00  0.00    +0.090 C 
ATOM     19  C   LIG    1        2.432   0.223  -0.437  0.00  0.00    -0.120 A 
ATOM     20  C   LIG    1        3.650  -0.426  -0.470  0.00  0.00    +0.050 A 
ATOM     21  C   LIG    1        4.802   0.245  -0.099  0.00  0.00    -0.010 A 
ATOM     22  C   LIG    1        4.736   1.565   0.306  0.00  0.00    +0.040 A 
ATOM     23  C   LIG    1        3.520   2.219   0.342  0.00  0.00    -0.030 A 
ATOM     24  O   LIG    1       -1.081   2.086   0.018  0.00  0.00    -0.520 OA
ATOM     25  C   LIG    1        2.363   1.549  -0.030  0.00  0.00    +0.170 A 
ENDBRANCH  14  15
ENDBRANCH   2  14
TORSDOF 3
