REMARK  Name = ZINCvU00000008zW.0
REMARK                            x       y       z     vdW  Elec       q    Type
REMARK                         _______ _______ _______ _____ _____    ______ ____
ROOT
ATOM      1  C   LIG    1       -3.019  -1.860  -0.287  0.00  0.00    -0.180 A 
ATOM      2  C   LIG    1       -2.504  -3.154  -0.421  0.00  0.00    +0.120 A 
ATOM      3  C   LIG    1       -1.131  -3.321  -0.394  0.00  0.00    -0.040 A 
ATOM      4  C   LIG    1       -0.312  -2.216  -0.244  0.00  0.00    +0.320 A 
ATOM      5  N   LIG    1       -0.816  -1.003  -0.125  0.00  0.00    -0.480 NA
ATOM      6  C   LIG    1       -2.123  -0.786  -0.143  0.00  0.00    +0.150 A 
ENDROOT
BRANCH   1   8
ATOM      7  O   LIG    1       -4.909  -0.495  -0.190  0.00  0.00    -0.470 OA
ATOM      8  C   LIG    1       -4.474  -1.625  -0.302  0.00  0.00    +0.570 C 
ATOM      9  N   LIG    1       -5.322  -2.663  -0.440  0.00  0.00    -0.640 N 
ATOM     10  H   LIG    1       -4.975  -3.565  -0.530  0.00  0.00    +0.410 HD
BRANCH   9  11
ATOM     11  C   LIG    1       -6.699  -2.442  -0.455  0.00  0.00    +0.310 A 
ATOM     12  C   LIG    1       -7.322  -1.238  -0.334  0.00  0.00    -0.090 A 
ATOM     13  C   LIG    1       -8.700  -1.459  -0.403  0.00  0.00    +0.260 A 
ATOM     14  N   LIG    1       -8.905  -2.743  -0.550  0.00  0.00    -0.280 NA
ATOM     15  N   LIG    1       -7.663  -3.389  -0.586  0.00  0.00    -0.390 N 
BRANCH  15  16
ATOM     16  C   LIG    1       -7.444  -4.829  -0.739  0.00  0.00    +0.450 C 
BRANCH  16  17
ATOM     17  C   LIG    1       -7.408  -5.479   0.621  0.00  0.00    -0.060 A 
ATOM     18  C   LIG    1       -8.468  -5.977   1.282  0.00  0.00    -0.010 A 
ATOM     19  C   LIG    1       -7.982  -6.486   2.509  0.00  0.00    -0.070 A 
ATOM     20  C   LIG    1       -6.655  -6.269   2.523  0.00  0.00    +0.190 A 
ATOM     21  O   LIG    1       -6.312  -5.663   1.374  0.00  0.00    -0.180 OA
ENDBRANCH  16  17
ENDBRANCH  15  16
ENDBRANCH   9  11
ENDBRANCH   1   8
BRANCH   6  22
ATOM     22  S   LIG    1       -2.740   0.856   0.020  0.00  0.00    +0.160 S 
BRANCH  22  23
ATOM     23  C   LIG    1       -1.225   1.756   0.004  0.00  0.00    -0.170 A 
ATOM     24  C   LIG    1       -0.609   2.102   1.200  0.00  0.00    +0.120 A 
ATOM     25  C   LIG    1        0.581   2.803   1.184  0.00  0.00    +0.010 A 
ATOM     26  C   LIG    1        1.157   3.163  -0.020  0.00  0.00    +0.100 A 
ATOM     27  C   LIG    1        0.543   2.825  -1.213  0.00  0.00    -0.190 A 
ATOM     28  C   LIG    1       -0.647   2.125  -1.204  0.00  0.00    +0.130 A 
BRANCH  27  29
ATOM     29  C   LIG    1        1.175   3.220  -2.523  0.00  0.00    +0.510 C 
ATOM     30  F   LIG    1        0.294   4.041  -3.236  0.00  0.00    -0.170 F 
ATOM     31  F   LIG    1        1.452   2.072  -3.272  0.00  0.00    -0.180 F 
ATOM     32  F   LIG    1        2.364   3.914  -2.277  0.00  0.00    -0.180 F 
ENDBRANCH  27  29
ENDBRANCH  22  23
ENDBRANCH   6  22
TORSDOF 7
