REMARK  Name = ZINCpk000000mO0k.0
REMARK                            x       y       z     vdW  Elec       q    Type
REMARK                         _______ _______ _______ _____ _____    ______ ____
ROOT
ATOM      1  C   LIG    1       -4.898   2.254  -0.160  0.00  0.00    +0.220 C 
ENDROOT
BRANCH   1   2
ATOM      2  O   LIG    1       -4.537   1.025  -0.794  0.00  0.00    -0.540 OA
ATOM      3  H   LIG    1       -4.897   0.239  -0.360  0.00  0.00    +0.380 HD
ENDBRANCH   1   2
BRANCH   1   4
ATOM      4  C   LIG    1       -6.421   2.398  -0.155  0.00  0.00    +0.180 C 
BRANCH   4   5
ATOM      5  O   LIG    1       -6.893   2.513  -1.499  0.00  0.00    -0.290 OA
BRANCH   5   9
ATOM      6  C   LIG    1      -10.968   2.926  -2.025  0.00  0.00    -0.070 A 
ATOM      7  C   LIG    1      -10.443   2.809  -0.752  0.00  0.00    +0.020 A 
ATOM      8  C   LIG    1       -9.079   2.665  -0.574  0.00  0.00    -0.040 A 
ATOM      9  C   LIG    1       -8.235   2.649  -1.672  0.00  0.00    +0.100 A 
ATOM     10  C   LIG    1       -8.764   2.766  -2.954  0.00  0.00    +0.100 A 
ATOM     11  C   LIG    1      -10.132   2.905  -3.126  0.00  0.00    -0.030 A 
BRANCH  10  12
ATOM     12  O   LIG    1       -7.941   2.745  -4.036  0.00  0.00    -0.300 OA
ATOM     13  C   LIG    1       -8.553   2.871  -5.321  0.00  0.00    +0.230 C 
ENDBRANCH  10  12
BRANCH   6  14
ATOM     14  C   LIG    1      -12.456   3.076  -2.213  0.00  0.00    +0.110 C 
BRANCH  14  16
ATOM     15  C   LIG    1      -14.064   1.362  -1.554  0.00  0.00    +0.010 C 
ATOM     16  C   LIG    1      -13.085   1.714  -2.350  0.00  0.00    -0.040 C 
ENDBRANCH  14  16
ENDBRANCH   6  14
ENDBRANCH   5   9
ENDBRANCH   4   5
ENDBRANCH   1   4
BRANCH   1  17
ATOM     17  C   LIG    1       -4.381   2.256   1.280  0.00  0.00    +0.300 C 
BRANCH  17  18
ATOM     18  N   LIG    1       -2.916   2.239   1.273  0.00  0.00    -0.570 N 
ATOM     19  C   LIG    1       -2.151   3.337   1.263  0.00  0.00    +0.700 C 
ATOM     20  N   LIG    1       -0.837   3.048   1.259  0.00  0.00    -0.720 N 
ATOM     21  H   LIG    1       -0.104   3.684   1.252  0.00  0.00    +0.440 HD
ATOM     22  C   LIG    1       -0.729   1.579   1.267  0.00  0.00    +0.120 C 
ATOM     23  C   LIG    1        0.002   1.100   2.523  0.00  0.00    +0.090 C 
ATOM     24  C   LIG    1       -0.013   1.086   0.008  0.00  0.00    +0.090 C 
ATOM     25  O   LIG    1       -2.594   4.469   1.259  0.00  0.00    -0.540 OA
ATOM     26  C   LIG    1       -2.171   1.112   1.278  0.00  0.00    +0.540 C 
ATOM     27  O   LIG    1       -2.570  -0.033   1.287  0.00  0.00    -0.450 OA
ENDBRANCH  17  18
ENDBRANCH   1  17
TORSDOF 9
