REMARK  Name = ZINCpk00000ebMDm.0
REMARK                            x       y       z     vdW  Elec       q    Type
REMARK                         _______ _______ _______ _____ _____    ______ ____
ROOT
ATOM      1  C   LIG    1        2.272   0.009  -1.045  0.00  0.00    +0.030 C 
ATOM      2  C   LIG    1        0.834  -0.492  -1.186  0.00  0.00    +0.050 C 
ATOM      3  C   LIG    1        0.002  -0.004   0.002  0.00  0.00    +0.020 C 
ATOM      4  C   LIG    1       -0.019   1.528   0.010  0.00  0.00    +0.270 C 
ATOM      5  N   LIG    1        1.366   2.019  -0.000  0.00  0.00    -0.610 N 
ATOM      6  C   LIG    1        1.792   2.892   0.934  0.00  0.00    +0.520 C 
ATOM      7  O   LIG    1        2.937   3.291   0.915  0.00  0.00    -0.520 OA
ATOM      8  C   LIG    1        2.277   1.541  -1.048  0.00  0.00    +0.310 C 
ENDROOT
BRANCH   1   9
ATOM      9  C   LIG    1        3.098  -0.499  -2.199  0.00  0.00    +0.460 C 
ATOM     10  O   LIG    1        2.588  -1.192  -3.047  0.00  0.00    -0.480 OA
BRANCH   9  11
ATOM     11  O   LIG    1        4.400  -0.182  -2.284  0.00  0.00    -0.330 OA
BRANCH  11  17
ATOM     12  O   LIG    1        5.257  -3.105  -3.054  0.00  0.00    -0.420 OA
ATOM     13  C   LIG    1        5.793  -2.023  -3.064  0.00  0.00    +0.470 C 
ATOM     14  O   LIG    1        7.080  -1.776  -2.758  0.00  0.00    -0.340 OA
ATOM     15  C   LIG    1        7.545  -0.666  -3.584  0.00  0.00    +0.260 C 
ATOM     16  C   LIG    1        6.303   0.233  -3.788  0.00  0.00    +0.070 C 
ATOM     17  C   LIG    1        5.133  -0.707  -3.422  0.00  0.00    +0.160 C 
ENDBRANCH  11  17
ENDBRANCH   9  11
ENDBRANCH   1   9
BRANCH   6  18
ATOM     18  C   LIG    1        0.845   3.373   2.003  0.00  0.00    +0.120 C 
BRANCH  18  19
ATOM     19  C   LIG    1        1.563   4.334   2.916  0.00  0.00    -0.080 A 
ATOM     20  C   LIG    1        2.217   3.863   4.039  0.00  0.00    +0.050 A 
ATOM     21  C   LIG    1        2.880   4.743   4.873  0.00  0.00    -0.010 A 
ATOM     22  C   LIG    1        2.881   6.098   4.589  0.00  0.00    +0.100 A 
ATOM     23  C   LIG    1        2.221   6.569   3.467  0.00  0.00    -0.010 A 
ATOM     24  F   LIG    1        3.525   6.959   5.406  0.00  0.00    -0.140 F 
ATOM     25  C   LIG    1        1.562   5.687   2.631  0.00  0.00    +0.050 A 
ENDBRANCH  18  19
ENDBRANCH   6  18
TORSDOF 5
