REMARK  Name = ZINCrH000004tGEy.0
REMARK                            x       y       z     vdW  Elec       q    Type
REMARK                         _______ _______ _______ _____ _____    ______ ____
ROOT
ATOM      1  O   LIG    1        3.515  -4.404  -1.807  0.00  0.00    -0.530 OA
ATOM      2  C   LIG    1        3.631  -3.480  -2.584  0.00  0.00    +0.520 C 
ATOM      3  N   LIG    1        3.718  -3.719  -3.908  0.00  0.00    -0.730 N 
ATOM      4  H   LIG    1        3.811  -2.980  -4.529  0.00  0.00    +0.400 HD
ENDROOT
BRANCH   3   5
ATOM      5  C   LIG    1        3.673  -5.095  -4.408  0.00  0.00    +0.300 C 
BRANCH   5   6
ATOM      6  C   LIG    1        3.790  -5.087  -5.934  0.00  0.00    +0.070 C 
BRANCH   6   7
ATOM      7  S   LIG    1        3.734  -6.791  -6.553  0.00  0.00    -0.220 S 
BRANCH   7   8
ATOM      8  C   LIG    1        3.885  -6.577  -8.348  0.00  0.00    +0.140 C 
BRANCH   8   9
ATOM      9  C   LIG    1        3.854  -7.926  -9.019  0.00  0.00    -0.110 A 
ATOM     10  C   LIG    1        2.650  -8.473  -9.418  0.00  0.00    +0.070 A 
ATOM     11  C   LIG    1        2.621  -9.710 -10.034  0.00  0.00    +0.000 A 
ATOM     12  C   LIG    1        3.798 -10.403 -10.250  0.00  0.00    +0.060 A 
ATOM     13  C   LIG    1        5.004  -9.859  -9.851  0.00  0.00    -0.010 A 
ATOM     14  C   LIG    1        5.034  -8.617  -9.241  0.00  0.00    +0.120 A 
ATOM     15  F   LIG    1        6.213  -8.081  -8.857  0.00  0.00    -0.130 F 
ENDBRANCH   8   9
ENDBRANCH   7   8
ENDBRANCH   6   7
ENDBRANCH   5   6
ENDBRANCH   3   5
BRANCH   2  16
ATOM     16  C   LIG    1        3.678  -2.064  -2.069  0.00  0.00    +0.040 C 
BRANCH  16  17
ATOM     17  C   LIG    1        3.560  -2.073  -0.544  0.00  0.00    +0.330 C 
BRANCH  17  18
ATOM     18  N   LIG    1        3.605  -0.697  -0.043  0.00  0.00    -0.540 N 
ATOM     19  C   LIG    1        2.459  -0.019  -0.029  0.00  0.00    +0.520 C 
ATOM     20  C   LIG    1        2.338   1.394   0.470  0.00  0.00    +0.150 C 
ATOM     21  S   LIG    1        3.480   1.629   1.865  0.00  0.00    -0.080 S 
ATOM     22  C   LIG    1        4.948   0.857   1.264  0.00  0.00    -0.130 A 
ATOM     23  C   LIG    1        6.191   1.313   1.669  0.00  0.00    +0.080 A 
ATOM     24  C   LIG    1        7.338   0.706   1.191  0.00  0.00    +0.010 A 
ATOM     25  C   LIG    1        7.241  -0.354   0.310  0.00  0.00    +0.050 A 
ATOM     26  C   LIG    1        6.004  -0.815  -0.097  0.00  0.00    -0.010 A 
ATOM     27  O   LIG    1        1.461  -0.571  -0.440  0.00  0.00    -0.510 OA
ATOM     28  C   LIG    1        4.843  -0.215   0.376  0.00  0.00    +0.160 A 
ENDBRANCH  17  18
ENDBRANCH  16  17
ENDBRANCH   2  16
TORSDOF 8
