REMARK  Name = ZINCqH0000004Soe.0
REMARK                            x       y       z     vdW  Elec       q    Type
REMARK                         _______ _______ _______ _____ _____    ______ ____
ROOT
ATOM      1  N   LIG    1        3.466   0.653  -0.027  0.00  0.00    -0.700 N 
ATOM      2  H   LIG    1        3.964   1.486  -0.027  0.00  0.00    +0.420 HD
ENDROOT
BRANCH   1   3
ATOM      3  C   LIG    1        2.066   0.673  -0.014  0.00  0.00    +0.430 A 
ATOM      4  C   LIG    1        1.289   1.786  -0.001  0.00  0.00    -0.110 A 
ATOM      5  N   LIG    1       -0.017   1.366   0.010  0.00  0.00    -0.330 N 
ATOM      6  C   LIG    1       -1.202   2.042   0.029  0.00  0.00    +0.220 A 
ATOM      7  C   LIG    1       -2.374   1.372   0.033  0.00  0.00    +0.030 A 
ATOM      8  C   LIG    1       -2.388  -0.032   0.025  0.00  0.00    +0.090 A 
ATOM      9  C   LIG    1       -1.212  -0.717   0.010  0.00  0.00    +0.070 A 
ATOM     10  C   LIG    1        0.002  -0.004   0.002  0.00  0.00    +0.310 A 
ATOM     11  N   LIG    1        1.268  -0.401  -0.012  0.00  0.00    -0.520 NA
BRANCH   4  12
ATOM     12  N   LIG    1        1.763   3.195   0.002  0.00  0.00    +0.050 N 
ATOM     13  O   LIG    1        1.948   3.777  -1.051  0.00  0.00    -0.120 OA
ATOM     14  O   LIG    1        1.968   3.766   1.058  0.00  0.00    -0.120 OA
ENDBRANCH   4  12
ENDBRANCH   1   3
BRANCH   1  15
ATOM     15  C   LIG    1        4.180  -0.627  -0.041  0.00  0.00    +0.360 C 
ATOM     16  C   LIG    1        4.332  -1.141   1.392  0.00  0.00    +0.060 C 
BRANCH  15  25
ATOM     17  N   LIG    1        6.109  -1.262  -1.573  0.00  0.00    -0.480 N 
ATOM     18  C   LIG    1        7.351  -0.745  -1.883  0.00  0.00    +0.050 A 
ATOM     19  C   LIG    1        8.374  -1.133  -2.736  0.00  0.00    +0.010 A 
ATOM     20  C   LIG    1        9.525  -0.378  -2.811  0.00  0.00    +0.030 A 
ATOM     21  C   LIG    1        9.666   0.766  -2.039  0.00  0.00    +0.000 A 
ATOM     22  C   LIG    1        8.669   1.164  -1.193  0.00  0.00    +0.070 A 
ATOM     23  C   LIG    1        7.494   0.414  -1.101  0.00  0.00    +0.050 A 
ATOM     24  N   LIG    1        6.355   0.544  -0.374  0.00  0.00    -0.480 NA
ATOM     25  C   LIG    1        5.544  -0.434  -0.653  0.00  0.00    +0.270 A 
BRANCH  17  27
ATOM     26  C   LIG    1        4.714  -2.118  -3.390  0.00  0.00    +0.030 C 
ATOM     27  C   LIG    1        5.509  -2.476  -2.133  0.00  0.00    +0.300 C 
ENDBRANCH  17  27
ENDBRANCH  15  25
ENDBRANCH   1  15
TORSDOF 5
