REMARK  Name = ZINCnE000001D5DY.0
REMARK                            x       y       z     vdW  Elec       q    Type
REMARK                         _______ _______ _______ _____ _____    ______ ____
ROOT
ATOM      1  N   LIG    1        2.402   1.104  -0.015  0.00  0.00    -1.060 N 
ATOM      2  H   LIG    1        2.562   0.377   0.607  0.00  0.00    +0.420 HD
ENDROOT
BRANCH   1   6
ATOM      3  C   LIG    1       -1.200   3.189   0.100  0.00  0.00    -0.080 A 
ATOM      4  C   LIG    1       -1.202   1.806   0.138  0.00  0.00    +0.020 A 
ATOM      5  C   LIG    1       -0.009   1.112   0.105  0.00  0.00    -0.010 A 
ATOM      6  C   LIG    1        1.194   1.803   0.024  0.00  0.00    +0.140 A 
ATOM      7  C   LIG    1        1.191   3.192  -0.018  0.00  0.00    +0.020 A 
ATOM      8  C   LIG    1       -0.006   3.880   0.020  0.00  0.00    +0.040 A 
BRANCH   3  10
ATOM      9  C   LIG    1       -2.647   4.784  -1.130  0.00  0.00    +0.040 C 
ATOM     10  C   LIG    1       -2.504   3.943   0.141  0.00  0.00    -0.030 C 
ATOM     11  C   LIG    1       -2.525   4.861   1.364  0.00  0.00    +0.030 C 
ATOM     12  C   LIG    1       -3.665   2.951   0.228  0.00  0.00    +0.040 C 
ENDBRANCH   3  10
ENDBRANCH   1   6
BRANCH   1  13
ATOM     13  S   LIG    1        3.562   1.516  -1.123  0.00  0.00    +2.690 S 
ATOM     14  O   LIG    1        4.606   0.562  -0.985  0.00  0.00    -0.960 OA
ATOM     15  O   LIG    1        3.766   2.916  -0.987  0.00  0.00    -0.950 OA
BRANCH  13  16
ATOM     16  C   LIG    1        2.868   1.267  -2.723  0.00  0.00    -0.690 A 
ATOM     17  C   LIG    1        2.909   0.013  -3.305  0.00  0.00    +0.100 A 
ATOM     18  C   LIG    1        2.361  -0.193  -4.559  0.00  0.00    -0.030 A 
ATOM     19  C   LIG    1        1.779   0.854  -5.242  0.00  0.00    +0.100 A 
ATOM     20  C   LIG    1        1.738   2.124  -4.662  0.00  0.00    -0.150 A 
ATOM     21  C   LIG    1        2.288   2.324  -3.393  0.00  0.00    +0.160 A 
BRANCH  20  22
ATOM     22  C   LIG    1        1.117   3.250  -5.386  0.00  0.00    +0.520 C 
ATOM     23  O   LIG    1        0.636   3.072  -6.496  0.00  0.00    -0.680 OA
ATOM     24  O   LIG    1        1.083   4.361  -4.876  0.00  0.00    -0.680 OA
ENDBRANCH  20  22
ENDBRANCH  13  16
ENDBRANCH   1  13
TORSDOF 5
