REMARK  Name = ZINCqH00000015qN.0
REMARK                            x       y       z     vdW  Elec       q    Type
REMARK                         _______ _______ _______ _____ _____    ______ ____
ROOT
ATOM      1  C   LIG    1        1.180   1.787   0.000  0.00  0.00    +0.240 A 
ATOM      2  C   LIG    1       -0.013   1.076   0.008  0.00  0.00    -0.050 A 
ATOM      3  C   LIG    1       -1.218   1.751   0.017  0.00  0.00    +0.080 A 
ATOM      4  C   LIG    1       -1.237   3.134   0.030  0.00  0.00    -0.090 A 
ATOM      5  C   LIG    1       -0.050   3.846   0.023  0.00  0.00    +0.080 A 
ATOM      6 CL   LIG    1       -2.753   3.979   0.049  0.00  0.00    -0.070 Cl
ATOM      7  C   LIG    1        1.158   3.176   0.008  0.00  0.00    -0.170 A 
ENDROOT
BRANCH   1   8
ATOM      8  N   LIG    1        2.401   1.107  -0.015  0.00  0.00    -0.740 N 
ATOM      9  H   LIG    1        3.233   1.605  -0.020  0.00  0.00    +0.400 HD
BRANCH   8  10
ATOM     10  C   LIG    1        2.423  -0.358  -0.022  0.00  0.00    +0.420 C 
BRANCH  10  14
ATOM     11  N   LIG    1        5.742  -1.473  -0.700  0.00  0.00    -0.120 N 
ATOM     12  N   LIG    1        5.764  -1.484   0.588  0.00  0.00    -0.060 NA
ATOM     13  N   LIG    1        4.614  -1.098   1.025  0.00  0.00    -0.270 NA
ATOM     14  C   LIG    1        3.851  -0.839  -0.038  0.00  0.00    +0.140 A 
ATOM     15  N   LIG    1        4.579  -1.087  -1.099  0.00  0.00    -0.280 NA
BRANCH  11  17
ATOM     16  C   LIG    1        8.060  -2.254  -0.716  0.00  0.00    +0.090 C 
ATOM     17  C   LIG    1        6.859  -1.847  -1.572  0.00  0.00    +0.180 C 
ATOM     18  C   LIG    1        7.239  -0.656  -2.452  0.00  0.00    +0.080 C 
ATOM     19  C   LIG    1        6.442  -3.024  -2.457  0.00  0.00    +0.080 C 
ENDBRANCH  11  17
ENDBRANCH  10  14
ENDBRANCH   8  10
ENDBRANCH   1   8
BRANCH   7  20
ATOM     20  C   LIG    1        2.450   3.951   0.000  0.00  0.00    +0.310 C 
BRANCH  20  21
ATOM     21  C   LIG    1        2.931   4.111  -1.419  0.00  0.00    -0.110 A 
ATOM     22  C   LIG    1        2.453   5.148  -2.198  0.00  0.00    +0.010 A 
ATOM     23  C   LIG    1        2.897   5.297  -3.499  0.00  0.00    +0.020 A 
ATOM     24  C   LIG    1        3.814   4.404  -4.022  0.00  0.00    +0.000 A 
ATOM     25  C   LIG    1        4.289   3.365  -3.244  0.00  0.00    +0.010 A 
ATOM     26  C   LIG    1        3.847   3.219  -1.942  0.00  0.00    +0.000 A 
ENDBRANCH  20  21
BRANCH  20  27
ATOM     27  O   LIG    1        2.235   5.240   0.579  0.00  0.00    -0.540 OA
ATOM     28  H   LIG    1        1.578   5.776   0.113  0.00  0.00    +0.380 HD
ENDBRANCH  20  27
ENDBRANCH   7  20
TORSDOF 7
