REMARK  Name = ZINCrH000004qPqD.0
REMARK                            x       y       z     vdW  Elec       q    Type
REMARK                         _______ _______ _______ _____ _____    ______ ____
ROOT
ATOM      1  C   LIG    1       -1.256  -0.754   0.010  0.00  0.00    +0.270 C 
ATOM      2  C   LIG    1       -1.030  -2.135  -0.610  0.00  0.00    +0.040 C 
ATOM      3  C   LIG    1       -2.271  -2.995  -0.344  0.00  0.00    +0.050 C 
ATOM      4  C   LIG    1       -2.362  -3.273   1.157  0.00  0.00    +0.260 C 
ATOM      5  N   LIG    1       -2.252  -2.032   1.913  0.00  0.00    -0.600 N 
ATOM      6  C   LIG    1       -1.740  -0.901   1.424  0.00  0.00    +0.500 C 
ATOM      7  O   LIG    1       -1.662   0.059   2.161  0.00  0.00    -0.530 OA
ENDROOT
BRANCH   1   8
ATOM      8  N   LIG    1        0.002  -0.004   0.002  0.00  0.00    -0.700 N 
ATOM      9  H   LIG    1        0.849  -0.478  -0.009  0.00  0.00    +0.410 HD
BRANCH   8  13
ATOM     10  C   LIG    1       -2.475   4.249   0.047  0.00  0.00    +0.130 C 
ATOM     11  C   LIG    1       -1.195   3.455   0.031  0.00  0.00    +0.200 A 
ATOM     12  C   LIG    1       -1.229   2.074   0.019  0.00  0.00    -0.150 A 
ATOM     13  C   LIG    1       -0.017   1.381   0.010  0.00  0.00    +0.450 A 
ATOM     14  N   LIG    1        1.119   2.072   0.003  0.00  0.00    -0.580 NA
ATOM     15  C   LIG    1        1.105   3.390   0.009  0.00  0.00    +0.360 A 
ATOM     16  C   LIG    1        2.414   4.137   0.001  0.00  0.00    +0.180 C 
ATOM     17  N   LIG    1       -0.022   4.072   0.023  0.00  0.00    -0.560 NA
ENDBRANCH   8  13
ENDBRANCH   1   8
BRANCH   5  18
ATOM     18  C   LIG    1       -2.732  -2.026   3.297  0.00  0.00    +0.340 C 
BRANCH  18  19
ATOM     19  C   LIG    1       -1.606  -2.413   4.221  0.00  0.00    -0.110 A 
ATOM     20  C   LIG    1       -0.779  -1.440   4.748  0.00  0.00    +0.080 A 
ATOM     21  C   LIG    1        0.254  -1.795   5.596  0.00  0.00    +0.020 A 
ATOM     22  C   LIG    1        0.459  -3.123   5.917  0.00  0.00    +0.070 A 
ATOM     23  C   LIG    1       -0.370  -4.097   5.391  0.00  0.00    -0.190 A 
ATOM     24  C   LIG    1       -1.405  -3.742   4.546  0.00  0.00    +0.070 A 
BRANCH  23  25
ATOM     25  C   LIG    1       -0.147  -5.546   5.741  0.00  0.00    +0.510 C 
ATOM     26  F   LIG    1        0.108  -6.274   4.575  0.00  0.00    -0.180 F 
ATOM     27  F   LIG    1       -1.290  -6.055   6.368  0.00  0.00    -0.180 F 
ATOM     28  F   LIG    1        0.947  -5.653   6.607  0.00  0.00    -0.180 F 
ENDBRANCH  23  25
ENDBRANCH  18  19
ENDBRANCH   5  18
TORSDOF 5
