REMARK  Name = ZINCrH000004rZKK.2
REMARK                            x       y       z     vdW  Elec       q    Type
REMARK                         _______ _______ _______ _____ _____    ______ ____
ROOT
ATOM      1  N   LIG    1        6.875   0.329   2.148  0.00  0.00    -0.510 NA
ATOM      2  C   LIG    1        6.705  -0.811   1.238  0.00  0.00    +0.180 C 
ATOM      3  C   LIG    1        6.555  -2.098   2.053  0.00  0.00    +0.030 C 
ATOM      4  C   LIG    1        5.341  -1.972   2.977  0.00  0.00    +0.020 C 
ATOM      5  C   LIG    1        5.521  -0.750   3.881  0.00  0.00    +0.010 C 
ATOM      6  C   LIG    1        5.701   0.498   3.013  0.00  0.00    +0.170 C 
ENDROOT
BRANCH   1   7
ATOM      7  C   LIG    1        7.161   1.561   1.400  0.00  0.00    +0.310 C 
ATOM      8  C   LIG    1        8.360   1.332   0.478  0.00  0.00    +0.080 C 
BRANCH   7  12
ATOM      9  C   LIG    1        4.382   2.992  -0.374  0.00  0.00    +0.220 A 
ATOM     10  N   LIG    1        4.324   1.730  -0.712  0.00  0.00    -0.370 NA
ATOM     11  O   LIG    1        5.220   1.113  -0.176  0.00  0.00    +0.080 OA
ATOM     12  C   LIG    1        5.957   1.937   0.575  0.00  0.00    +0.160 A 
ATOM     13  N   LIG    1        5.437   3.134   0.460  0.00  0.00    -0.470 NA
BRANCH   9  20
ATOM     14  C   LIG    1        2.219   2.365  -2.190  0.00  0.00    +0.100 C 
ATOM     15  C   LIG    1        2.420   3.775  -1.700  0.00  0.00    -0.050 A 
ATOM     16  C   LIG    1        1.567   4.779  -2.113  0.00  0.00    +0.000 A 
ATOM     17  C   LIG    1        1.755   6.076  -1.669  0.00  0.00    +0.040 A 
ATOM     18  C   LIG    1        2.793   6.373  -0.805  0.00  0.00    +0.000 A 
ATOM     19  C   LIG    1        3.649   5.375  -0.381  0.00  0.00    +0.060 A 
ATOM     20  C   LIG    1        3.465   4.068  -0.826  0.00  0.00    -0.030 A 
ENDBRANCH   9  20
ENDBRANCH   7  12
ENDBRANCH   1   7
BRANCH   5  21
ATOM     21  C   LIG    1        4.285  -0.583   4.767  0.00  0.00    +0.050 C 
BRANCH  21  22
ATOM     22  C   LIG    1        4.162  -1.788   5.702  0.00  0.00    -0.080 C 
ATOM     23  C   LIG    1        3.047  -1.532   6.719  0.00  0.00    +0.050 C 
ATOM     24  C   LIG    1        5.486  -1.999   6.439  0.00  0.00    +0.050 C 
BRANCH  22  25
ATOM     25  C   LIG    1        3.833  -3.017   4.896  0.00  0.00    +0.530 C 
ATOM     26  O   LIG    1        3.081  -2.938   3.948  0.00  0.00    -0.540 OA
ATOM     27  N   LIG    1        4.376  -4.206   5.228  0.00  0.00    -0.860 N 
ATOM     28  H   LIG    1        4.164  -4.997   4.709  0.00  0.00    +0.400 HD
ATOM     29  H   LIG    1        4.977  -4.269   5.986  0.00  0.00    +0.400 HD
ENDBRANCH  22  25
ENDBRANCH  21  22
ENDBRANCH   5  21
TORSDOF 6
