REMARK  Name = ZINCnE000001TDSa.0
REMARK                            x       y       z     vdW  Elec       q    Type
REMARK                         _______ _______ _______ _____ _____    ______ ____
ROOT
ATOM      1  N   LIG    1       -0.900   1.880  -1.312  0.00  0.00    -0.950 N 
ENDROOT
BRANCH   1   2
ATOM      2  C   LIG    1       -0.788   3.182  -1.806  0.00  0.00    +0.150 A 
ATOM      3  C   LIG    1       -0.552   3.395  -3.158  0.00  0.00    +0.010 A 
ATOM      4  C   LIG    1       -0.446   4.684  -3.644  0.00  0.00    +0.020 A 
ATOM      5  C   LIG    1       -0.565   5.760  -2.784  0.00  0.00    +0.000 A 
ATOM      6  C   LIG    1       -0.795   5.551  -1.437  0.00  0.00    +0.030 A 
ATOM      7  C   LIG    1       -0.907   4.265  -0.945  0.00  0.00    -0.010 A 
ENDBRANCH   1   2
BRANCH   1   8
ATOM      8  S   LIG    1        0.203   1.312  -0.216  0.00  0.00    +2.720 S 
ATOM      9  O   LIG    1        1.435   1.955  -0.516  0.00  0.00    -0.950 OA
ATOM     10  O   LIG    1        0.051  -0.101  -0.188  0.00  0.00    -0.950 OA
BRANCH   8  14
ATOM     11  C   LIG    1       -1.340   1.960   3.432  0.00  0.00    -0.180 A 
ATOM     12  C   LIG    1       -0.676   3.148   3.499  0.00  0.00    +0.000 A 
ATOM     13  S   LIG    1        0.236   3.412   2.084  0.00  0.00    +0.200 S 
ATOM     14  C   LIG    1       -0.289   1.897   1.371  0.00  0.00    -0.830 A 
ATOM     15  C   LIG    1       -1.104   1.251   2.194  0.00  0.00    +0.220 A 
BRANCH  11  17
ATOM     16  O   LIG    1       -2.770   0.375   4.376  0.00  0.00    -0.680 OA
ATOM     17  C   LIG    1       -2.204   1.452   4.504  0.00  0.00    +0.540 C 
ATOM     18  O   LIG    1       -2.358   2.107   5.527  0.00  0.00    -0.680 OA
ENDBRANCH  11  17
ENDBRANCH   8  14
ENDBRANCH   1   8
BRANCH   1  19
ATOM     19  C   LIG    1       -1.994   1.017  -1.764  0.00  0.00    +0.310 C 
BRANCH  19  20
ATOM     20  C   LIG    1       -3.240   1.288  -0.919  0.00  0.00    -0.040 C 
ATOM     21  C   LIG    1       -3.287   0.477   0.387  0.00  0.00    +0.010 C 
ATOM     22  C   LIG    1       -4.792   0.290   0.122  0.00  0.00    +0.020 C 
ATOM     23  C   LIG    1       -4.476   0.490  -1.369  0.00  0.00    +0.020 C 
ENDBRANCH  19  20
ENDBRANCH   1  19
TORSDOF 6
