REMARK  Name = ZINCtV00001bB3ib.0
REMARK                            x       y       z     vdW  Elec       q    Type
REMARK                         _______ _______ _______ _____ _____    ______ ____
ROOT
ATOM      1  C   LIG    1       -7.085  -0.909  -7.010  0.00  0.00    +0.590 C 
ATOM      2  N   LIG    1       -6.242  -0.598  -6.006  0.00  0.00    -0.610 N 
ATOM      3  C   LIG    1       -4.948  -1.282  -5.876  0.00  0.00    +0.270 C 
ATOM      4  C   LIG    1       -4.835  -1.859  -4.461  0.00  0.00    +0.040 C 
ATOM      5  C   LIG    1       -5.061  -0.742  -3.440  0.00  0.00    +0.100 C 
ATOM      6  C   LIG    1       -6.467  -0.165  -3.615  0.00  0.00    +0.040 C 
ATOM      7  C   LIG    1       -6.599   0.431  -5.020  0.00  0.00    +0.300 C 
ATOM      8  O   LIG    1       -8.202  -0.427  -7.038  0.00  0.00    -0.510 OA
ENDROOT
BRANCH   1  15
ATOM      9  C   LIG    1       -3.519  -5.124 -11.995  0.00  0.00    +0.100 C 
ATOM     10  C   LIG    1       -4.626  -4.486 -11.197  0.00  0.00    -0.040 A 
ATOM     11  C   LIG    1       -5.947  -4.816 -11.467  0.00  0.00    +0.010 A 
ATOM     12  C   LIG    1       -6.966  -4.249 -10.756  0.00  0.00    +0.030 A 
ATOM     13  C   LIG    1       -6.677  -3.324  -9.742  0.00  0.00    -0.120 A 
ATOM     14  C   LIG    1       -7.482  -2.583  -8.844  0.00  0.00    +0.070 A 
ATOM     15  C   LIG    1       -6.655  -1.830  -8.073  0.00  0.00    +0.020 A 
ATOM     16  N   LIG    1       -5.346  -2.072  -8.441  0.00  0.00    -0.580 N 
ATOM     17  H   LIG    1       -4.562  -1.663  -8.043  0.00  0.00    +0.420 HD
ATOM     18  C   LIG    1       -5.337  -2.988  -9.467  0.00  0.00    +0.130 A 
ATOM     19 CL   LIG    1       -8.613  -4.671 -11.105  0.00  0.00    -0.060 Cl
ATOM     20  C   LIG    1       -4.317  -3.580 -10.206  0.00  0.00    +0.000 A 
ENDBRANCH   1  15
BRANCH   5  21
ATOM     21  C   LIG    1       -4.917  -1.299  -2.047  0.00  0.00    +0.050 A 
ATOM     22  N   LIG    1       -4.051  -0.899  -1.177  0.00  0.00    -0.460 NA
ATOM     23  C   LIG    1       -4.061  -1.495  -0.002  0.00  0.00    +0.080 A 
ATOM     24  C   LIG    1       -4.982  -2.454   0.126  0.00  0.00    -0.060 A 
ATOM     25  S   LIG    1       -5.877  -2.552  -1.390  0.00  0.00    +0.140 S 
BRANCH  23  26
ATOM     26  C   LIG    1       -3.106  -1.129   1.105  0.00  0.00    +0.110 C 
ATOM     27  C   LIG    1       -2.613  -2.257   2.014  0.00  0.00    +0.120 C 
ATOM     28  C   LIG    1       -3.619  -1.232   2.544  0.00  0.00    +0.000 C 
ATOM     29 CL   LIG    1       -3.019  -0.014   3.730  0.00  0.00    -0.080 Cl
ATOM     30 CL   LIG    1       -5.319  -1.782   2.785  0.00  0.00    -0.080 Cl
ENDBRANCH  23  26
ENDBRANCH   5  21
TORSDOF 3
