REMARK  Name = ZINCAx0000000btj.0
REMARK                            x       y       z     vdW  Elec       q    Type
REMARK                         _______ _______ _______ _____ _____    ______ ____
ROOT
ATOM      1  C   LIG    1       -4.479  -4.041  -3.024  0.00  0.00    +0.240 C 
ENDROOT
BRANCH   1   5
ATOM      2  N   LIG    1       -7.779  -5.883  -1.137  0.00  0.00    -0.530 NA
ATOM      3  C   LIG    1       -6.856  -6.737  -1.898  0.00  0.00    +0.180 C 
ATOM      4  C   LIG    1       -5.521  -6.010  -2.074  0.00  0.00    +0.200 C 
ATOM      5  N   LIG    1       -5.748  -4.735  -2.768  0.00  0.00    -0.500 NA
ATOM      6  C   LIG    1       -6.671  -3.881  -2.008  0.00  0.00    +0.180 C 
ATOM      7  C   LIG    1       -8.007  -4.608  -1.832  0.00  0.00    +0.180 C 
BRANCH   2   8
ATOM      8  C   LIG    1       -9.049  -6.577  -0.881  0.00  0.00    +0.180 C 
BRANCH   8   9
ATOM      9  C   LIG    1       -9.881  -5.767   0.114  0.00  0.00    +0.040 C 
BRANCH   9  10
ATOM     10  C   LIG    1      -11.204  -6.489   0.380  0.00  0.00    +0.110 C 
BRANCH  10  11
ATOM     11  C   LIG    1      -12.024  -5.692   1.361  0.00  0.00    +0.460 C 
ATOM     12  O   LIG    1      -11.595  -4.652   1.802  0.00  0.00    -0.500 OA
BRANCH  11  14
ATOM     13  C   LIG    1      -13.964  -5.316   2.692  0.00  0.00    +0.250 C 
ATOM     14  O   LIG    1      -13.230  -6.136   1.745  0.00  0.00    -0.360 OA
ENDBRANCH  11  14
ENDBRANCH  10  11
ENDBRANCH   9  10
ENDBRANCH   8   9
ENDBRANCH   2   8
ENDBRANCH   1   5
BRANCH   1  15
ATOM     15  C   LIG    1       -4.743  -2.784  -3.813  0.00  0.00    -0.200 A 
ATOM     16  C   LIG    1       -4.434  -2.715  -5.162  0.00  0.00    +0.340 A 
ATOM     17  N   LIG    1       -4.685  -1.597  -5.823  0.00  0.00    -0.510 NA
ATOM     18  C   LIG    1       -5.212  -0.555  -5.212  0.00  0.00    +0.340 A 
ATOM     19  N   LIG    1       -5.515  -0.583  -3.929  0.00  0.00    -0.510 NA
ATOM     20  C   LIG    1       -5.297  -1.669  -3.205  0.00  0.00    +0.330 A 
BRANCH  18  21
ATOM     21  C   LIG    1       -5.476   0.702  -6.000  0.00  0.00    -0.000 C 
ATOM     22  C   LIG    1       -6.970   1.030  -5.952  0.00  0.00    +0.050 C 
ATOM     23  C   LIG    1       -5.046   0.492  -7.453  0.00  0.00    +0.050 C 
ATOM     24  C   LIG    1       -4.681   1.860  -5.395  0.00  0.00    +0.050 C 
ENDBRANCH  18  21
ENDBRANCH   1  15
BRANCH   1  25
ATOM     25  C   LIG    1       -3.829  -3.684  -1.712  0.00  0.00    +0.490 C 
ATOM     26  N   LIG    1       -2.647  -3.037  -1.700  0.00  0.00    -0.720 N 
ATOM     27  H   LIG    1       -2.214  -2.802  -2.536  0.00  0.00    +0.400 HD
ATOM     28  O   LIG    1       -4.370  -3.978  -0.667  0.00  0.00    -0.520 OA
BRANCH  26  29
ATOM     29  C   LIG    1       -2.015  -2.690  -0.425  0.00  0.00    +0.320 C 
BRANCH  29  30
ATOM     30  C   LIG    1       -0.712  -1.978  -0.687  0.00  0.00    -0.070 A 
ATOM     31  C   LIG    1        0.459  -2.703  -0.805  0.00  0.00    -0.010 A 
ATOM     32  C   LIG    1        1.656  -2.052  -1.045  0.00  0.00    +0.050 A 
ATOM     33  C   LIG    1        1.682  -0.677  -1.173  0.00  0.00    -0.070 A 
ATOM     34  C   LIG    1        0.509   0.053  -1.050  0.00  0.00    +0.130 A 
ATOM     35  C   LIG    1       -0.690  -0.602  -0.809  0.00  0.00    +0.000 A 
BRANCH  34  36
ATOM     36  O   LIG    1        0.533   1.406  -1.169  0.00  0.00    -0.320 OA
ATOM     37  C   LIG    1        1.803   2.013  -1.417  0.00  0.00    +0.250 C 
ENDBRANCH  34  36
ENDBRANCH  29  30
ENDBRANCH  26  29
ENDBRANCH   1  25
TORSDOF 12
