REMARK  Name = ZINCrD00000760SE.0
REMARK                            x       y       z     vdW  Elec       q    Type
REMARK                         _______ _______ _______ _____ _____    ______ ____
ROOT
ATOM      1  C   LIG    1        1.145   3.595   0.010  0.00  0.00    +0.370 C 
ENDROOT
BRANCH   1  14
ATOM      2  O   LIG    1       -1.049   4.055   1.423  0.00  0.00    -0.540 OA
ATOM      3  C   LIG    1       -0.017   4.279   2.024  0.00  0.00    +0.710 A 
ATOM      4  N   LIG    1       -0.093   4.714   3.294  0.00  0.00    -0.650 N 
ATOM      5  H   LIG    1       -0.962   4.841   3.707  0.00  0.00    +0.440 HD
ATOM      6  C   LIG    1        1.058   4.988   4.018  0.00  0.00    +0.200 A 
ATOM      7  C   LIG    1        1.003   5.442   5.326  0.00  0.00    -0.030 A 
ATOM      8  C   LIG    1        2.173   5.702   6.011  0.00  0.00    +0.090 A 
ATOM      9  C   LIG    1        3.405   5.515   5.404  0.00  0.00    -0.010 A 
ATOM     10  C   LIG    1        3.480   5.063   4.102  0.00  0.00    +0.140 A 
ATOM     11  C   LIG    1        2.307   4.797   3.400  0.00  0.00    -0.200 A 
ATOM     12  C   LIG    1        2.330   4.313   2.008  0.00  0.00    +0.560 A 
ATOM     13  O   LIG    1        3.383   4.131   1.428  0.00  0.00    -0.480 OA
ATOM     14  N   LIG    1        1.151   4.077   1.394  0.00  0.00    -0.550 N 
ENDBRANCH   1  14
BRANCH   1  15
ATOM     15  C   LIG    1        1.170   2.088   0.002  0.00  0.00    -0.080 A 
ATOM     16  C   LIG    1       -0.017   1.379   0.010  0.00  0.00    +0.000 A 
ATOM     17  C   LIG    1        0.002  -0.004   0.002  0.00  0.00    +0.050 A 
ATOM     18  C   LIG    1        1.207  -0.679  -0.014  0.00  0.00    -0.070 A 
ATOM     19  C   LIG    1        2.399   0.031  -0.021  0.00  0.00    +0.120 A 
ATOM     20  C   LIG    1        2.377   1.417  -0.013  0.00  0.00    +0.010 A 
BRANCH  19  21
ATOM     21  O   LIG    1        3.586  -0.632  -0.037  0.00  0.00    -0.310 OA
BRANCH  21  22
ATOM     22  C   LIG    1        3.531  -2.060  -0.045  0.00  0.00    +0.240 C 
BRANCH  22  23
ATOM     23  C   LIG    1        4.932  -2.615  -0.062  0.00  0.00    -0.100 A 
ATOM     24  C   LIG    1        5.561  -2.868  -1.268  0.00  0.00    +0.030 A 
ATOM     25  C   LIG    1        6.847  -3.373  -1.283  0.00  0.00    +0.010 A 
ATOM     26  C   LIG    1        7.502  -3.635  -0.094  0.00  0.00    +0.020 A 
ATOM     27  C   LIG    1        6.871  -3.387   1.111  0.00  0.00    +0.010 A 
ATOM     28  C   LIG    1        5.587  -2.877   1.127  0.00  0.00    +0.020 A 
ENDBRANCH  22  23
ENDBRANCH  21  22
ENDBRANCH  19  21
ENDBRANCH   1  15
TORSDOF 5
