REMARK  Name = ZINCrg000000rAoS.0
REMARK                            x       y       z     vdW  Elec       q    Type
REMARK                         _______ _______ _______ _____ _____    ______ ____
ROOT
ATOM      1  N   LIG    1        0.043  -0.003  -0.012  0.00  0.00    -0.720 N 
ATOM      2  H   LIG    1       -0.771  -0.525   0.057  0.00  0.00    +0.420 HD
ATOM      3  C   LIG    1       -0.016   1.344   0.009  0.00  0.00    +0.590 C 
ATOM      4  O   LIG    1        1.010   1.998   0.017  0.00  0.00    -0.550 OA
ENDROOT
BRANCH   3   5
ATOM      5  C   LIG    1       -1.321   2.022   0.018  0.00  0.00    -0.330 A 
ATOM      6  C   LIG    1       -1.407   3.397  -0.082  0.00  0.00    +0.460 A 
ATOM      7  N   LIG    1       -2.630   3.989  -0.071  0.00  0.00    -0.520 N 
ATOM      8  C   LIG    1       -3.757   3.268   0.035  0.00  0.00    +0.700 A 
ATOM      9  N   LIG    1       -3.742   1.928   0.135  0.00  0.00    -0.650 N 
ATOM     10  H   LIG    1       -4.578   1.441   0.210  0.00  0.00    +0.440 HD
ATOM     11  O   LIG    1       -4.827   3.846   0.039  0.00  0.00    -0.500 OA
ATOM     12  C   LIG    1       -2.572   1.255   0.128  0.00  0.00    +0.570 A 
ATOM     13  O   LIG    1       -2.553   0.042   0.213  0.00  0.00    -0.510 OA
BRANCH   7  14
ATOM     14  C   LIG    1       -2.720   5.448  -0.177  0.00  0.00    +0.340 C 
BRANCH  14  15
ATOM     15  C   LIG    1       -2.817   5.847  -1.650  0.00  0.00    +0.170 C 
BRANCH  15  16
ATOM     16  O   LIG    1       -4.040   5.352  -2.199  0.00  0.00    -0.560 OA
ATOM     17  H   LIG    1       -4.169   5.568  -3.132  0.00  0.00    +0.380 HD
ENDBRANCH  15  16
ENDBRANCH  14  15
ENDBRANCH   7  14
ENDBRANCH   3   5
BRANCH   1  18
ATOM     18  C   LIG    1        1.337  -0.677  -0.140  0.00  0.00    +0.270 C 
BRANCH  18  20
ATOM     19  C   LIG    1        0.333  -2.598  -1.383  0.00  0.00    +0.040 C 
ATOM     20  C   LIG    1        1.125  -2.192  -0.139  0.00  0.00    +0.020 C 
BRANCH  20  21
ATOM     21  C   LIG    1        2.463  -2.886  -0.147  0.00  0.00    -0.040 A 
ATOM     22  C   LIG    1        3.344  -2.678  -1.192  0.00  0.00    +0.030 A 
ATOM     23  C   LIG    1        4.572  -3.312  -1.197  0.00  0.00    +0.070 A 
ATOM     24  C   LIG    1        4.917  -4.161  -0.161  0.00  0.00    -0.190 A 
ATOM     25  C   LIG    1        4.034  -4.373   0.881  0.00  0.00    +0.070 A 
ATOM     26  C   LIG    1        2.807  -3.736   0.888  0.00  0.00    +0.030 A 
BRANCH  24  27
ATOM     27  C   LIG    1        6.255  -4.854  -0.169  0.00  0.00    +0.510 C 
ATOM     28  F   LIG    1        6.676  -5.067   1.148  0.00  0.00    -0.180 F 
ATOM     29  F   LIG    1        7.190  -4.055  -0.835  0.00  0.00    -0.180 F 
ATOM     30  F   LIG    1        6.139  -6.083  -0.826  0.00  0.00    -0.180 F 
ENDBRANCH  24  27
ENDBRANCH  20  21
ENDBRANCH  18  20
ENDBRANCH   1  18
TORSDOF 8
