REMARK  Name = ZINCpk00000y6y30.0
REMARK                            x       y       z     vdW  Elec       q    Type
REMARK                         _______ _______ _______ _____ _____    ______ ____
ROOT
ATOM      1  C   LIG    1       -2.904   2.826   0.731  0.00  0.00    +0.160 C 
ATOM      2  C   LIG    1       -2.613   1.496   0.023  0.00  0.00    +0.310 C 
ATOM      3  N   LIG    1       -1.191   1.870   0.018  0.00  0.00    -0.660 N 
ATOM      4  C   LIG    1       -0.014   1.212   0.009  0.00  0.00    +0.740 C 
ATOM      5  N   LIG    1        1.143   1.901   0.001  0.00  0.00    -0.720 N 
ATOM      6  H   LIG    1        1.130   2.871   0.007  0.00  0.00    +0.400 HD
ATOM      7  O   LIG    1        0.002  -0.004   0.002  0.00  0.00    -0.580 OA
ATOM      8  C   LIG    1       -1.617   3.277   0.034  0.00  0.00    +0.260 C 
ENDROOT
BRANCH   5   9
ATOM      9  C   LIG    1        2.422   1.186  -0.015  0.00  0.00    +0.260 C 
ATOM     10  C   LIG    1        3.159   1.268  -1.364  0.00  0.00    +0.000 C 
ATOM     11  C   LIG    1        3.838   2.543  -0.832  0.00  0.00    +0.180 C 
ATOM     12  C   LIG    1        3.583   1.991   0.571  0.00  0.00    -0.110 C 
ATOM     13  C   LIG    1        4.696   1.309   1.366  0.00  0.00    +0.070 C 
ATOM     14  C   LIG    1        4.840   2.635   2.135  0.00  0.00    +0.010 C 
ATOM     15  C   LIG    1        3.375   2.926   1.762  0.00  0.00    +0.030 C 
BRANCH  11  16
ATOM     16  O   LIG    1        5.224   2.638  -1.168  0.00  0.00    -0.370 OA
ATOM     17  C   LIG    1        5.531   3.695  -2.079  0.00  0.00    +0.200 C 
ENDBRANCH  11  16
ENDBRANCH   5   9
BRANCH   1  18
ATOM     18  O   LIG    1       -4.085   3.488   0.273  0.00  0.00    -0.360 OA
BRANCH  18  19
ATOM     19  C   LIG    1       -4.732   4.279   1.271  0.00  0.00    +0.370 C 
BRANCH  19  23
ATOM     20  C   LIG    1       -7.929   5.350   0.038  0.00  0.00    +0.170 A 
ATOM     21  N   LIG    1       -7.153   6.342  -0.282  0.00  0.00    -0.370 NA
ATOM     22  O   LIG    1       -6.017   6.119   0.079  0.00  0.00    +0.090 OA
ATOM     23  C   LIG    1       -5.958   4.927   0.681  0.00  0.00    +0.180 A 
ATOM     24  N   LIG    1       -7.170   4.428   0.656  0.00  0.00    -0.460 NA
BRANCH  20  26
ATOM     25  C   LIG    1       -9.629   4.588  -1.599  0.00  0.00    +0.040 C 
ATOM     26  C   LIG    1       -9.408   5.250  -0.237  0.00  0.00    +0.160 C 
ENDBRANCH  20  26
ENDBRANCH  19  23
ENDBRANCH  18  19
ENDBRANCH   1  18
TORSDOF 6
