REMARK  Name = ZINCqH00000050Qh.0
REMARK                            x       y       z     vdW  Elec       q    Type
REMARK                         _______ _______ _______ _____ _____    ______ ____
ROOT
ATOM      1  N   LIG    1       -1.736  -2.193   1.072  0.00  0.00    -0.670 N 
ATOM      2  H   LIG    1       -1.249  -2.870   1.565  0.00  0.00    +0.420 HD
ATOM      3  C   LIG    1       -1.185  -0.980   0.869  0.00  0.00    +0.520 C 
ATOM      4  O   LIG    1       -1.760  -0.159   0.186  0.00  0.00    -0.520 OA
ENDROOT
BRANCH   1   7
ATOM      5  C   LIG    1       -4.593  -4.031  -0.360  0.00  0.00    -0.110 A 
ATOM      6  C   LIG    1       -3.319  -3.754   0.136  0.00  0.00    +0.030 A 
ATOM      7  C   LIG    1       -3.012  -2.474   0.570  0.00  0.00    +0.140 A 
ATOM      8  C   LIG    1       -3.969  -1.469   0.502  0.00  0.00    +0.070 A 
ATOM      9  C   LIG    1       -5.231  -1.740   0.007  0.00  0.00    +0.050 A 
ATOM     10  C   LIG    1       -5.549  -3.014  -0.424  0.00  0.00    -0.000 A 
ATOM     11 CL   LIG    1       -7.135  -3.349  -1.045  0.00  0.00    -0.030 Cl
BRANCH   5  14
ATOM     12  C   LIG    1       -4.288  -7.565  -1.722  0.00  0.00    +0.300 C 
ATOM     13  N   LIG    1       -3.965  -6.197  -1.313  0.00  0.00    -0.620 N 
ATOM     14  C   LIG    1       -4.929  -5.394  -0.821  0.00  0.00    +0.550 C 
ATOM     15  O   LIG    1       -6.076  -5.792  -0.756  0.00  0.00    -0.510 OA
ATOM     16  C   LIG    1       -2.592  -5.699  -1.438  0.00  0.00    +0.280 C 
ENDBRANCH   5  14
ENDBRANCH   1   7
BRANCH   3  17
ATOM     17  C   LIG    1        0.146  -0.643   1.491  0.00  0.00    +0.090 C 
BRANCH  17  18
ATOM     18  C   LIG    1        0.542   0.784   1.108  0.00  0.00    +0.070 C 
BRANCH  18  19
ATOM     19  C   LIG    1        1.873   1.120   1.730  0.00  0.00    +0.400 C 
ATOM     20  O   LIG    1        2.448   0.299   2.413  0.00  0.00    -0.450 OA
BRANCH  19  21
ATOM     21  C   LIG    1        2.474   2.443   1.509  0.00  0.00    -0.190 A 
ATOM     22  C   LIG    1        1.817   3.391   0.717  0.00  0.00    +0.110 A 
ATOM     23  C   LIG    1        2.384   4.630   0.517  0.00  0.00    -0.030 A 
ATOM     24  C   LIG    1        3.608   4.937   1.091  0.00  0.00    +0.130 A 
ATOM     25  C   LIG    1        4.268   4.000   1.874  0.00  0.00    -0.030 A 
ATOM     26  F   LIG    1        4.162   6.152   0.887  0.00  0.00    -0.130 F 
ATOM     27  C   LIG    1        3.710   2.759   2.085  0.00  0.00    +0.120 A 
ENDBRANCH  19  21
ENDBRANCH  18  19
ENDBRANCH  17  18
ENDBRANCH   3  17
TORSDOF 6
