REMARK  Name = ZINCqH0000001Hsq.0
REMARK                            x       y       z     vdW  Elec       q    Type
REMARK                         _______ _______ _______ _____ _____    ______ ____
ROOT
ATOM      1  C   LIG    1       -4.104  -5.790  -0.137  0.00  0.00    +0.460 C 
ATOM      2  O   LIG    1       -3.066  -6.384   0.033  0.00  0.00    -0.480 OA
ENDROOT
BRANCH   1   3
ATOM      3  O   LIG    1       -5.268  -6.459  -0.133  0.00  0.00    -0.340 OA
BRANCH   3  10
ATOM      4  C   LIG    1       -6.367  -8.570  -0.646  0.00  0.00    +0.000 C 
ATOM      5  C   LIG    1       -6.299 -10.082  -0.420  0.00  0.00    +0.030 C 
ATOM      6  C   LIG    1       -6.391 -10.379   1.078  0.00  0.00    +0.020 C 
ATOM      7  C   LIG    1       -5.227  -9.702   1.804  0.00  0.00    -0.010 C 
ATOM      8  C   LIG    1       -5.295  -8.190   1.579  0.00  0.00    +0.010 C 
ATOM      9  C   LIG    1       -3.903 -10.240   1.258  0.00  0.00    +0.020 C 
ATOM     10  C   LIG    1       -5.203  -7.893   0.081  0.00  0.00    +0.190 C 
BRANCH   4  12
ATOM     11  C   LIG    1       -5.000  -8.903  -2.711  0.00  0.00    +0.010 C 
ATOM     12  C   LIG    1       -6.275  -8.274  -2.144  0.00  0.00    -0.020 C 
ATOM     13  C   LIG    1       -7.494  -8.862  -2.856  0.00  0.00    +0.030 C 
ENDBRANCH   4  12
ENDBRANCH   3  10
ENDBRANCH   1   3
BRANCH   1  14
ATOM     14  C   LIG    1       -4.093  -4.299  -0.353  0.00  0.00    +0.320 C 
BRANCH  14  15
ATOM     15  O   LIG    1       -2.724  -3.814  -0.313  0.00  0.00    -0.330 OA
BRANCH  15  16
ATOM     16  C   LIG    1       -2.539  -2.497  -0.490  0.00  0.00    +0.470 C 
ATOM     17  O   LIG    1       -3.488  -1.772  -0.672  0.00  0.00    -0.470 OA
BRANCH  16  18
ATOM     18  C   LIG    1       -1.146  -1.921  -0.462  0.00  0.00    +0.290 C 
BRANCH  18  19
ATOM     19  O   LIG    1       -1.210  -0.509  -0.672  0.00  0.00    -0.290 OA
BRANCH  19  20
ATOM     20  C   LIG    1       -0.032   0.168  -0.676  0.00  0.00    +0.160 A 
ATOM     21  C   LIG    1       -0.020   1.541  -0.875  0.00  0.00    -0.010 A 
ATOM     22  C   LIG    1        1.178   2.228  -0.878  0.00  0.00    +0.090 A 
ATOM     23  C   LIG    1        2.366   1.550  -0.682  0.00  0.00    -0.050 A 
ATOM     24  C   LIG    1        2.359   0.179  -0.483  0.00  0.00    +0.140 A 
ATOM     25  F   LIG    1        3.521  -0.482  -0.292  0.00  0.00    -0.130 F 
ATOM     26  C   LIG    1        1.161  -0.513  -0.480  0.00  0.00    -0.110 A 
ENDBRANCH  19  20
ENDBRANCH  18  19
ENDBRANCH  16  18
ENDBRANCH  15  16
ENDBRANCH  14  15
ENDBRANCH   1  14
TORSDOF 9
