REMARK  Name = ZINCrH00000No4Ti.0
REMARK                            x       y       z     vdW  Elec       q    Type
REMARK                         _______ _______ _______ _____ _____    ______ ____
ROOT
ATOM      1  C   LIG    1       -1.785   5.238   8.822  0.00  0.00    +0.550 C 
ATOM      2  N   LIG    1       -1.809   5.348   7.479  0.00  0.00    -0.610 N 
ATOM      3  C   LIG    1       -0.945   6.309   6.774  0.00  0.00    +0.290 C 
ATOM      4  C   LIG    1        0.031   5.515   5.908  0.00  0.00    +0.070 C 
ATOM      5  C   LIG    1       -0.691   4.453   5.121  0.00  0.00    -0.070 A 
ATOM      6  C   LIG    1       -0.050   3.936   4.005  0.00  0.00    +0.070 A 
ATOM      7  C   LIG    1       -0.656   2.943   3.239  0.00  0.00    -0.130 A 
ATOM      8  C   LIG    1       -1.918   2.470   3.601  0.00  0.00    +0.040 A 
ATOM      9  C   LIG    1       -2.544   2.986   4.713  0.00  0.00    +0.010 A 
ATOM     10  C   LIG    1       -1.939   3.981   5.471  0.00  0.00    -0.070 A 
ATOM     11  C   LIG    1       -2.696   4.514   6.662  0.00  0.00    +0.330 C 
ATOM     12  O   LIG    1       -1.107   6.001   9.483  0.00  0.00    -0.540 OA
ENDROOT
BRANCH   7  13
ATOM     13  C   LIG    1        0.030   2.399   2.047  0.00  0.00    +0.560 C 
ATOM     14  N   LIG    1       -0.198   1.129   1.660  0.00  0.00    -0.600 N 
ATOM     15  C   LIG    1        0.481   0.603   0.490  0.00  0.00    +0.270 C 
ATOM     16  C   LIG    1       -0.428   0.322  -0.691  0.00  0.00    +0.040 C 
ATOM     17  C   LIG    1       -1.385  -0.837  -0.377  0.00  0.00    +0.150 C 
ATOM     18  C   LIG    1       -2.541  -0.273   0.422  0.00  0.00    +0.040 A 
ATOM     19  C   LIG    1       -2.430   0.248   1.656  0.00  0.00    -0.210 A 
ATOM     20  C   LIG    1       -3.704   0.684   2.051  0.00  0.00    +0.020 A 
ATOM     21  C   LIG    1       -4.539   0.391   1.031  0.00  0.00    -0.030 A 
ATOM     22 BR   LIG    1       -6.396   0.744   0.987  0.00  0.00    +0.060 Br
ATOM     23  O   LIG    1       -3.826  -0.194   0.051  0.00  0.00    -0.150 OA
ATOM     24  C   LIG    1       -1.129   0.293   2.434  0.00  0.00    +0.380 C 
ATOM     25  O   LIG    1        0.799   3.098   1.417  0.00  0.00    -0.530 OA
ENDBRANCH   7  13
BRANCH   1  27
ATOM     26  C   LIG    1       -2.475   4.018  10.803  0.00  0.00    +0.160 C 
ATOM     27  C   LIG    1       -2.580   4.195   9.489  0.00  0.00    -0.090 C 
ENDBRANCH   1  27
TORSDOF 2
