REMARK  Name = ZINCrH00000No4ti.1
REMARK                            x       y       z     vdW  Elec       q    Type
REMARK                         _______ _______ _______ _____ _____    ______ ____
ROOT
ATOM      1  N   LIG    1       -1.661  -5.037  -1.282  0.00  0.00    -0.710 N 
ATOM      2  H   LIG    1       -2.236  -5.448  -1.946  0.00  0.00    +0.410 HD
ATOM      3  C   LIG    1       -0.327  -5.004  -1.474  0.00  0.00    +0.540 C 
ATOM      4  O   LIG    1        0.395  -4.488  -0.641  0.00  0.00    -0.550 OA
ENDROOT
BRANCH   3   5
ATOM      5  C   LIG    1        0.253  -5.588  -2.685  0.00  0.00    -0.070 C 
ATOM      6  C   LIG    1        1.587  -5.554  -2.877  0.00  0.00    +0.110 C 
BRANCH   6   7
ATOM      7  C   LIG    1        2.170  -6.141  -4.094  0.00  0.00    -0.040 A 
ATOM      8  C   LIG    1        1.345  -6.740  -5.051  0.00  0.00    +0.030 A 
ATOM      9  C   LIG    1        1.898  -7.282  -6.192  0.00  0.00    +0.070 A 
ATOM     10  C   LIG    1        3.268  -7.246  -6.385  0.00  0.00    -0.180 A 
ATOM     11  C   LIG    1        4.092  -6.661  -5.440  0.00  0.00    +0.070 A 
ATOM     12  C   LIG    1        3.554  -6.109  -4.297  0.00  0.00    +0.040 A 
BRANCH  10  13
ATOM     13  C   LIG    1        3.865  -7.846  -7.632  0.00  0.00    +0.510 C 
ATOM     14  F   LIG    1        5.034  -7.156  -7.968  0.00  0.00    -0.180 F 
ATOM     15  F   LIG    1        2.947  -7.748  -8.683  0.00  0.00    -0.180 F 
ATOM     16  F   LIG    1        4.168  -9.193  -7.402  0.00  0.00    -0.170 F 
ENDBRANCH  10  13
ENDBRANCH   6   7
ENDBRANCH   3   5
BRANCH   1  17
ATOM     17  C   LIG    1       -2.241  -4.453  -0.070  0.00  0.00    +0.280 C 
BRANCH  17  18
ATOM     18  C   LIG    1       -3.745  -4.732  -0.039  0.00  0.00    +0.090 C 
ATOM     19  C   LIG    1       -4.374  -4.009   1.154  0.00  0.00    +0.020 C 
ATOM     20  C   LIG    1       -3.981  -6.238   0.095  0.00  0.00    +0.050 C 
BRANCH  18  24
ATOM     21  C   LIG    1       -7.903  -4.285  -2.635  0.00  0.00    +0.050 C 
ATOM     22  C   LIG    1       -6.388  -4.067  -2.639  0.00  0.00    +0.160 C 
ATOM     23  C   LIG    1       -5.801  -4.531  -1.303  0.00  0.00    +0.160 C 
ATOM     24  N   LIG    1       -4.359  -4.250  -1.283  0.00  0.00    -0.520 NA
ATOM     25  C   LIG    1       -4.106  -2.814  -1.473  0.00  0.00    +0.160 C 
ATOM     26  C   LIG    1       -4.710  -2.367  -2.807  0.00  0.00    +0.190 C 
ATOM     27  C   LIG    1       -4.013  -3.099  -3.955  0.00  0.00    +0.020 C 
ATOM     28  O   LIG    1       -6.106  -2.677  -2.820  0.00  0.00    -0.380 OA
ENDBRANCH  18  24
ENDBRANCH  17  18
ENDBRANCH   1  17
TORSDOF 6
