REMARK  Name = ZINCnE000001Gg6h.1
REMARK                            x       y       z     vdW  Elec       q    Type
REMARK                         _______ _______ _______ _____ _____    ______ ____
ROOT
ATOM      1  N   LIG    1       -0.453   1.393   3.718  0.00  0.00    -0.660 NA
ATOM      2  C   LIG    1        0.000   1.080   2.488  0.00  0.00    +0.450 C 
ATOM      3  O   LIG    1        0.994   0.397   2.363  0.00  0.00    -0.610 OA
ENDROOT
BRANCH   1   7
ATOM      4  C   LIG    1        0.624   0.657   7.019  0.00  0.00    +0.110 A 
ATOM      5  C   LIG    1        1.662  -0.057   6.577  0.00  0.00    -0.230 A 
ATOM      6  S   LIG    1        1.624  -0.042   4.816  0.00  0.00    +0.030 S 
ATOM      7  C   LIG    1        0.219   0.932   4.844  0.00  0.00    +0.350 A 
ATOM      8  N   LIG    1       -0.131   1.174   6.068  0.00  0.00    -0.540 NA
BRANCH   4   9
ATOM      9  C   LIG    1        0.338   0.855   8.485  0.00  0.00    +0.190 C 
BRANCH   9  10
ATOM     10  C   LIG    1        0.248   2.329   8.785  0.00  0.00    +0.460 C 
ATOM     11  O   LIG    1        0.401   3.136   7.898  0.00  0.00    -0.470 OA
BRANCH  10  12
ATOM     12  O   LIG    1       -0.002   2.746  10.036  0.00  0.00    -0.370 OA
BRANCH  12  14
ATOM     13  C   LIG    1       -0.364   4.461  11.726  0.00  0.00    +0.050 C 
ATOM     14  C   LIG    1       -0.074   4.181  10.251  0.00  0.00    +0.200 C 
ENDBRANCH  12  14
ENDBRANCH  10  12
ENDBRANCH   9  10
ENDBRANCH   4   9
ENDBRANCH   1   7
BRANCH   2  15
ATOM     15  C   LIG    1       -0.729   1.579   1.267  0.00  0.00    +0.060 C 
BRANCH  15  16
ATOM     16  C   LIG    1       -0.013   1.086   0.008  0.00  0.00    +0.090 C 
BRANCH  16  17
ATOM     17  C   LIG    1       -0.742   1.585  -1.213  0.00  0.00    -0.060 A 
ATOM     18  C   LIG    1       -0.270   2.690  -1.896  0.00  0.00    +0.020 A 
ATOM     19  C   LIG    1       -0.939   3.148  -3.016  0.00  0.00    +0.010 A 
ATOM     20  C   LIG    1       -2.079   2.502  -3.453  0.00  0.00    +0.010 A 
ATOM     21  C   LIG    1       -2.552   1.397  -2.771  0.00  0.00    +0.020 A 
ATOM     22  C   LIG    1       -1.880   0.934  -1.654  0.00  0.00    -0.040 A 
ATOM     23 CL   LIG    1       -2.469  -0.459  -0.801  0.00  0.00    -0.060 Cl
ENDBRANCH  16  17
ENDBRANCH  15  16
ENDBRANCH   2  15
TORSDOF 8
