REMARK  Name = ZINCwl0000000kU4.0
REMARK                            x       y       z     vdW  Elec       q    Type
REMARK                         _______ _______ _______ _____ _____    ______ ____
ROOT
ATOM      1  C   LIG    1        4.408   0.836   0.631  0.00  0.00    +0.620 C 
ATOM      2  N   LIG    1        4.812   2.102   0.401  0.00  0.00    -0.610 N 
ATOM      3  C   LIG    1        6.200   2.601   0.258  0.00  0.00    +0.300 C 
ATOM      4  C   LIG    1        6.199   3.958   0.985  0.00  0.00    -0.080 C 
ATOM      5  C   LIG    1        4.735   4.427   0.975  0.00  0.00    +0.100 C 
ATOM      6  F   LIG    1        4.258   4.562   2.283  0.00  0.00    -0.170 F 
ATOM      7  C   LIG    1        7.079   4.956   0.237  0.00  0.00    +0.040 C 
ATOM      8  C   LIG    1        8.538   4.495   0.312  0.00  0.00    +0.200 C 
ATOM      9  O   LIG    1        8.920   4.352   1.681  0.00  0.00    -0.380 OA
ATOM     10  C   LIG    1        8.165   3.376   2.402  0.00  0.00    +0.220 C 
ATOM     11  C   LIG    1        6.690   3.787   2.419  0.00  0.00    +0.020 C 
ATOM     12  C   LIG    1        3.967   3.307   0.229  0.00  0.00    +0.290 C 
ATOM     13  O   LIG    1        5.230  -0.036   0.837  0.00  0.00    -0.500 OA
ENDROOT
BRANCH   1  15
ATOM     14  C   LIG    1        2.157   0.361   1.740  0.00  0.00    -0.130 A 
ATOM     15  C   LIG    1        2.973   0.510   0.633  0.00  0.00    -0.040 A 
ATOM     16  N   LIG    1        2.180   0.294  -0.458  0.00  0.00    -0.270 N 
ATOM     17  N   LIG    1        0.982   0.034  -0.076  0.00  0.00    -0.270 NA
ATOM     18  C   LIG    1        2.628   0.350  -1.852  0.00  0.00    +0.370 C 
ATOM     19  C   LIG    1        0.893   0.056   1.230  0.00  0.00    +0.200 A 
BRANCH  14  21
ATOM     20  C   LIG    1        1.726   1.612   3.837  0.00  0.00    +0.030 C 
ATOM     21  C   LIG    1        2.548   0.497   3.189  0.00  0.00    +0.050 C 
ATOM     22  C   LIG    1        2.280  -0.823   3.916  0.00  0.00    +0.040 C 
ENDBRANCH  14  21
ENDBRANCH   1  15
BRANCH   5  23
ATOM     23  C   LIG    1        4.606   5.731   0.231  0.00  0.00    +0.520 C 
ATOM     24  N   LIG    1        3.776   6.689   0.689  0.00  0.00    -0.610 N 
ATOM     25  C   LIG    1        2.917   6.422   1.845  0.00  0.00    +0.310 C 
ATOM     26  O   LIG    1        5.251   5.920  -0.779  0.00  0.00    -0.510 OA
BRANCH  24  27
ATOM     27  C   LIG    1        3.731   7.996   0.029  0.00  0.00    +0.330 C 
BRANCH  27  28
ATOM     28  C   LIG    1        2.679   7.972  -1.081  0.00  0.00    -0.020 C 
ATOM     29  C   LIG    1        3.222   7.492  -2.439  0.00  0.00    +0.310 C 
ATOM     30  N   LIG    1        2.420   8.584  -3.034  0.00  0.00    -0.410 N 
ATOM     31  C   LIG    1        3.116   9.272  -4.130  0.00  0.00    +0.310 C 
ATOM     32  H   LIG    1        1.487   8.295  -3.288  0.00  0.00    +0.440 HD
ATOM     33  C   LIG    1        2.463   9.337  -1.761  0.00  0.00    +0.300 C 
ENDBRANCH  27  28
ENDBRANCH  24  27
ENDBRANCH   5  23
TORSDOF 5
