REMARK  Name = ZINCkj000005jTFg.1
REMARK                            x       y       z     vdW  Elec       q    Type
REMARK                         _______ _______ _______ _____ _____    ______ ____
ROOT
ATOM      1  C   LIG    1        3.463   2.197   1.518  0.00  0.00    +0.070 C 
ATOM      2  C   LIG    1        2.047   1.617   1.506  0.00  0.00    +0.130 C 
ATOM      3  C   LIG    1        1.270   2.189   0.315  0.00  0.00    +0.240 C 
ATOM      4  N   LIG    1       -0.016   1.479   0.216  0.00  0.00    -0.630 N 
ATOM      5  C   LIG    1        0.004   0.008   0.225  0.00  0.00    +0.280 C 
ATOM      6  C   LIG    1        0.843  -0.457   1.421  0.00  0.00    +0.230 C 
ATOM      7  C   LIG    1       -1.177   2.157   0.125  0.00  0.00    +0.710 C 
ATOM      8  N   LIG    1       -1.183   3.501   0.226  0.00  0.00    -0.760 N 
ATOM      9  H   LIG    1       -0.345   3.986   0.291  0.00  0.00    +0.390 HD
ATOM     10  O   LIG    1       -2.220   1.556  -0.047  0.00  0.00    -0.560 OA
ATOM     11  O   LIG    1        2.115   0.194   1.385  0.00  0.00    -0.370 OA
ENDROOT
BRANCH   8  12
ATOM     12  C   LIG    1       -2.453   4.230   0.235  0.00  0.00    +0.330 C 
BRANCH  12  13
ATOM     13  C   LIG    1       -2.178   5.735   0.233  0.00  0.00    +0.300 C 
BRANCH  13  14
ATOM     14  C   LIG    1       -1.513   6.122  -1.062  0.00  0.00    -0.110 A 
ATOM     15  C   LIG    1       -2.122   6.679  -2.124  0.00  0.00    +0.030 A 
ATOM     16  C   LIG    1       -1.129   6.873  -3.111  0.00  0.00    -0.050 A 
ATOM     17  C   LIG    1        0.028   6.422  -2.594  0.00  0.00    +0.230 A 
ATOM     18  O   LIG    1       -0.209   5.973  -1.351  0.00  0.00    -0.190 OA
ENDBRANCH  13  14
BRANCH  13  19
ATOM     19  N   LIG    1       -1.295   6.073   1.357  0.00  0.00    -0.390 N 
ATOM     20  C   LIG    1       -1.897   5.601   2.612  0.00  0.00    +0.330 C 
ATOM     21  C   LIG    1       -1.116   7.530   1.418  0.00  0.00    +0.330 C 
ATOM     22  H   LIG    1       -0.399   5.629   1.226  0.00  0.00    +0.420 HD
ENDBRANCH  13  19
ENDBRANCH  12  13
ENDBRANCH   8  12
TORSDOF 4
