REMARK  Name = ZINCpk00000e9ZpW.0
REMARK                            x       y       z     vdW  Elec       q    Type
REMARK                         _______ _______ _______ _____ _____    ______ ____
ROOT
ATOM      1  C   LIG    1        3.469   2.324  -1.124  0.00  0.00    +0.520 C 
ATOM      2  N   LIG    1        3.592   3.664  -1.186  0.00  0.00    -0.730 N 
ATOM      3  H   LIG    1        2.801   4.221  -1.263  0.00  0.00    +0.400 HD
ATOM      4  O   LIG    1        4.457   1.628  -1.027  0.00  0.00    -0.530 OA
ENDROOT
BRANCH   1  10
ATOM      5  C   LIG    1       -1.187   2.136   0.019  0.00  0.00    +0.650 C 
ATOM      6  N   LIG    1       -0.018   1.465   0.010  0.00  0.00    -0.590 N 
ATOM      7  C   LIG    1        0.002  -0.004   0.002  0.00  0.00    +0.290 C 
ATOM      8  C   LIG    1        0.858  -0.479  -1.176  0.00  0.00    +0.020 C 
ATOM      9  C   LIG    1        2.242   0.168  -1.090  0.00  0.00    +0.060 C 
ATOM     10  C   LIG    1        2.103   1.689  -1.177  0.00  0.00    -0.020 C 
ATOM     11  C   LIG    1        1.261   2.189   0.002  0.00  0.00    +0.320 C 
ATOM     12  O   LIG    1       -1.190   3.351   0.026  0.00  0.00    -0.570 OA
BRANCH   5  14
ATOM     13  C   LIG    1       -3.571   2.247   0.031  0.00  0.00    +0.280 C 
ATOM     14  O   LIG    1       -2.351   1.460   0.021  0.00  0.00    -0.370 OA
ENDBRANCH   5  14
ENDBRANCH   1  10
BRANCH   2  15
ATOM     15  C   LIG    1        4.920   4.281  -1.135  0.00  0.00    +0.260 C 
BRANCH  15  16
ATOM     16  C   LIG    1        4.779   5.802  -1.222  0.00  0.00    +0.010 C 
BRANCH  16  17
ATOM     17  C   LIG    1        6.166   6.446  -1.169  0.00  0.00    +0.270 C 
BRANCH  17  18
ATOM     18  N   LIG    1        6.032   7.903  -1.252  0.00  0.00    -0.730 N 
ATOM     19  H   LIG    1        5.152   8.305  -1.328  0.00  0.00    +0.400 HD
ATOM     20  C   LIG    1        7.130   8.684  -1.224  0.00  0.00    +0.560 C 
ATOM     21  O   LIG    1        8.232   8.179  -1.130  0.00  0.00    -0.530 OA
BRANCH  20  22
ATOM     22  C   LIG    1        6.994  10.153  -1.308  0.00  0.00    -0.140 A 
ATOM     23  C   LIG    1        5.731  10.735  -1.423  0.00  0.00    +0.030 A 
ATOM     24  C   LIG    1        5.611  12.108  -1.495  0.00  0.00    +0.000 A 
ATOM     25  C   LIG    1        6.740  12.906  -1.466  0.00  0.00    +0.040 A 
ATOM     26  C   LIG    1        7.996  12.336  -1.359  0.00  0.00    +0.000 A 
ATOM     27  C   LIG    1        8.129  10.965  -1.280  0.00  0.00    +0.080 A 
ENDBRANCH  20  22
ENDBRANCH  17  18
ENDBRANCH  16  17
ENDBRANCH  15  16
ENDBRANCH   2  15
TORSDOF 7
