REMARK  Name = ZINCpk00000y6ukI.0
REMARK                            x       y       z     vdW  Elec       q    Type
REMARK                         _______ _______ _______ _____ _____    ______ ____
ROOT
ATOM      1  C   LIG    1       -1.582   2.483  -6.119  0.00  0.00    +0.300 C 
ENDROOT
BRANCH   1   3
ATOM      2  C   LIG    1       -1.544   3.035  -8.556  0.00  0.00    +0.220 C 
ATOM      3  C   LIG    1       -2.193   2.158  -7.483  0.00  0.00    +0.160 C 
ATOM      4  O   LIG    1       -1.961   0.781  -7.794  0.00  0.00    -0.370 OA
ATOM      5  C   LIG    1       -2.469   0.386  -9.071  0.00  0.00    +0.220 C 
ATOM      6  C   LIG    1       -1.822   1.245 -10.160  0.00  0.00    +0.150 C 
ATOM      7  N   LIG    1       -2.079   2.664  -9.875  0.00  0.00    -0.540 NA
ATOM      8  C   LIG    1       -1.522   3.522 -10.929  0.00  0.00    +0.210 C 
BRANCH   2  14
ATOM      9  C   LIG    1       -3.879   4.743  -9.768  0.00  0.00    +0.330 C 
ATOM     10  N   LIG    1       -2.875   5.218  -8.812  0.00  0.00    -0.440 N 
ATOM     11  C   LIG    1       -2.787   6.463  -8.295  0.00  0.00    +0.390 A 
ATOM     12  N   LIG    1       -1.767   6.506  -7.482  0.00  0.00    -0.490 NA
ATOM     13  C   LIG    1       -1.177   5.302  -7.447  0.00  0.00    +0.160 A 
ATOM     14  C   LIG    1       -1.852   4.483  -8.277  0.00  0.00    -0.030 A 
ENDBRANCH   2  14
ENDBRANCH   1   3
BRANCH   1  15
ATOM     15  N   LIG    1       -2.203   1.642  -5.092  0.00  0.00    -0.720 N 
ATOM     16  H   LIG    1       -2.889   1.003  -5.339  0.00  0.00    +0.400 HD
ATOM     17  C   LIG    1       -1.819   1.756  -3.805  0.00  0.00    +0.590 C 
ATOM     18  O   LIG    1       -0.958   2.557  -3.496  0.00  0.00    -0.550 OA
BRANCH  17  19
ATOM     19  C   LIG    1       -2.442   0.910  -2.773  0.00  0.00    -0.230 A 
ATOM     20  C   LIG    1       -2.164   0.907  -1.435  0.00  0.00    +0.140 A 
ATOM     21  N   LIG    1       -2.954  -0.007  -0.838  0.00  0.00    -0.550 N 
ATOM     22  H   LIG    1       -2.955  -0.203   0.112  0.00  0.00    +0.420 HD
ATOM     23  C   LIG    1       -3.752  -0.617  -1.762  0.00  0.00    +0.160 A 
ATOM     24  C   LIG    1       -3.486  -0.102  -2.975  0.00  0.00    -0.020 A 
BRANCH  20  25
ATOM     25  C   LIG    1       -1.150   1.781  -0.743  0.00  0.00    +0.050 C 
ATOM     26  C   LIG    1       -0.013   1.086   0.008  0.00  0.00    +0.040 C 
ATOM     27  C   LIG    1       -1.136   1.773   0.788  0.00  0.00    +0.020 C 
ENDBRANCH  20  25
ENDBRANCH  17  19
ENDBRANCH   1  15
TORSDOF 5
