REMARK  Name = ZINCpk000000oU92.0
REMARK                            x       y       z     vdW  Elec       q    Type
REMARK                         _______ _______ _______ _____ _____    ______ ____
ROOT
ATOM      1  S   LIG    1       -0.192   2.945   1.964  0.00  0.00    +2.680 S 
ATOM      2  O   LIG    1        1.167   3.128   1.594  0.00  0.00    -0.950 OA
ATOM      3  O   LIG    1       -0.625   2.850   3.315  0.00  0.00    -0.940 OA
ENDROOT
BRANCH   1   4
ATOM      4  C   LIG    1       -1.087   4.283   1.248  0.00  0.00    -0.660 A 
ATOM      5  C   LIG    1       -0.574   4.942   0.145  0.00  0.00    +0.120 A 
ATOM      6  C   LIG    1       -1.272   5.988  -0.424  0.00  0.00    +0.030 A 
ATOM      7  C   LIG    1       -2.493   6.386   0.122  0.00  0.00    -0.080 A 
ATOM      8  C   LIG    1       -3.003   5.720   1.238  0.00  0.00    +0.070 A 
ATOM      9  C   LIG    1       -2.297   4.672   1.793  0.00  0.00    +0.130 A 
BRANCH   7  10
ATOM     10  C   LIG    1       -3.244   7.510  -0.478  0.00  0.00    +0.550 C 
ATOM     11  N   LIG    1       -2.749   8.151  -1.556  0.00  0.00    -0.730 N 
ATOM     12  H   LIG    1       -1.901   7.876  -1.937  0.00  0.00    +0.400 HD
ATOM     13  C   LIG    1       -3.493   9.264  -2.151  0.00  0.00    +0.280 C 
ATOM     14  O   LIG    1       -4.307   7.855  -0.001  0.00  0.00    -0.520 OA
ENDBRANCH   7  10
ENDBRANCH   1   4
BRANCH   1  15
ATOM     15  N   LIG    1       -0.698   1.558   1.213  0.00  0.00    -0.990 NA
BRANCH  15  16
ATOM     16  C   LIG    1       -0.013   1.086   0.008  0.00  0.00    +0.330 C 
BRANCH  16  17
ATOM     17  C   LIG    1       -0.753   1.593  -1.232  0.00  0.00    +0.070 C 
BRANCH  17  18
ATOM     18  C   LIG    1       -0.047   1.107  -2.471  0.00  0.00    +0.470 C 
ATOM     19  O   LIG    1        0.945   0.425  -2.374  0.00  0.00    -0.500 OA
BRANCH  18  20
ATOM     20  O   LIG    1       -0.522   1.431  -3.684  0.00  0.00    -0.360 OA
BRANCH  20  22
ATOM     21  C   LIG    1       -0.477   1.398  -6.119  0.00  0.00    +0.070 C 
ATOM     22  C   LIG    1        0.208   0.928  -4.834  0.00  0.00    +0.200 C 
ENDBRANCH  20  22
ENDBRANCH  18  20
ENDBRANCH  17  18
ENDBRANCH  16  17
ENDBRANCH  15  16
BRANCH  15  23
ATOM     23  C   LIG    1       -1.832   0.804   1.754  0.00  0.00    +0.330 C 
BRANCH  23  24
ATOM     24  C   LIG    1       -1.314  -0.312   2.664  0.00  0.00    -0.060 C 
ATOM     25  C   LIG    1       -1.595  -1.755   2.241  0.00  0.00    +0.020 C 
ATOM     26  C   LIG    1       -2.351  -1.143   3.422  0.00  0.00    +0.030 C 
ENDBRANCH  23  24
ENDBRANCH  15  23
ENDBRANCH   1  15
TORSDOF 10
