REMARK  Name = ZINCrH000004qy23.2
REMARK                            x       y       z     vdW  Elec       q    Type
REMARK                         _______ _______ _______ _____ _____    ______ ____
ROOT
ATOM      1  C   LIG    1       -0.631   0.322   5.334  0.00  0.00    +0.170 A 
ATOM      2  N   LIG    1       -1.408  -0.709   5.183  0.00  0.00    -0.360 NA
ATOM      3  O   LIG    1       -2.189  -0.516   4.275  0.00  0.00    +0.100 OA
ATOM      4  C   LIG    1       -1.971   0.688   3.738  0.00  0.00    +0.190 A 
ATOM      5  N   LIG    1       -0.984   1.231   4.408  0.00  0.00    -0.460 NA
ENDROOT
BRANCH   1   6
ATOM      6  C   LIG    1        0.463   0.472   6.359  0.00  0.00    +0.350 C 
BRANCH   6   7
ATOM      7  O   LIG    1       -0.073   1.058   7.547  0.00  0.00    -0.310 OA
BRANCH   7  13
ATOM      8  C   LIG    1        4.447   0.732   9.357  0.00  0.00    +0.090 C 
ATOM      9  C   LIG    1        2.997   1.117   9.497  0.00  0.00    -0.040 A 
ATOM     10  C   LIG    1        2.543   1.680  10.675  0.00  0.00    -0.030 A 
ATOM     11  C   LIG    1        1.213   2.034  10.807  0.00  0.00    -0.040 A 
ATOM     12  C   LIG    1        0.335   1.827   9.761  0.00  0.00    -0.030 A 
ATOM     13  C   LIG    1        0.788   1.263   8.578  0.00  0.00    +0.140 A 
ATOM     14  C   LIG    1        0.721   2.648  12.092  0.00  0.00    +0.090 C 
ATOM     15  C   LIG    1        2.122   0.902   8.450  0.00  0.00    -0.090 A 
ENDBRANCH   7  13
ENDBRANCH   6   7
ENDBRANCH   1   6
BRANCH   4  16
ATOM     16  C   LIG    1       -2.722   1.305   2.586  0.00  0.00    +0.350 C 
BRANCH  16  17
ATOM     17  N   LIG    1       -2.059   0.953   1.324  0.00  0.00    -0.520 NA
BRANCH  17  18
ATOM     18  C   LIG    1       -2.886   1.333   0.171  0.00  0.00    +0.170 C 
ATOM     19  C   LIG    1       -3.258   2.813   0.276  0.00  0.00    -0.030 C 
ATOM     20  C   LIG    1       -4.119   3.209  -0.925  0.00  0.00    +0.010 C 
ATOM     21  C   LIG    1       -5.394   2.363  -0.940  0.00  0.00    +0.000 C 
ATOM     22  C   LIG    1       -5.022   0.883  -1.045  0.00  0.00    +0.010 C 
ATOM     23  C   LIG    1       -4.161   0.487   0.156  0.00  0.00    +0.030 C 
ENDBRANCH  17  18
BRANCH  17  24
ATOM     24  C   LIG    1       -0.726   1.565   1.241  0.00  0.00    +0.150 C 
BRANCH  24  25
ATOM     25  C   LIG    1        0.082   0.878   0.138  0.00  0.00    +0.170 C 
ATOM     26  C   LIG    1        0.345  -0.578   0.530  0.00  0.00    +0.050 C 
BRANCH  25  27
ATOM     27  O   LIG    1        1.328   1.558  -0.033  0.00  0.00    -0.560 OA
ATOM     28  H   LIG    1        1.240   2.463  -0.362  0.00  0.00    +0.380 HD
ENDBRANCH  25  27
ENDBRANCH  24  25
ENDBRANCH  17  24
ENDBRANCH  16  17
ENDBRANCH   4  16
TORSDOF 9
