REMARK  Name = ZINCrH00000No4Gu.0
REMARK                            x       y       z     vdW  Elec       q    Type
REMARK                         _______ _______ _______ _____ _____    ______ ____
ROOT
ATOM      1  C   LIG    1       -0.742   1.585  -1.213  0.00  0.00    +0.520 C 
ATOM      2  N   LIG    1       -0.288   1.272  -2.443  0.00  0.00    -0.610 N 
ATOM      3  C   LIG    1        0.918   0.451  -2.610  0.00  0.00    +0.260 C 
ATOM      4  C   LIG    1        0.577  -0.739  -3.520  0.00  0.00    +0.020 C 
ATOM      5  C   LIG    1       -0.014  -0.217  -4.832  0.00  0.00    +0.000 C 
ATOM      6  C   LIG    1       -1.305   0.552  -4.541  0.00  0.00    +0.020 C 
ATOM      7  C   LIG    1       -0.988   1.752  -3.643  0.00  0.00    +0.280 C 
ATOM      8  O   LIG    1       -1.736   2.268  -1.088  0.00  0.00    -0.520 OA
ENDROOT
BRANCH   1   9
ATOM      9  C   LIG    1       -0.013   1.086   0.008  0.00  0.00    +0.250 C 
BRANCH   9  10
ATOM     10  O   LIG    1       -0.682   1.547   1.184  0.00  0.00    -0.320 OA
BRANCH  10  12
ATOM     11  O   LIG    1        0.849   0.496   2.406  0.00  0.00    -0.510 OA
ATOM     12  C   LIG    1       -0.153   1.185   2.371  0.00  0.00    +0.500 C 
BRANCH  12  13
ATOM     13  C   LIG    1       -0.784   1.620   3.616  0.00  0.00    -0.050 C 
ATOM     14  C   LIG    1       -0.255   1.258   4.803  0.00  0.00    +0.140 C 
BRANCH  14  15
ATOM     15  C   LIG    1       -0.891   1.696   6.056  0.00  0.00    -0.090 A 
ATOM     16  C   LIG    1       -2.040   2.493   6.020  0.00  0.00    +0.030 A 
ATOM     17  C   LIG    1       -2.633   2.894   7.199  0.00  0.00    +0.010 A 
ATOM     18  C   LIG    1       -2.087   2.521   8.414  0.00  0.00    +0.030 A 
ATOM     19  C   LIG    1       -0.947   1.738   8.458  0.00  0.00    +0.010 A 
ATOM     20  C   LIG    1       -0.346   1.323   7.289  0.00  0.00    +0.040 A 
ENDBRANCH  14  15
ENDBRANCH  12  13
ENDBRANCH  10  12
ENDBRANCH   9  10
ENDBRANCH   1   9
BRANCH   5  21
ATOM     21  C   LIG    1       -0.321  -1.397  -5.757  0.00  0.00    +0.070 C 
BRANCH  21  22
ATOM     22  C   LIG    1        0.966  -2.081  -6.142  0.00  0.00    -0.080 A 
ATOM     23  C   LIG    1        1.652  -1.678  -7.272  0.00  0.00    +0.000 A 
ATOM     24  C   LIG    1        2.834  -2.303  -7.623  0.00  0.00    +0.000 A 
ATOM     25  C   LIG    1        3.325  -3.337  -6.848  0.00  0.00    +0.000 A 
ATOM     26  C   LIG    1        2.637  -3.743  -5.721  0.00  0.00    +0.000 A 
ATOM     27  C   LIG    1        1.457  -3.115  -5.367  0.00  0.00    +0.000 A 
ENDBRANCH  21  22
ENDBRANCH   5  21
TORSDOF 7
