REMARK  Name = ZINCrH00000tj1mU.0
REMARK                            x       y       z     vdW  Elec       q    Type
REMARK                         _______ _______ _______ _____ _____    ______ ____
ROOT
ATOM      1  C   LIG    1       -0.727   8.156  -1.034  0.00  0.00    +0.100 C 
ATOM      2  C   LIG    1       -1.675   7.086  -0.555  0.00  0.00    -0.110 A 
ATOM      3  C   LIG    1       -2.961   7.434  -0.200  0.00  0.00    +0.050 A 
ATOM      4  C   LIG    1       -3.878   6.496   0.249  0.00  0.00    -0.010 A 
ATOM      5  C   LIG    1       -3.449   5.171   0.328  0.00  0.00    +0.140 A 
ATOM      6  N   LIG    1       -4.142   4.045   0.736  0.00  0.00    -0.660 N 
ATOM      7  H   LIG    1       -5.066   4.054   1.030  0.00  0.00    +0.410 HD
ATOM      8  C   LIG    1       -3.381   2.932   0.674  0.00  0.00    +0.500 C 
ATOM      9  C   LIG    1       -2.021   3.354   0.166  0.00  0.00    +0.220 C 
ATOM     10  N   LIG    1       -0.986   3.036   1.157  0.00  0.00    -0.650 NA
ATOM     11  H   LIG    1       -1.214   3.429   2.057  0.00  0.00    +0.350 HD
ATOM     12  C   LIG    1       -0.748   1.589   1.258  0.00  0.00    +0.190 C 
ATOM     13  C   LIG    1       -0.013   1.086   0.008  0.00  0.00    +0.110 C 
ATOM     14  C   LIG    1       -0.758   1.593  -1.201  0.00  0.00    -0.140 A 
ATOM     15  C   LIG    1       -0.698   1.196  -2.476  0.00  0.00    +0.030 A 
ATOM     16  N   LIG    1       -1.573   1.962  -3.200  0.00  0.00    -0.410 N 
ATOM     17  C   LIG    1       -2.183   2.850  -2.355  0.00  0.00    +0.060 A 
ATOM     18  C   LIG    1       -3.217   3.875  -2.746  0.00  0.00    +0.130 C 
ATOM     19  C   LIG    1        0.179   0.099  -3.021  0.00  0.00    +0.130 C 
ATOM     20  C   LIG    1       -1.702   2.651  -1.124  0.00  0.00    -0.150 A 
ATOM     21  O   LIG    1       -3.723   1.806   0.970  0.00  0.00    -0.490 OA
ATOM     22  C   LIG    1       -2.140   4.831  -0.037  0.00  0.00    -0.120 A 
ATOM     23  C   LIG    1       -1.234   5.769  -0.481  0.00  0.00    +0.110 A 
ENDROOT
BRANCH  16  24
ATOM     24  C   LIG    1       -1.806   1.853  -4.578  0.00  0.00    +0.120 A 
ATOM     25  C   LIG    1       -1.475   2.903  -5.424  0.00  0.00    +0.020 A 
ATOM     26  C   LIG    1       -1.700   2.791  -6.782  0.00  0.00    +0.020 A 
ATOM     27  C   LIG    1       -2.266   1.639  -7.298  0.00  0.00    +0.020 A 
ATOM     28  C   LIG    1       -2.601   0.594  -6.457  0.00  0.00    +0.020 A 
ATOM     29  C   LIG    1       -2.373   0.698  -5.099  0.00  0.00    +0.020 A 
ENDBRANCH  16  24
TORSDOF 1
