REMARK  Name = ZINCrH00000No4Y3.0
REMARK                            x       y       z     vdW  Elec       q    Type
REMARK                         _______ _______ _______ _____ _____    ______ ____
ROOT
ATOM      1  N   LIG    1       -2.880   1.120  -3.048  0.00  0.00    -0.510 NA
ENDROOT
BRANCH   1   2
ATOM      2  C   LIG    1       -3.288   2.483  -3.413  0.00  0.00    +0.280 C 
BRANCH   2   4
ATOM      3  C   LIG    1       -1.026   3.658  -3.461  0.00  0.00    +0.110 A 
ATOM      4  C   LIG    1       -2.253   3.465  -2.926  0.00  0.00    -0.230 A 
ATOM      5  C   LIG    1       -2.390   4.333  -1.838  0.00  0.00    +0.240 A 
ATOM      6  N   LIG    1       -1.286   5.027  -1.727  0.00  0.00    -0.300 NA
ATOM      7  N   LIG    1       -0.411   4.621  -2.743  0.00  0.00    -0.370 N 
BRANCH   3   9
ATOM      8  C   LIG    1        0.287   1.678  -4.171  0.00  0.00    +0.040 C 
ATOM      9  C   LIG    1       -0.449   2.931  -4.649  0.00  0.00    +0.100 C 
ENDBRANCH   3   9
BRANCH   7  10
ATOM     10  C   LIG    1        0.937   5.145  -2.979  0.00  0.00    +0.310 C 
ATOM     11  C   LIG    1        1.952   4.318  -2.187  0.00  0.00    +0.030 C 
ENDBRANCH   7  10
ENDBRANCH   2   4
ENDBRANCH   1   2
BRANCH   1  12
ATOM     12  C   LIG    1       -2.845   0.954  -1.589  0.00  0.00    +0.220 C 
BRANCH  12  13
ATOM     13  C   LIG    1       -4.255   1.132  -1.022  0.00  0.00    +0.120 C 
ATOM     14  O   LIG    1       -4.672   2.494  -1.175  0.00  0.00    -0.360 OA
ATOM     15  C   LIG    1       -4.904   3.084   0.114  0.00  0.00    +0.200 C 
ATOM     16  C   LIG    1       -5.220   1.894   1.055  0.00  0.00    +0.020 C 
ATOM     17  C   LIG    1       -4.259   0.810   0.488  0.00  0.00    +0.160 C 
ATOM     18  F   LIG    1       -2.977   0.949   1.030  0.00  0.00    -0.200 F 
ENDBRANCH  12  13
ENDBRANCH   1  12
BRANCH   1  19
ATOM     19  C   LIG    1       -3.759   0.122  -3.671  0.00  0.00    +0.260 C 
BRANCH  19  20
ATOM     20  C   LIG    1       -3.173  -1.253  -3.481  0.00  0.00    +0.140 A 
ATOM     21  N   LIG    1       -2.349  -1.741  -4.387  0.00  0.00    -0.430 NA
ATOM     22  C   LIG    1       -1.807  -2.938  -4.260  0.00  0.00    +0.170 A 
ATOM     23  C   LIG    1       -2.098  -3.734  -3.166  0.00  0.00    +0.030 A 
ATOM     24  C   LIG    1       -2.964  -3.257  -2.195  0.00  0.00    +0.070 A 
ATOM     25 CL   LIG    1       -0.723  -3.523  -5.482  0.00  0.00    -0.020 Cl
ATOM     26  C   LIG    1       -3.510  -1.991  -2.360  0.00  0.00    +0.050 A 
ATOM     27  F   LIG    1       -4.359  -1.487  -1.438  0.00  0.00    -0.120 F 
ENDBRANCH  19  20
ENDBRANCH   1  19
TORSDOF 8
