REMARK  Name = ZINCtV000002MmBG.0
REMARK                            x       y       z     vdW  Elec       q    Type
REMARK                         _______ _______ _______ _____ _____    ______ ____
ROOT
ATOM      1  C   LIG    1        0.584   7.623  -0.238  0.00  0.00    +0.150 A 
ATOM      2  N   LIG    1       -0.711   7.815  -0.294  0.00  0.00    -0.470 NA
ATOM      3  C   LIG    1       -1.332   6.617  -0.255  0.00  0.00    +0.060 A 
ATOM      4  C   LIG    1       -0.351   5.653  -0.162  0.00  0.00    +0.010 A 
ATOM      5  O   LIG    1        0.835   6.306  -0.157  0.00  0.00    -0.170 OA
ENDROOT
BRANCH   4   6
ATOM      6  C   LIG    1       -0.553   4.194  -0.088  0.00  0.00    -0.020 A 
ATOM      7  C   LIG    1        0.195   3.340  -0.903  0.00  0.00    +0.040 A 
ATOM      8  C   LIG    1        0.000   1.976  -0.828  0.00  0.00    +0.010 A 
ATOM      9  C   LIG    1       -0.932   1.454   0.051  0.00  0.00    +0.030 A 
ATOM     10  C   LIG    1       -1.680   2.295   0.858  0.00  0.00    +0.010 A 
ATOM     11  C   LIG    1       -1.493   3.660   0.797  0.00  0.00    +0.050 A 
ENDBRANCH   4   6
BRANCH   3  12
ATOM     12  C   LIG    1       -2.794   6.381  -0.300  0.00  0.00    -0.020 A 
ATOM     13  C   LIG    1       -3.306   5.287  -0.996  0.00  0.00    +0.030 A 
ATOM     14  C   LIG    1       -4.668   5.069  -1.030  0.00  0.00    +0.010 A 
ATOM     15  C   LIG    1       -5.527   5.941  -0.384  0.00  0.00    +0.020 A 
ATOM     16  C   LIG    1       -5.025   7.032   0.304  0.00  0.00    +0.010 A 
ATOM     17  C   LIG    1       -3.665   7.257   0.349  0.00  0.00    +0.040 A 
ENDBRANCH   3  12
BRANCH   1  18
ATOM     18  S   LIG    1        1.805   8.893  -0.266  0.00  0.00    +0.140 S 
BRANCH  18  19
ATOM     19  C   LIG    1        0.739  10.351  -0.384  0.00  0.00    +0.120 C 
BRANCH  19  21
ATOM     20  O   LIG    1        2.799  11.503  -0.376  0.00  0.00    -0.500 OA
ATOM     21  C   LIG    1        1.590  11.594  -0.423  0.00  0.00    +0.540 C 
ATOM     22  N   LIG    1        1.008  12.806  -0.510  0.00  0.00    -0.660 N 
ATOM     23  H   LIG    1        0.043  12.885  -0.468  0.00  0.00    +0.420 HD
BRANCH  22  24
ATOM     24  C   LIG    1        1.798  13.952  -0.661  0.00  0.00    +0.180 A 
ATOM     25  C   LIG    1        3.102  13.842  -1.125  0.00  0.00    +0.030 A 
ATOM     26  C   LIG    1        3.879  14.974  -1.274  0.00  0.00    +0.060 A 
ATOM     27  C   LIG    1        3.360  16.217  -0.961  0.00  0.00    +0.000 A 
ATOM     28  C   LIG    1        2.062  16.331  -0.498  0.00  0.00    +0.070 A 
ATOM     29  C   LIG    1        1.277  15.203  -0.353  0.00  0.00    -0.130 A 
ATOM     30 BR   LIG    1       -0.501  15.360   0.272  0.00  0.00    -0.040 Br
ENDBRANCH  22  24
ENDBRANCH  19  21
ENDBRANCH  18  19
ENDBRANCH   1  18
TORSDOF 6
