REMARK  Name = ZINCvU0000000HpO.0
REMARK                            x       y       z     vdW  Elec       q    Type
REMARK                         _______ _______ _______ _____ _____    ______ ____
ROOT
ATOM      1  C   LIG    1       -2.408   1.866   0.070  0.00  0.00    +0.570 C 
ATOM      2  N   LIG    1       -1.208   2.480   0.080  0.00  0.00    -0.620 N 
ATOM      3  H   LIG    1       -1.158   3.448   0.114  0.00  0.00    +0.420 HD
ATOM      4  O   LIG    1       -2.470   0.653   0.026  0.00  0.00    -0.490 OA
ENDROOT
BRANCH   1   8
ATOM      5  C   LIG    1       -5.972   4.172   0.191  0.00  0.00    +0.230 A 
ATOM      6  C   LIG    1       -4.735   4.806   0.202  0.00  0.00    -0.060 A 
ATOM      7  C   LIG    1       -3.577   4.062   0.168  0.00  0.00    +0.160 A 
ATOM      8  C   LIG    1       -3.646   2.667   0.112  0.00  0.00    -0.180 A 
ATOM      9  C   LIG    1       -4.892   2.033   0.101  0.00  0.00    +0.230 A 
ATOM     10  C   LIG    1       -6.045   2.784   0.141  0.00  0.00    -0.090 A 
BRANCH  10  11
ATOM     11  N   LIG    1       -7.365   2.114   0.130  0.00  0.00    +0.030 N 
ATOM     12  O   LIG    1       -8.385   2.777   0.165  0.00  0.00    -0.130 OA
ATOM     13  O   LIG    1       -7.430   0.898   0.086  0.00  0.00    -0.170 OA
ENDBRANCH  10  11
BRANCH   5  14
ATOM     14  O   LIG    1       -7.111   4.908   0.231  0.00  0.00    -0.270 OA
BRANCH  14  16
ATOM     15  C   LIG    1       -8.345   6.984   0.320  0.00  0.00    +0.080 C 
ATOM     16  C   LIG    1       -6.963   6.329   0.281  0.00  0.00    +0.180 C 
ENDBRANCH  14  16
ENDBRANCH   5  14
ENDBRANCH   1   8
BRANCH   2  17
ATOM     17  C   LIG    1       -0.043   1.726   0.040  0.00  0.00    +0.260 A 
ATOM     18  N   LIG    1        1.162   2.207   0.040  0.00  0.00    -0.490 NA
ATOM     19  C   LIG    1        2.159   1.334  -0.007  0.00  0.00    +0.120 A 
ATOM     20  C   LIG    1        1.791   0.041  -0.049  0.00  0.00    -0.240 A 
ATOM     21  C   LIG    1        2.724  -1.141  -0.106  0.00  0.00    +0.150 C 
ATOM     22  S   LIG    1        0.031  -0.032  -0.025  0.00  0.00    +0.210 S 
BRANCH  19  23
ATOM     23  C   LIG    1        3.581   1.755  -0.012  0.00  0.00    -0.040 A 
ATOM     24  C   LIG    1        4.013   2.768   0.843  0.00  0.00    +0.080 A 
ATOM     25  C   LIG    1        5.337   3.153   0.839  0.00  0.00    -0.050 A 
ATOM     26  C   LIG    1        6.237   2.541  -0.022  0.00  0.00    +0.110 A 
ATOM     27  C   LIG    1        5.809   1.536  -0.878  0.00  0.00    +0.010 A 
ATOM     28  C   LIG    1        4.487   1.143  -0.876  0.00  0.00    +0.070 A 
BRANCH  26  29
ATOM     29  O   LIG    1        7.541   2.926  -0.027  0.00  0.00    -0.320 OA
BRANCH  29  30
ATOM     30  C   LIG    1        7.913   3.966   0.880  0.00  0.00    +0.590 C 
ATOM     31  F   LIG    1        7.647   3.559   2.192  0.00  0.00    -0.200 F 
ATOM     32  F   LIG    1        7.178   5.121   0.592  0.00  0.00    -0.200 F 
ENDBRANCH  29  30
ENDBRANCH  26  29
ENDBRANCH  19  23
ENDBRANCH   2  17
TORSDOF 8
