REMARK  Name = ZINCvU0000000IIT.0
REMARK                            x       y       z     vdW  Elec       q    Type
REMARK                         _______ _______ _______ _____ _____    ______ ____
ROOT
ATOM      1  C   LIG    1       -2.357  -0.207   2.462  0.00  0.00    -0.660 A 
ATOM      2  C   LIG    1       -3.496   0.004   3.218  0.00  0.00    +0.110 A 
ATOM      3  C   LIG    1       -3.396   0.204   4.583  0.00  0.00    +0.020 A 
ATOM      4  C   LIG    1       -2.158   0.194   5.195  0.00  0.00    -0.060 A 
ATOM      5  C   LIG    1       -1.012  -0.017   4.438  0.00  0.00    +0.130 A 
ATOM      6  C   LIG    1       -2.050   0.411   6.683  0.00  0.00    +0.100 C 
ATOM      7  C   LIG    1       -1.117  -0.223   3.069  0.00  0.00    +0.150 A 
ENDROOT
BRANCH   5   8
ATOM      8  N   LIG    1        0.243  -0.028   5.055  0.00  0.00    -0.660 N 
ATOM      9  H   LIG    1        0.375   0.441   5.894  0.00  0.00    +0.410 HD
ATOM     10  C   LIG    1        1.268  -0.690   4.484  0.00  0.00    +0.560 C 
ATOM     11  O   LIG    1        1.080  -1.358   3.486  0.00  0.00    -0.470 OA
BRANCH  10  12
ATOM     12  C   LIG    1        2.620  -0.604   5.070  0.00  0.00    -0.120 A 
ATOM     13  C   LIG    1        2.840   0.163   6.217  0.00  0.00    +0.080 A 
ATOM     14  C   LIG    1        4.106   0.240   6.761  0.00  0.00    +0.070 A 
ATOM     15  C   LIG    1        5.160  -0.444   6.170  0.00  0.00    +0.120 A 
ATOM     16  C   LIG    1        4.948  -1.205   5.032  0.00  0.00    +0.040 A 
ATOM     17  F   LIG    1        6.398  -0.365   6.707  0.00  0.00    -0.110 F 
ATOM     18  F   LIG    1        4.319   0.981   7.870  0.00  0.00    -0.120 F 
ATOM     19  C   LIG    1        3.685  -1.294   4.483  0.00  0.00    +0.030 A 
ATOM     20 CL   LIG    1        3.420  -2.255   3.062  0.00  0.00    +0.010 Cl
ENDBRANCH  10  12
ENDBRANCH   5   8
BRANCH   1  21
ATOM     21  S   LIG    1       -2.490  -0.462   0.724  0.00  0.00    +2.690 S 
ATOM     22  O   LIG    1       -1.323  -1.172   0.332  0.00  0.00    -0.940 OA
ATOM     23  O   LIG    1       -3.807  -0.942   0.488  0.00  0.00    -0.950 OA
BRANCH  21  24
ATOM     24  N   LIG    1       -2.398   1.025   0.001  0.00  0.00    -1.050 N 
ATOM     25  H   LIG    1       -3.135   1.347  -0.541  0.00  0.00    +0.430 HD
BRANCH  24  30
ATOM     26  C   LIG    1        2.228   4.233   0.687  0.00  0.00    +0.100 C 
ATOM     27  C   LIG    1        0.998   3.380   0.507  0.00  0.00    -0.100 A 
ATOM     28  C   LIG    1        1.119   2.006   0.418  0.00  0.00    +0.030 A 
ATOM     29  C   LIG    1       -0.006   1.221   0.253  0.00  0.00    +0.000 A 
ATOM     30  C   LIG    1       -1.259   1.815   0.173  0.00  0.00    +0.150 A 
ATOM     31  C   LIG    1       -1.377   3.196   0.268  0.00  0.00    -0.100 A 
ATOM     32  C   LIG    1       -2.735   3.844   0.186  0.00  0.00    +0.090 C 
ATOM     33  C   LIG    1       -0.249   3.974   0.432  0.00  0.00    +0.030 A 
ENDBRANCH  24  30
ENDBRANCH  21  24
ENDBRANCH   1  21
TORSDOF 5
