REMARK  Name = ZINCpe000000UwJx.0
REMARK                            x       y       z     vdW  Elec       q    Type
REMARK                         _______ _______ _______ _____ _____    ______ ____
ROOT
ATOM      1  C   LIG    1        2.218  -0.224   6.131  0.00  0.00    +0.560 C 
ATOM      2  N   LIG    1        1.397  -0.921   6.942  0.00  0.00    -0.610 N 
ATOM      3  C   LIG    1        0.088  -1.392   6.467  0.00  0.00    +0.280 C 
ATOM      4  C   LIG    1       -0.026  -2.893   6.777  0.00  0.00    +0.180 C 
ATOM      5  N   LIG    1        0.231  -3.114   8.206  0.00  0.00    -0.520 NA
ATOM      6  C   LIG    1        1.602  -2.727   8.567  0.00  0.00    +0.190 C 
ATOM      7  C   LIG    1        1.784  -1.224   8.328  0.00  0.00    +0.300 C 
ATOM      8  O   LIG    1        3.337   0.070   6.506  0.00  0.00    -0.520 OA
ENDROOT
BRANCH   1  12
ATOM      9  C   LIG    1        0.894   0.945   2.268  0.00  0.00    +0.080 A 
ATOM     10  C   LIG    1        0.026   1.022   3.353  0.00  0.00    +0.010 A 
ATOM     11  C   LIG    1        0.453   0.643   4.606  0.00  0.00    +0.050 A 
ATOM     12  C   LIG    1        1.759   0.181   4.789  0.00  0.00    -0.110 A 
ATOM     13  C   LIG    1        2.630   0.105   3.698  0.00  0.00    +0.050 A 
ATOM     14  C   LIG    1        2.196   0.480   2.446  0.00  0.00    +0.120 A 
ATOM     15  F   LIG    1        3.035   0.402   1.389  0.00  0.00    -0.120 F 
BRANCH   9  17
ATOM     16  C   LIG    1        0.041   2.737   0.994  0.00  0.00    +0.220 C 
ATOM     17  N   LIG    1        0.459   1.329   1.003  0.00  0.00    -0.510 N 
ATOM     18  C   LIG    1       -0.623   0.455   0.531  0.00  0.00    +0.220 C 
ENDBRANCH   9  17
ENDBRANCH   1  12
BRANCH   5  19
ATOM     19  C   LIG    1       -0.038  -4.508   8.581  0.00  0.00    +0.150 C 
ATOM     20  C   LIG    1       -1.477  -4.890   8.192  0.00  0.00    +0.080 C 
ATOM     21  C   LIG    1       -1.843  -6.215   8.891  0.00  0.00    -0.310 C 
ATOM     22  S   LIG    1       -0.827  -6.248  10.411  0.00  0.00    +2.390 S 
ATOM     23  O   LIG    1       -1.671  -6.108  11.545  0.00  0.00    -0.930 OA
ATOM     24  O   LIG    1        0.092  -7.331  10.340  0.00  0.00    -0.930 OA
ATOM     25  C   LIG    1        0.066  -4.674  10.119  0.00  0.00    -0.300 C 
ENDBRANCH   5  19
TORSDOF 3
