REMARK  Name = ZINCqH00000363m2.0
REMARK                            x       y       z     vdW  Elec       q    Type
REMARK                         _______ _______ _______ _____ _____    ______ ____
ROOT
ATOM      1  N   LIG    1       -6.211   1.596   1.978  0.00  0.00    -0.720 N 
ATOM      2  H   LIG    1       -6.021   2.196   1.239  0.00  0.00    +0.400 HD
ATOM      3  C   LIG    1       -5.294   0.684   2.358  0.00  0.00    +0.600 C 
ATOM      4  O   LIG    1       -5.532  -0.067   3.284  0.00  0.00    -0.530 OA
ENDROOT
BRANCH   3   5
ATOM      5  C   LIG    1       -4.002   0.599   1.653  0.00  0.00    -0.290 A 
ATOM      6  C   LIG    1       -2.847   1.283   1.973  0.00  0.00    +0.130 A 
ATOM      7  N   LIG    1       -1.907   0.923   1.084  0.00  0.00    -0.350 N 
ATOM      8  N   LIG    1       -2.468  -0.003   0.196  0.00  0.00    -0.290 NA
ATOM      9  C   LIG    1       -2.672   2.256   3.110  0.00  0.00    +0.150 C 
ATOM     10  C   LIG    1       -3.714  -0.203   0.526  0.00  0.00    +0.110 A 
ATOM     11  C   LIG    1       -4.677  -1.127  -0.173  0.00  0.00    +0.160 C 
BRANCH   7  12
ATOM     12  C   LIG    1       -0.527   1.412   1.052  0.00  0.00    +0.180 C 
ATOM     13  C   LIG    1       -0.528   2.942   1.027  0.00  0.00    +0.050 C 
ATOM     14  C   LIG    1        0.216   0.923   2.297  0.00  0.00    +0.050 C 
ATOM     15  C   LIG    1        0.173   0.882  -0.201  0.00  0.00    +0.070 C 
ENDBRANCH   7  12
ENDBRANCH   3   5
BRANCH   1  16
ATOM     16  C   LIG    1       -7.495   1.681   2.679  0.00  0.00    +0.300 C 
ATOM     17  C   LIG    1       -7.370   2.651   3.855  0.00  0.00    +0.050 C 
BRANCH  16  22
ATOM     18  C   LIG    1       -9.178   3.432  -0.216  0.00  0.00    +0.100 A 
ATOM     19  C   LIG    1      -10.506   3.088  -0.015  0.00  0.00    -0.040 A 
ATOM     20  C   LIG    1      -10.857   2.289   1.056  0.00  0.00    -0.030 A 
ATOM     21  C   LIG    1       -9.883   1.832   1.930  0.00  0.00    +0.100 A 
ATOM     22  C   LIG    1       -8.554   2.177   1.729  0.00  0.00    -0.080 A 
ATOM     23  C   LIG    1       -8.203   2.979   0.661  0.00  0.00    +0.020 A 
BRANCH  18  25
ATOM     24  C   LIG    1       -9.887   4.653  -2.130  0.00  0.00    +0.250 C 
ATOM     25  O   LIG    1       -8.831   4.218  -1.271  0.00  0.00    -0.320 OA
ENDBRANCH  18  25
BRANCH  21  26
ATOM     26  O   LIG    1      -10.229   1.046   2.984  0.00  0.00    -0.310 OA
ATOM     27  C   LIG    1      -11.615   0.731   3.131  0.00  0.00    +0.250 C 
ENDBRANCH  21  26
ENDBRANCH  16  22
ENDBRANCH   1  16
TORSDOF 6
