REMARK  Name = ZINCDN0000000csm.0
REMARK                            x       y       z     vdW  Elec       q    Type
REMARK                         _______ _______ _______ _____ _____    ______ ____
ROOT
ATOM      1  C   LIG    1       -2.442   1.065  -0.005  0.00  0.00    +0.570 C 
ATOM      2  N   LIG    1       -3.628   1.695   0.106  0.00  0.00    -0.610 N 
ATOM      3  C   LIG    1       -3.696   3.162   0.155  0.00  0.00    +0.270 C 
ATOM      4  C   LIG    1       -4.668   3.643  -0.932  0.00  0.00    +0.030 C 
ATOM      5  C   LIG    1       -6.018   2.946  -0.746  0.00  0.00    +0.000 C 
ATOM      6  C   LIG    1       -5.838   1.433  -0.896  0.00  0.00    +0.050 C 
ATOM      7  C   LIG    1       -4.878   0.927   0.186  0.00  0.00    +0.280 C 
ATOM      8  O   LIG    1       -2.405  -0.143  -0.137  0.00  0.00    -0.530 OA
ENDROOT
BRANCH   1  14
ATOM      9  N   LIG    1        2.197   4.185   0.333  0.00  0.00    -0.440 N 
ATOM     10  C   LIG    1        1.713   5.110   1.209  0.00  0.00    +0.490 A 
ATOM     11  N   LIG    1        0.480   4.832   1.517  0.00  0.00    -0.480 NA
ATOM     12  C   LIG    1        0.088   3.709   0.860  0.00  0.00    +0.040 A 
ATOM     13  C   LIG    1       -1.103   2.985   0.825  0.00  0.00    +0.120 A 
ATOM     14  C   LIG    1       -1.187   1.843   0.034  0.00  0.00    -0.140 A 
ATOM     15  C   LIG    1       -0.087   1.432  -0.730  0.00  0.00    +0.090 A 
ATOM     16  C   LIG    1        1.080   2.139  -0.698  0.00  0.00    +0.020 A 
ATOM     17  C   LIG    1        1.185   3.279   0.091  0.00  0.00    +0.070 A 
BRANCH   9  23
ATOM     18  C   LIG    1        7.055   3.715   0.938  0.00  0.00    +0.090 C 
ATOM     19  C   LIG    1        5.856   3.933   0.051  0.00  0.00    -0.080 A 
ATOM     20  C   LIG    1        6.027   4.107  -1.310  0.00  0.00    +0.030 A 
ATOM     21  C   LIG    1        4.929   4.307  -2.127  0.00  0.00    +0.030 A 
ATOM     22  C   LIG    1        3.659   4.333  -1.586  0.00  0.00    -0.070 A 
ATOM     23  C   LIG    1        3.484   4.158  -0.220  0.00  0.00    +0.110 A 
ATOM     24  C   LIG    1        2.463   4.550  -2.478  0.00  0.00    +0.100 C 
ATOM     25  C   LIG    1        4.588   3.963   0.599  0.00  0.00    +0.030 A 
ENDBRANCH   9  23
ENDBRANCH   1  14
BRANCH   5  26
ATOM     26  C   LIG    1       -6.987   3.442  -1.788  0.00  0.00    +0.510 C 
ATOM     27  N   LIG    1       -7.301   4.751  -1.847  0.00  0.00    -0.670 N 
ATOM     28  H   LIG    1       -6.848   5.385  -1.269  0.00  0.00    +0.410 HD
ATOM     29  O   LIG    1       -7.485   2.663  -2.573  0.00  0.00    -0.500 OA
BRANCH  27  30
ATOM     30  C   LIG    1       -8.281   5.196  -2.741  0.00  0.00    +0.140 A 
ATOM     31  C   LIG    1       -8.245   6.500  -3.219  0.00  0.00    -0.050 A 
ATOM     32  C   LIG    1       -9.208   6.943  -4.106  0.00  0.00    +0.020 A 
ATOM     33  C   LIG    1      -10.217   6.095  -4.516  0.00  0.00    +0.010 A 
ATOM     34  C   LIG    1      -10.265   4.785  -4.037  0.00  0.00    +0.070 A 
ATOM     35  C   LIG    1       -9.291   4.337  -3.147  0.00  0.00    +0.040 A 
BRANCH  34  36
ATOM     36  C   LIG    1      -11.347   3.874  -4.474  0.00  0.00    +0.070 A 
ATOM     37  N   LIG    1      -11.517   2.603  -4.107  0.00  0.00    -0.360 NA
ATOM     38  N   LIG    1      -12.572   2.165  -4.704  0.00  0.00    -0.190 NA
ATOM     39  N   LIG    1      -13.067   3.103  -5.434  0.00  0.00    -0.190 NA
ATOM     40  N   LIG    1      -12.341   4.161  -5.316  0.00  0.00    -0.370 NA
ENDBRANCH  34  36
ENDBRANCH  27  30
ENDBRANCH   5  26
TORSDOF 5
