REMARK  Name = ZINCnE000001P15K.0
REMARK                            x       y       z     vdW  Elec       q    Type
REMARK                         _______ _______ _______ _____ _____    ______ ____
ROOT
ATOM      1  C   LIG    1       -2.390   1.131   3.380  0.00  0.00    +0.580 C 
ATOM      2  N   LIG    1       -1.667   1.445   2.287  0.00  0.00    -0.610 N 
ATOM      3  C   LIG    1       -0.710   2.564   2.121  0.00  0.00    +0.250 C 
ATOM      4  C   LIG    1        0.452   1.964   1.301  0.00  0.00    +0.070 C 
ATOM      5  C   LIG    1       -0.167   0.768   0.548  0.00  0.00    -0.200 C 
ATOM      6  C   LIG    1       -1.649   0.750   0.979  0.00  0.00    +0.310 C 
ATOM      7  O   LIG    1       -3.198   0.225   3.334  0.00  0.00    -0.510 OA
ENDROOT
BRANCH   1  12
ATOM      8  C   LIG    1       -1.648   4.082   8.265  0.00  0.00    +0.100 C 
ATOM      9  C   LIG    1       -1.842   3.308   6.987  0.00  0.00    -0.060 A 
ATOM     10  C   LIG    1       -1.993   1.934   7.030  0.00  0.00    +0.020 A 
ATOM     11  C   LIG    1       -2.171   1.219   5.861  0.00  0.00    +0.010 A 
ATOM     12  C   LIG    1       -2.199   1.888   4.635  0.00  0.00    -0.110 A 
ATOM     13  C   LIG    1       -2.040   3.275   4.600  0.00  0.00    +0.060 A 
ATOM     14 CL   LIG    1       -2.362  -0.505   5.916  0.00  0.00    -0.040 Cl
ATOM     15  C   LIG    1       -1.869   3.976   5.775  0.00  0.00    -0.090 A 
ATOM     16  C   LIG    1       -1.704   5.474   5.739  0.00  0.00    +0.090 C 
ENDBRANCH   1  12
BRANCH   5  17
ATOM     17  C   LIG    1       -0.052   0.974  -0.963  0.00  0.00    +0.470 C 
ATOM     18  F   LIG    1        1.298   1.054  -1.322  0.00  0.00    -0.180 F 
ATOM     19  F   LIG    1       -0.701   2.160  -1.323  0.00  0.00    -0.190 F 
ATOM     20  F   LIG    1       -0.648  -0.103  -1.627  0.00  0.00    -0.180 F 
ENDBRANCH   5  17
BRANCH   5  21
ATOM     21  C   LIG    1        0.513  -0.514   0.954  0.00  0.00    +0.510 C 
ATOM     22  O   LIG    1        1.684  -0.504   1.292  0.00  0.00    -0.670 OA
ATOM     23  O   LIG    1       -0.108  -1.564   0.940  0.00  0.00    -0.660 OA
ENDBRANCH   5  21
TORSDOF 3
