REMARK  Name = ZINCpe000027pHiw.0
REMARK                            x       y       z     vdW  Elec       q    Type
REMARK                         _______ _______ _______ _____ _____    ______ ____
ROOT
ATOM      1  C   LIG    1       -3.437   5.505  -1.065  0.00  0.00    +0.350 C 
ENDROOT
BRANCH   1   2
ATOM      2  C   LIG    1       -4.508   5.194  -0.052  0.00  0.00    -0.120 A 
ATOM      3  C   LIG    1       -5.530   4.320  -0.373  0.00  0.00    +0.030 A 
ATOM      4  C   LIG    1       -6.510   4.031   0.557  0.00  0.00    +0.010 A 
ATOM      5  C   LIG    1       -6.474   4.622   1.806  0.00  0.00    +0.020 A 
ATOM      6  C   LIG    1       -5.455   5.500   2.126  0.00  0.00    +0.010 A 
ATOM      7  C   LIG    1       -4.472   5.786   1.196  0.00  0.00    +0.030 A 
ENDBRANCH   1   2
BRANCH   1   9
ATOM      8  C   LIG    1       -4.571   6.809  -2.782  0.00  0.00    +0.660 C 
ATOM      9  N   LIG    1       -4.042   5.632  -2.393  0.00  0.00    -0.700 N 
ATOM     10  H   LIG    1       -4.062   4.869  -2.992  0.00  0.00    +0.420 HD
ATOM     11  O   LIG    1       -4.546   7.764  -2.032  0.00  0.00    -0.560 OA
BRANCH   8  12
ATOM     12  O   LIG    1       -5.128   6.926  -4.003  0.00  0.00    -0.360 OA
BRANCH  12  14
ATOM     13  C   LIG    1       -4.571   9.277  -4.305  0.00  0.00    +0.040 C 
ATOM     14  C   LIG    1       -5.678   8.222  -4.355  0.00  0.00    +0.140 C 
ATOM     15  C   LIG    1       -6.781   8.595  -3.363  0.00  0.00    +0.040 C 
ATOM     16  C   LIG    1       -6.262   8.162  -5.768  0.00  0.00    +0.080 C 
ENDBRANCH  12  14
ENDBRANCH   8  12
ENDBRANCH   1   9
BRANCH   1  17
ATOM     17  C   LIG    1       -2.421   4.391  -1.081  0.00  0.00    +0.530 C 
ATOM     18  N   LIG    1       -1.733   4.091   0.039  0.00  0.00    -0.490 N 
ATOM     19  H   LIG    1       -1.892   4.591   0.855  0.00  0.00    +0.430 HD
ATOM     20  O   LIG    1       -2.223   3.766  -2.100  0.00  0.00    -0.500 OA
BRANCH  18  21
ATOM     21  N   LIG    1       -0.789   3.056   0.025  0.00  0.00    -0.380 N 
ATOM     22  C   LIG    1        0.545   3.248   0.013  0.00  0.00    +0.520 C 
ATOM     23  C   LIG    1        1.158   1.862   0.001  0.00  0.00    +0.350 C 
ATOM     24  N   LIG    1       -0.011   0.966   0.007  0.00  0.00    -0.720 N 
ATOM     25  H   LIG    1        0.002  -0.004   0.002  0.00  0.00    +0.450 HD
ATOM     26  O   LIG    1        1.132   4.309   0.014  0.00  0.00    -0.450 OA
ATOM     27  C   LIG    1       -1.101   1.755   0.016  0.00  0.00    +0.700 C 
ATOM     28  O   LIG    1       -2.240   1.333   0.019  0.00  0.00    -0.520 OA
ENDBRANCH  18  21
ENDBRANCH   1  17
TORSDOF 6
