REMARK  Name = ZINCrD000000AkXE.0
REMARK                            x       y       z     vdW  Elec       q    Type
REMARK                         _______ _______ _______ _____ _____    ______ ____
ROOT
ATOM      1  N   LIG    1        3.334   8.088  -0.299  0.00  0.00    -0.570 N 
ATOM      2  C   LIG    1        3.244   8.904   0.759  0.00  0.00    +0.710 C 
ATOM      3  N   LIG    1        2.972  10.177   0.406  0.00  0.00    -0.710 N 
ATOM      4  H   LIG    1        2.862  10.935   1.000  0.00  0.00    +0.440 HD
ATOM      5  C   LIG    1        2.874  10.182  -1.054  0.00  0.00    +0.170 C 
ATOM      6  C   LIG    1        3.907  11.126  -1.681  0.00  0.00    +0.080 C 
ATOM      7  C   LIG    1        3.166  11.629  -2.941  0.00  0.00    +0.100 C 
ATOM      8  C   LIG    1        1.693  11.498  -2.615  0.00  0.00    -0.070 A 
ATOM      9  C   LIG    1        0.586  12.065  -3.222  0.00  0.00    +0.020 A 
ATOM     10  C   LIG    1       -0.683  11.799  -2.747  0.00  0.00    +0.030 A 
ATOM     11  C   LIG    1       -0.849  10.963  -1.659  0.00  0.00    +0.010 A 
ATOM     12  C   LIG    1        0.253  10.396  -1.050  0.00  0.00    +0.050 A 
ATOM     13  C   LIG    1        1.527  10.660  -1.524  0.00  0.00    -0.120 A 
ATOM     14  O   LIG    1        3.391   8.538   1.909  0.00  0.00    -0.530 OA
ATOM     15  C   LIG    1        3.133   8.753  -1.458  0.00  0.00    +0.550 C 
ATOM     16  O   LIG    1        3.154   8.298  -2.581  0.00  0.00    -0.450 OA
ENDROOT
BRANCH   1  17
ATOM     17  C   LIG    1        3.622   6.654  -0.212  0.00  0.00    +0.370 C 
BRANCH  17  19
ATOM     18  O   LIG    1        1.272   6.483  -0.078  0.00  0.00    -0.500 OA
ATOM     19  C   LIG    1        2.329   5.889  -0.091  0.00  0.00    +0.500 C 
ATOM     20  N   LIG    1        2.348   4.545   0.004  0.00  0.00    -0.670 N 
ATOM     21  H   LIG    1        3.194   4.075   0.071  0.00  0.00    +0.420 HD
BRANCH  20  22
ATOM     22  C   LIG    1        1.147   3.827   0.005  0.00  0.00    +0.170 A 
ATOM     23  C   LIG    1        0.063   4.283  -0.733  0.00  0.00    +0.040 A 
ATOM     24  C   LIG    1       -1.122   3.571  -0.730  0.00  0.00    -0.000 A 
ATOM     25  C   LIG    1       -1.230   2.408   0.012  0.00  0.00    +0.030 A 
ATOM     26  C   LIG    1       -0.150   1.948   0.744  0.00  0.00    -0.000 A 
ATOM     27 CL   LIG    1       -0.287   0.485   1.667  0.00  0.00    -0.050 Cl
ATOM     28 CL   LIG    1       -2.478   4.141  -1.652  0.00  0.00    -0.050 Cl
ATOM     29  C   LIG    1        1.038   2.656   0.745  0.00  0.00    +0.020 A 
ENDBRANCH  20  22
ENDBRANCH  17  19
ENDBRANCH   1  17
TORSDOF 3
