REMARK  Name = ZINCpe00000VVGq6.0
REMARK                            x       y       z     vdW  Elec       q    Type
REMARK                         _______ _______ _______ _____ _____    ______ ____
ROOT
ATOM      1  C   LIG    1        2.487  -4.213   2.761  0.00  0.00    +0.180 C 
ATOM      2  C   LIG    1        1.129  -4.380   3.446  0.00  0.00    +0.020 C 
ENDROOT
BRANCH   1   7
ATOM      3  C   LIG    1        1.771  -1.782  -0.025  0.00  0.00    +0.280 C 
ATOM      4  C   LIG    1        0.813  -2.647  -0.849  0.00  0.00    +0.020 C 
ATOM      5  C   LIG    1        1.287  -4.102  -0.807  0.00  0.00    +0.050 C 
ATOM      6  C   LIG    1        1.358  -4.569   0.649  0.00  0.00    +0.180 C 
ATOM      7  N   LIG    1        2.288  -3.711   1.395  0.00  0.00    -0.510 NA
ATOM      8  C   LIG    1        1.828  -2.316   1.408  0.00  0.00    +0.170 C 
BRANCH   3  12
ATOM      9  C   LIG    1       -1.247   2.219   0.020  0.00  0.00    +0.110 C 
ATOM     10  C   LIG    1       -0.016   1.349   0.009  0.00  0.00    -0.240 A 
ATOM     11  C   LIG    1        0.002  -0.004   0.002  0.00  0.00    +0.220 A 
ATOM     12  N   LIG    1        1.293  -0.398  -0.012  0.00  0.00    -0.370 N 
ATOM     13  N   LIG    1        2.094   0.751  -0.014  0.00  0.00    -0.290 NA
ATOM     14  C   LIG    1        1.308   1.797  -0.001  0.00  0.00    +0.230 A 
ENDBRANCH   3  12
ENDBRANCH   1   7
BRANCH   1  15
ATOM     15  C   LIG    1        3.192  -5.544   2.709  0.00  0.00    +0.520 C 
ATOM     16  N   LIG    1        3.482  -6.198   3.851  0.00  0.00    -0.600 N 
ATOM     17  C   LIG    1        3.112  -5.614   5.143  0.00  0.00    +0.290 C 
ATOM     18  O   LIG    1        3.497  -6.027   1.639  0.00  0.00    -0.510 OA
BRANCH  16  19
ATOM     19  C   LIG    1        4.166  -7.492   3.801  0.00  0.00    +0.270 C 
ATOM     20  C   LIG    1        3.314  -8.567   4.498  0.00  0.00    +0.060 C 
ATOM     21  C   LIG    1        4.188  -9.815   4.733  0.00  0.00    -0.310 C 
ATOM     22  S   LIG    1        5.897  -9.181   4.875  0.00  0.00    +2.400 S 
ATOM     23  O   LIG    1        6.351  -9.344   6.211  0.00  0.00    -0.930 OA
ATOM     24  O   LIG    1        6.675  -9.679   3.795  0.00  0.00    -0.930 OA
ATOM     25  C   LIG    1        5.506  -7.415   4.577  0.00  0.00    -0.320 C 
ENDBRANCH  16  19
ENDBRANCH   1  15
TORSDOF 4
