REMARK  Name = ZINCtV000002Er0T.0
REMARK                            x       y       z     vdW  Elec       q    Type
REMARK                         _______ _______ _______ _____ _____    ______ ____
ROOT
ATOM      1  O   LIG    1        3.501  -2.381   0.390  0.00  0.00    -0.330 OA
ENDROOT
BRANCH   1   3
ATOM      2  C   LIG    1        4.531  -0.769  -1.118  0.00  0.00    +0.070 C 
ATOM      3  C   LIG    1        3.743  -0.965   0.179  0.00  0.00    +0.190 C 
BRANCH   3   4
ATOM      4  C   LIG    1        2.426  -0.239   0.081  0.00  0.00    +0.520 C 
ATOM      5  N   LIG    1        2.403   1.105  -0.014  0.00  0.00    -0.660 N 
ATOM      6  H   LIG    1        3.233   1.599  -0.100  0.00  0.00    +0.420 HD
ATOM      7  O   LIG    1        1.387  -0.865   0.088  0.00  0.00    -0.490 OA
BRANCH   5   8
ATOM      8  C   LIG    1        1.180   1.787   0.011  0.00  0.00    +0.170 A 
ATOM      9  C   LIG    1        0.076   1.214   0.627  0.00  0.00    +0.050 A 
ATOM     10  C   LIG    1       -1.130   1.887   0.646  0.00  0.00    +0.070 A 
ATOM     11  C   LIG    1       -1.236   3.137   0.063  0.00  0.00    -0.040 A 
ATOM     12  C   LIG    1       -0.137   3.712  -0.552  0.00  0.00    +0.070 A 
ATOM     13 CL   LIG    1       -2.752   3.983   0.096  0.00  0.00    -0.050 Cl
ATOM     14  C   LIG    1        1.070   3.041  -0.579  0.00  0.00    -0.060 A 
ATOM     15 CL   LIG    1        2.448   3.762  -1.350  0.00  0.00    -0.050 Cl
ENDBRANCH   5   8
ENDBRANCH   3   4
ENDBRANCH   1   3
BRANCH   1  16
ATOM     16  C   LIG    1        4.425  -3.060   1.088  0.00  0.00    +0.470 C 
ATOM     17  O   LIG    1        5.403  -2.490   1.510  0.00  0.00    -0.500 OA
BRANCH  16  18
ATOM     18  C   LIG    1        4.241  -4.534   1.346  0.00  0.00    +0.110 C 
BRANCH  18  19
ATOM     19  C   LIG    1        5.427  -5.060   2.158  0.00  0.00    +0.080 C 
BRANCH  19  20
ATOM     20  C   LIG    1        5.241  -6.556   2.420  0.00  0.00    +0.090 C 
BRANCH  20  21
ATOM     21  S   LIG    1        6.643  -7.179   3.380  0.00  0.00    +0.010 S 
BRANCH  21  22
ATOM     22  C   LIG    1        6.181  -8.873   3.532  0.00  0.00    +0.090 A 
ATOM     23  N   LIG    1        5.103  -9.389   3.047  0.00  0.00    -0.470 NA
ATOM     24  C   LIG    1        4.891 -10.705   3.243  0.00  0.00    +0.090 A 
ATOM     25  C   LIG    1        3.804 -11.498   2.815  0.00  0.00    +0.070 A 
ATOM     26  C   LIG    1        3.757 -12.835   3.119  0.00  0.00    +0.040 A 
ATOM     27  C   LIG    1        4.775 -13.429   3.850  0.00  0.00    +0.040 A 
ATOM     28  C   LIG    1        5.846 -12.675   4.279  0.00  0.00    +0.060 A 
ATOM     29  C   LIG    1        5.910 -11.317   3.979  0.00  0.00    -0.170 A 
ATOM     30  S   LIG    1        7.120 -10.098   4.374  0.00  0.00    +0.110 S 
ENDBRANCH  21  22
ENDBRANCH  20  21
ENDBRANCH  19  20
ENDBRANCH  18  19
ENDBRANCH  16  18
ENDBRANCH   1  16
TORSDOF 9
