REMARK  Name = ZINCpe00000MJJRW.0
REMARK                            x       y       z     vdW  Elec       q    Type
REMARK                         _______ _______ _______ _____ _____    ______ ____
ROOT
ATOM      1  C   LIG    1       -6.135  -0.992   0.300  0.00  0.00    +0.160 C 
ATOM      2  C   LIG    1       -5.268   0.236  -0.045  0.00  0.00    +0.080 C 
ATOM      3  C   LIG    1       -3.842  -0.222   0.363  0.00  0.00    +0.040 C 
ATOM      4  C   LIG    1       -4.139  -1.083   1.616  0.00  0.00    +0.270 C 
ATOM      5  N   LIG    1       -5.404  -1.774   1.308  0.00  0.00    -0.600 N 
ATOM      6  C   LIG    1       -5.820  -2.933   1.856  0.00  0.00    +0.560 C 
ATOM      7  O   LIG    1       -6.858  -3.443   1.485  0.00  0.00    -0.470 OA
ENDROOT
BRANCH   6   8
ATOM      8  C   LIG    1       -5.009  -3.587   2.912  0.00  0.00    +0.180 A 
ATOM      9  C   LIG    1       -3.952  -2.916   3.435  0.00  0.00    -0.120 A 
ATOM     10  C   LIG    1       -3.163  -3.519   4.451  0.00  0.00    +0.420 A 
ATOM     11  C   LIG    1       -3.529  -4.874   4.894  0.00  0.00    -0.200 A 
ATOM     12  C   LIG    1       -2.802  -5.536   5.885  0.00  0.00    +0.110 A 
ATOM     13  C   LIG    1       -3.175  -6.792   6.273  0.00  0.00    -0.030 A 
ATOM     14  C   LIG    1       -4.271  -7.415   5.691  0.00  0.00    +0.090 A 
ATOM     15  C   LIG    1       -5.003  -6.780   4.711  0.00  0.00    -0.030 A 
ATOM     16  C   LIG    1       -4.641  -5.500   4.300  0.00  0.00    +0.200 A 
ATOM     17  O   LIG    1       -2.208  -2.935   4.936  0.00  0.00    -0.490 OA
ATOM     18  N   LIG    1       -5.352  -4.841   3.325  0.00  0.00    -0.590 N 
ATOM     19  H   LIG    1       -6.117  -5.280   2.920  0.00  0.00    +0.430 HD
ENDBRANCH   6   8
BRANCH   1  23
ATOM     20  C   LIG    1       -5.599  -3.485  -2.551  0.00  0.00    +0.290 C 
ATOM     21  N   LIG    1       -5.347  -2.557  -1.446  0.00  0.00    -0.730 N 
ATOM     22  H   LIG    1       -4.452  -2.467  -1.083  0.00  0.00    +0.400 HD
ATOM     23  C   LIG    1       -6.358  -1.828  -0.934  0.00  0.00    +0.520 C 
ATOM     24  O   LIG    1       -7.448  -1.845  -1.466  0.00  0.00    -0.510 OA
ENDBRANCH   1  23
BRANCH   1  25
ATOM     25  C   LIG    1       -7.479  -0.534   0.871  0.00  0.00    +0.190 C 
BRANCH  25  26
ATOM     26  O   LIG    1       -8.222  -1.671   1.313  0.00  0.00    -0.350 OA
ATOM     27  C   LIG    1       -9.500  -1.351   1.867  0.00  0.00    +0.180 C 
ENDBRANCH  25  26
ENDBRANCH   1  25
TORSDOF 4
