REMARK  Name = ZINCvU00000004P0.0
REMARK                            x       y       z     vdW  Elec       q    Type
REMARK                         _______ _______ _______ _____ _____    ______ ____
ROOT
ATOM      1  C   LIG    1       -5.837 -10.050  -2.473  0.00  0.00    +0.180 C 
ATOM      2  C   LIG    1       -4.372  -9.700  -2.512  0.00  0.00    +0.150 A 
ATOM      3  N   LIG    1       -3.410 -10.498  -2.866  0.00  0.00    -0.250 NA
ATOM      4  N   LIG    1       -2.189  -9.824  -2.777  0.00  0.00    -0.300 N 
ATOM      5  C   LIG    1       -2.438  -8.549  -2.346  0.00  0.00    +0.020 A 
ATOM      6  S   LIG    1       -1.653  -7.027  -1.944  0.00  0.00    +0.260 S 
ATOM      7  C   LIG    1       -3.194  -6.284  -1.549  0.00  0.00    -0.270 A 
ATOM      8  C   LIG    1       -4.194  -7.163  -1.719  0.00  0.00    +0.200 A 
ATOM      9  C   LIG    1       -3.807  -8.431  -2.167  0.00  0.00    -0.220 A 
ENDROOT
BRANCH   4  10
ATOM     10  C   LIG    1       -0.929 -10.361  -3.078  0.00  0.00    +0.140 A 
ATOM     11  C   LIG    1        0.047  -9.560  -3.655  0.00  0.00    +0.040 A 
ATOM     12  C   LIG    1        1.290 -10.089  -3.946  0.00  0.00    +0.020 A 
ATOM     13  C   LIG    1        1.558 -11.420  -3.671  0.00  0.00    +0.100 A 
ATOM     14  C   LIG    1        0.584 -12.221  -3.099  0.00  0.00    +0.020 A 
ATOM     15  F   LIG    1        2.772 -11.937  -3.961  0.00  0.00    -0.130 F 
ATOM     16  C   LIG    1       -0.658 -11.694  -2.803  0.00  0.00    +0.070 A 
ENDBRANCH   4  10
BRANCH   7  17
ATOM     17  C   LIG    1       -3.364  -4.903  -1.093  0.00  0.00    +0.550 C 
ATOM     18  O   LIG    1       -4.475  -4.478  -0.843  0.00  0.00    -0.490 OA
BRANCH  17  19
ATOM     19  O   LIG    1       -2.287  -4.103  -0.951  0.00  0.00    -0.330 OA
BRANCH  19  20
ATOM     20  C   LIG    1       -2.530  -2.746  -0.494  0.00  0.00    +0.270 C 
BRANCH  20  21
ATOM     21  C   LIG    1       -1.220  -2.007  -0.396  0.00  0.00    +0.520 C 
ATOM     22  N   LIG    1       -1.200  -0.722   0.010  0.00  0.00    -0.680 N 
ATOM     23  H   LIG    1       -2.018  -0.295   0.308  0.00  0.00    +0.420 HD
ATOM     24  O   LIG    1       -0.184  -2.569  -0.682  0.00  0.00    -0.490 OA
BRANCH  22  25
ATOM     25  C   LIG    1        0.002  -0.004   0.002  0.00  0.00    +0.150 A 
ATOM     26  C   LIG    1        0.387   0.696  -1.135  0.00  0.00    -0.020 A 
ATOM     27  C   LIG    1        1.574   1.404  -1.140  0.00  0.00    +0.050 A 
ATOM     28  C   LIG    1        2.378   1.417  -0.015  0.00  0.00    +0.070 A 
ATOM     29  C   LIG    1        1.998   0.722   1.119  0.00  0.00    +0.050 A 
ATOM     30 CL   LIG    1       -0.618   0.675  -2.551  0.00  0.00    -0.040 Cl
ATOM     31  C   LIG    1        0.812   0.011   1.130  0.00  0.00    -0.020 A 
ATOM     32 CL   LIG    1        0.336  -0.861   2.554  0.00  0.00    -0.040 Cl
ENDBRANCH  22  25
ENDBRANCH  20  21
ENDBRANCH  19  20
ENDBRANCH  17  19
ENDBRANCH   7  17
TORSDOF 6
