REMARK  Name = ZINCvU0000000C5b.0
REMARK                            x       y       z     vdW  Elec       q    Type
REMARK                         _______ _______ _______ _____ _____    ______ ____
ROOT
ATOM      1  C   LIG    1        0.122   2.517   4.783  0.00  0.00    +0.150 A 
ATOM      2  C   LIG    1       -0.272   3.546   5.674  0.00  0.00    -0.060 A 
ATOM      3  C   LIG    1       -1.370   4.376   5.431  0.00  0.00    +0.040 A 
ATOM      4  C   LIG    1       -1.690   5.346   6.336  0.00  0.00    +0.040 A 
ATOM      5  C   LIG    1       -0.938   5.522   7.495  0.00  0.00    +0.030 A 
ATOM      6  C   LIG    1        0.139   4.729   7.761  0.00  0.00    +0.080 A 
ATOM      7  C   LIG    1        0.493   3.725   6.854  0.00  0.00    -0.060 A 
ATOM      8  C   LIG    1        1.596   2.864   7.060  0.00  0.00    +0.280 A 
ATOM      9  N   LIG    1        1.864   1.939   6.154  0.00  0.00    -0.290 NA
ATOM     10  N   LIG    1        1.171   1.773   5.089  0.00  0.00    -0.240 NA
ENDROOT
BRANCH   1  15
ATOM     11  C   LIG    1       -2.800   1.576  -0.087  0.00  0.00    +0.090 C 
ATOM     12  C   LIG    1       -2.038   1.822   1.190  0.00  0.00    -0.070 A 
ATOM     13  C   LIG    1       -1.730   3.116   1.569  0.00  0.00    +0.010 A 
ATOM     14  C   LIG    1       -1.028   3.349   2.734  0.00  0.00    +0.030 A 
ATOM     15  C   LIG    1       -0.632   2.275   3.532  0.00  0.00    -0.050 A 
ATOM     16  C   LIG    1       -0.950   0.973   3.146  0.00  0.00    +0.060 A 
ATOM     17  C   LIG    1       -1.653   0.754   1.980  0.00  0.00    -0.090 A 
ATOM     18  C   LIG    1       -1.996  -0.653   1.561  0.00  0.00    +0.090 C 
ENDBRANCH   1  15
BRANCH   8  19
ATOM     19  N   LIG    1        2.382   2.987   8.193  0.00  0.00    -0.480 N 
ATOM     20  C   LIG    1        3.768   3.323   7.838  0.00  0.00    +0.200 C 
ATOM     21  C   LIG    1        4.584   3.528   9.117  0.00  0.00    +0.220 C 
ATOM     22  N   LIG    1        4.534   2.304   9.928  0.00  0.00    -0.490 N 
ATOM     23  C   LIG    1        3.148   1.967  10.283  0.00  0.00    +0.210 C 
ATOM     24  C   LIG    1        2.332   1.762   9.004  0.00  0.00    +0.220 C 
BRANCH  22  25
ATOM     25  C   LIG    1        5.328   2.428  11.073  0.00  0.00    +0.080 A 
ATOM     26  C   LIG    1        5.475   1.352  11.937  0.00  0.00    +0.030 A 
ATOM     27  C   LIG    1        6.266   1.476  13.064  0.00  0.00    +0.030 A 
ATOM     28  C   LIG    1        6.900   2.673  13.338  0.00  0.00    +0.010 A 
ATOM     29  C   LIG    1        6.752   3.750  12.482  0.00  0.00    +0.010 A 
ATOM     30  C   LIG    1        5.968   3.631  11.350  0.00  0.00    +0.050 A 
ATOM     31  F   LIG    1        5.823   4.683  10.514  0.00  0.00    -0.140 F 
ENDBRANCH  22  25
ENDBRANCH   8  19
TORSDOF 3
