REMARK  Name = ZINCrg00000IZAyZ.0
REMARK                            x       y       z     vdW  Elec       q    Type
REMARK                         _______ _______ _______ _____ _____    ______ ____
ROOT
ATOM      1  C   LIG    1        2.157   5.649   0.221  0.00  0.00    +0.220 C 
ATOM      2  C   LIG    1        1.378   6.262  -0.970  0.00  0.00    +0.060 C 
ATOM      3  C   LIG    1        1.969   7.695  -1.024  0.00  0.00    +0.040 C 
ATOM      4  C   LIG    1        3.446   7.475  -0.633  0.00  0.00    +0.260 C 
ATOM      5  N   LIG    1        3.516   6.209   0.111  0.00  0.00    -0.610 N 
ATOM      6  C   LIG    1        4.638   5.653   0.610  0.00  0.00    +0.550 C 
ATOM      7  O   LIG    1        4.567   4.648   1.286  0.00  0.00    -0.510 OA
ENDROOT
BRANCH   1  10
ATOM      8  N   LIG    1        1.225   3.401   0.664  0.00  0.00    -0.660 N 
ATOM      9  H   LIG    1        0.462   3.832   1.080  0.00  0.00    +0.410 HD
ATOM     10  C   LIG    1        2.197   4.147   0.104  0.00  0.00    +0.500 C 
ATOM     11  O   LIG    1        3.105   3.610  -0.495  0.00  0.00    -0.440 OA
BRANCH   8  17
ATOM     12  C   LIG    1        3.566  -0.503  -0.826  0.00  0.00    +0.140 C 
ATOM     13  C   LIG    1        2.425   0.113  -0.058  0.00  0.00    +0.160 A 
ATOM     14  C   LIG    1        1.521  -0.704   0.592  0.00  0.00    -0.080 A 
ATOM     15  C   LIG    1        0.472  -0.131   1.298  0.00  0.00    +0.100 A 
ATOM     16  C   LIG    1        0.370   1.249   1.325  0.00  0.00    -0.090 A 
ATOM     17  C   LIG    1        1.316   2.010   0.646  0.00  0.00    +0.370 A 
ATOM     18  N   LIG    1        2.302   1.426  -0.016  0.00  0.00    -0.470 NA
ENDBRANCH   8  17
ENDBRANCH   1  10
BRANCH   6  19
ATOM     19  C   LIG    1        5.979   6.279   0.328  0.00  0.00    +0.210 C 
BRANCH  19  20
ATOM     20  C   LIG    1        7.061   5.469   0.995  0.00  0.00    +0.300 A 
ATOM     21  N   LIG    1        7.513   5.668   2.211  0.00  0.00    -0.320 NA
ATOM     22  N   LIG    1        8.505   4.705   2.442  0.00  0.00    -0.330 N 
ATOM     23  C   LIG    1        9.306   4.428   3.504  0.00  0.00    +0.350 A 
ATOM     24  C   LIG    1       10.194   3.405   3.410  0.00  0.00    -0.040 A 
ATOM     25  C   LIG    1       10.261   2.664   2.224  0.00  0.00    +0.400 A 
ATOM     26  N   LIG    1        9.473   2.956   1.215  0.00  0.00    -0.450 NA
ATOM     27  C   LIG    1        8.595   3.963   1.298  0.00  0.00    +0.440 A 
ATOM     28  N   LIG    1        7.706   4.452   0.441  0.00  0.00    -0.510 NA
ENDBRANCH  19  20
ENDBRANCH   6  19
TORSDOF 4
