REMARK  Name = ZINCpe000000X5P3.0
REMARK                            x       y       z     vdW  Elec       q    Type
REMARK                         _______ _______ _______ _____ _____    ______ ____
ROOT
ATOM      1  C   LIG    1        5.212   3.126  -1.660  0.00  0.00    +0.610 C 
ATOM      2  N   LIG    1        4.077   2.445  -1.406  0.00  0.00    -0.720 N 
ATOM      3  H   LIG    1        3.528   2.126  -2.139  0.00  0.00    +0.410 HD
ATOM      4  O   LIG    1        5.899   3.526  -0.740  0.00  0.00    -0.530 OA
ENDROOT
BRANCH   1  10
ATOM      5  C   LIG    1        6.045   3.450  -8.940  0.00  0.00    +0.070 C 
ATOM      6  C   LIG    1        6.463   3.435  -7.468  0.00  0.00    +0.170 C 
ATOM      7  C   LIG    1        5.231   3.184  -6.592  0.00  0.00    +0.300 C 
ATOM      8  N   LIG    1        5.610   3.401  -5.188  0.00  0.00    -0.280 N 
ATOM      9  N   LIG    1        4.979   3.008  -4.144  0.00  0.00    -0.250 NA
ATOM     10  C   LIG    1        5.621   3.385  -3.055  0.00  0.00    -0.020 A 
ATOM     11  C   LIG    1        6.780   4.082  -3.478  0.00  0.00    +0.010 A 
ATOM     12  C   LIG    1        6.732   4.070  -4.822  0.00  0.00    -0.030 A 
ATOM     13  C   LIG    1        7.714   4.669  -5.796  0.00  0.00    +0.340 C 
ATOM     14  N   LIG    1        7.066   4.729  -7.119  0.00  0.00    -0.680 NA
ATOM     15  H   LIG    1        6.381   5.469  -7.153  0.00  0.00    +0.350 HD
ENDBRANCH   1  10
BRANCH   2  16
ATOM     16  C   LIG    1        3.671   2.187  -0.022  0.00  0.00    +0.320 C 
BRANCH  16  17
ATOM     17  C   LIG    1        2.377   1.414  -0.013  0.00  0.00    -0.100 A 
ATOM     18  C   LIG    1        1.171   2.090   0.002  0.00  0.00    +0.060 A 
ATOM     19  C   LIG    1       -0.017   1.384   0.010  0.00  0.00    +0.050 A 
ATOM     20  C   LIG    1        0.002  -0.004   0.002  0.00  0.00    +0.130 A 
ATOM     21  C   LIG    1        1.215  -0.679  -0.013  0.00  0.00    +0.020 A 
ATOM     22  C   LIG    1        2.399   0.032  -0.021  0.00  0.00    +0.060 A 
BRANCH  20  23
ATOM     23  N   LIG    1       -1.202  -0.723   0.010  0.00  0.00    -0.250 N 
ATOM     24  C   LIG    1       -1.323  -2.079  -0.001  0.00  0.00    +0.150 A 
ATOM     25  C   LIG    1       -2.652  -2.336   0.015  0.00  0.00    +0.160 A 
ATOM     26  N   LIG    1       -3.269  -1.149   0.028  0.00  0.00    -0.260 NA
ATOM     27  N   LIG    1       -2.385  -0.216   0.024  0.00  0.00    -0.080 NA
ENDBRANCH  20  23
ENDBRANCH  16  17
ENDBRANCH   2  16
TORSDOF 4
