REMARK  Name = ZINCrD000000AlEg.0
REMARK                            x       y       z     vdW  Elec       q    Type
REMARK                         _______ _______ _______ _____ _____    ______ ____
ROOT
ATOM      1  C   LIG    1        3.785   3.983   3.785  0.00  0.00    +0.150 A 
ATOM      2  C   LIG    1        3.770   2.860   4.603  0.00  0.00    +0.030 A 
ATOM      3  C   LIG    1        4.388   2.895   5.835  0.00  0.00    +0.050 A 
ATOM      4  C   LIG    1        5.029   4.057   6.259  0.00  0.00    -0.010 A 
ATOM      5  C   LIG    1        5.043   5.183   5.436  0.00  0.00    -0.150 A 
ATOM      6  C   LIG    1        4.429   5.142   4.203  0.00  0.00    +0.090 A 
ENDROOT
BRANCH   4   7
ATOM      7  C   LIG    1        5.696   4.097   7.584  0.00  0.00    -0.070 A 
ATOM      8  C   LIG    1        5.311   5.043   8.532  0.00  0.00    +0.030 A 
ATOM      9  C   LIG    1        5.931   5.072   9.765  0.00  0.00    +0.010 A 
ATOM     10  C   LIG    1        6.940   4.171  10.056  0.00  0.00    +0.010 A 
ATOM     11  C   LIG    1        7.330   3.234   9.117  0.00  0.00    +0.010 A 
ATOM     12  C   LIG    1        6.713   3.192   7.883  0.00  0.00    +0.040 A 
ENDBRANCH   4   7
BRANCH   1  15
ATOM     13  O   LIG    1        2.512   6.060   2.717  0.00  0.00    -0.500 OA
ATOM     14  C   LIG    1        2.575   5.055   2.041  0.00  0.00    +0.490 C 
ATOM     15  N   LIG    1        3.157   3.945   2.536  0.00  0.00    -0.670 N 
ATOM     16  H   LIG    1        3.141   3.120   2.026  0.00  0.00    +0.420 HD
BRANCH  14  17
ATOM     17  C   LIG    1        2.003   5.048   0.647  0.00  0.00    +0.390 C 
BRANCH  17  18
ATOM     18  N   LIG    1        1.432   6.363   0.347  0.00  0.00    -0.970 NA
ATOM     19  C   LIG    1        0.082   6.816   0.691  0.00  0.00    +0.240 C 
ATOM     20  C   LIG    1       -0.235   8.233   0.203  0.00  0.00    +0.090 C 
ATOM     21  C   LIG    1        1.125   8.984   0.133  0.00  0.00    -0.300 C 
ATOM     22  S   LIG    1        2.204   7.614  -0.452  0.00  0.00    +2.560 S 
ATOM     23  O   LIG    1        3.499   7.689   0.127  0.00  0.00    -0.950 OA
ATOM     24  O   LIG    1        2.011   7.355  -1.836  0.00  0.00    -0.950 OA
ENDBRANCH  17  18
ENDBRANCH  14  17
ENDBRANCH   1  15
BRANCH   5  25
ATOM     25  C   LIG    1        5.735   6.442   5.893  0.00  0.00    +0.510 C 
ATOM     26  F   LIG    1        7.048   6.141   6.271  0.00  0.00    -0.170 F 
ATOM     27  F   LIG    1        5.048   6.982   6.984  0.00  0.00    -0.170 F 
ATOM     28  F   LIG    1        5.753   7.370   4.846  0.00  0.00    -0.170 F 
ENDBRANCH   5  25
TORSDOF 5
