REMARK  Name = ZINCtj0000001pI4.1
REMARK                            x       y       z     vdW  Elec       q    Type
REMARK                         _______ _______ _______ _____ _____    ______ ____
ROOT
ATOM      1  C   LIG    1       -1.810   1.380   0.615  0.00  0.00    +0.360 C 
ENDROOT
BRANCH   1   2
ATOM      2  N   LIG    1       -0.691   0.444   0.741  0.00  0.00    -0.570 N 
ATOM      3  C   LIG    1       -0.826  -0.862   1.008  0.00  0.00    +0.710 C 
ATOM      4  N   LIG    1        0.360  -1.500   1.066  0.00  0.00    -0.710 N 
ATOM      5  H   LIG    1        0.506  -2.442   1.244  0.00  0.00    +0.450 HD
ATOM      6  C   LIG    1        1.382  -0.486   0.805  0.00  0.00    +0.170 C 
ATOM      7  C   LIG    1        2.357  -0.358   1.982  0.00  0.00    +0.080 C 
ATOM      8  C   LIG    1        3.679   0.013   1.270  0.00  0.00    +0.090 C 
ATOM      9  C   LIG    1        3.546  -0.546  -0.131  0.00  0.00    -0.070 A 
ATOM     10  C   LIG    1        4.510  -0.785  -1.095  0.00  0.00    +0.020 A 
ATOM     11  C   LIG    1        4.152  -1.304  -2.324  0.00  0.00    +0.040 A 
ATOM     12  C   LIG    1        2.826  -1.587  -2.593  0.00  0.00    +0.010 A 
ATOM     13  C   LIG    1        1.863  -1.352  -1.632  0.00  0.00    +0.040 A 
ATOM     14  C   LIG    1        2.218  -0.831  -0.398  0.00  0.00    -0.120 A 
ATOM     15  O   LIG    1       -1.898  -1.409   1.180  0.00  0.00    -0.530 OA
ATOM     16  C   LIG    1        0.608   0.789   0.596  0.00  0.00    +0.550 C 
ATOM     17  O   LIG    1        1.054   1.889   0.351  0.00  0.00    -0.450 OA
ENDBRANCH   1   2
BRANCH   1  20
ATOM     18  N   LIG    1       -3.119   2.873   2.090  0.00  0.00    -0.750 N 
ATOM     19  H   LIG    1       -3.640   3.131   1.314  0.00  0.00    +0.400 HD
ATOM     20  C   LIG    1       -2.119   1.978   1.963  0.00  0.00    +0.510 C 
ATOM     21  O   LIG    1       -1.468   1.655   2.934  0.00  0.00    -0.500 OA
BRANCH  18  22
ATOM     22  C   LIG    1       -3.419   3.455   3.401  0.00  0.00    +0.330 C 
BRANCH  22  23
ATOM     23  C   LIG    1       -4.501   4.525   3.248  0.00  0.00    +0.310 C 
BRANCH  23  24
ATOM     24  C   LIG    1       -5.789   3.879   2.806  0.00  0.00    -0.110 A 
ATOM     25  C   LIG    1       -6.827   3.567   3.603  0.00  0.00    +0.040 A 
ATOM     26  C   LIG    1       -7.816   2.984   2.778  0.00  0.00    -0.050 A 
ATOM     27  C   LIG    1       -7.321   2.968   1.527  0.00  0.00    +0.230 A 
ATOM     28  O   LIG    1       -6.092   3.511   1.550  0.00  0.00    -0.190 OA
ENDBRANCH  23  24
BRANCH  23  30
ATOM     29  C   LIG    1       -5.121   6.532   2.089  0.00  0.00    +0.330 C 
ATOM     30  N   LIG    1       -4.078   5.510   2.243  0.00  0.00    -0.390 N 
ATOM     31  C   LIG    1       -2.828   6.147   2.679  0.00  0.00    +0.340 C 
ATOM     32  H   LIG    1       -3.929   5.046   1.360  0.00  0.00    +0.420 HD
ENDBRANCH  23  30
ENDBRANCH  22  23
ENDBRANCH  18  22
ENDBRANCH   1  20
TORSDOF 6
