REMARK  Name = ZINCrH000004p2Ks.0
REMARK                            x       y       z     vdW  Elec       q    Type
REMARK                         _______ _______ _______ _____ _____    ______ ____
ROOT
ATOM      1  S   LIG    1       -2.654  -0.275  -2.810  0.00  0.00    +2.690 S 
ATOM      2  O   LIG    1       -3.723   0.379  -2.140  0.00  0.00    -0.950 OA
ATOM      3  O   LIG    1       -2.848  -1.167  -3.899  0.00  0.00    -0.950 OA
ENDROOT
BRANCH   1   4
ATOM      4  C   LIG    1       -1.580   0.995  -3.393  0.00  0.00    -0.700 A 
ATOM      5  C   LIG    1       -0.816   0.782  -4.531  0.00  0.00    +0.190 A 
ATOM      6  C   LIG    1        0.030   1.763  -5.004  0.00  0.00    +0.010 A 
ATOM      7  C   LIG    1        0.120   2.978  -4.337  0.00  0.00    +0.200 A 
ATOM      8  O   LIG    1        0.942   3.952  -4.783  0.00  0.00    -0.270 OA
ATOM      9  C   LIG    1        1.040   5.131  -4.149  0.00  0.00    +0.510 A 
ATOM     10  C   LIG    1        0.290   5.412  -2.987  0.00  0.00    -0.070 A 
ATOM     11  C   LIG    1       -0.555   4.476  -2.486  0.00  0.00    +0.160 A 
ATOM     12  O   LIG    1        1.794   5.980  -4.589  0.00  0.00    -0.450 OA
ATOM     13  C   LIG    1       -0.656   3.190  -3.184  0.00  0.00    -0.180 A 
ATOM     14  C   LIG    1       -1.511   2.185  -2.724  0.00  0.00    +0.210 A 
ENDBRANCH   1   4
BRANCH   1  15
ATOM     15  N   LIG    1       -1.826  -1.123  -1.653  0.00  0.00    -0.980 NA
BRANCH  15  17
ATOM     16  C   LIG    1       -1.455  -3.538  -1.549  0.00  0.00    +0.040 C 
ATOM     17  C   LIG    1       -0.911  -2.197  -2.047  0.00  0.00    +0.280 C 
BRANCH  17  18
ATOM     18  C   LIG    1        0.466  -1.945  -1.430  0.00  0.00    -0.060 C 
ATOM     19  C   LIG    1        1.578  -1.458  -2.362  0.00  0.00    +0.000 C 
ATOM     20  C   LIG    1        1.601  -2.891  -1.827  0.00  0.00    +0.030 C 
ENDBRANCH  17  18
ENDBRANCH  15  17
BRANCH  15  21
ATOM     21  C   LIG    1       -2.010  -0.799  -0.236  0.00  0.00    +0.340 C 
BRANCH  21  22
ATOM     22  C   LIG    1       -3.086  -1.680   0.345  0.00  0.00    -0.110 A 
ATOM     23  C   LIG    1       -2.741  -2.797   1.082  0.00  0.00    +0.020 A 
ATOM     24  C   LIG    1       -3.728  -3.604   1.616  0.00  0.00    -0.010 A 
ATOM     25  C   LIG    1       -5.060  -3.295   1.411  0.00  0.00    +0.010 A 
ATOM     26  C   LIG    1       -5.405  -2.177   0.675  0.00  0.00    +0.000 A 
ATOM     27  C   LIG    1       -4.417  -1.369   0.142  0.00  0.00    +0.030 A 
ENDBRANCH  21  22
ENDBRANCH  15  21
ENDBRANCH   1  15
TORSDOF 6
