REMARK  Name = ZINCrH000004mubC.0
REMARK                            x       y       z     vdW  Elec       q    Type
REMARK                         _______ _______ _______ _____ _____    ______ ____
ROOT
ATOM      1  C   LIG    1        4.914   1.054  -0.040  0.00  0.00    +0.330 C 
ATOM      2  C   LIG    1        5.998   1.955  -0.644  0.00  0.00    +0.020 C 
ATOM      3  C   LIG    1        7.372   1.317  -0.427  0.00  0.00    +0.040 C 
ATOM      4  C   LIG    1        7.738   1.381   1.061  0.00  0.00    +0.110 C 
ATOM      5  C   LIG    1        6.575   0.850   1.860  0.00  0.00    +0.100 A 
ATOM      6  N   LIG    1        6.567   0.444   3.141  0.00  0.00    -0.360 N 
ATOM      7  N   LIG    1        5.264   0.030   3.452  0.00  0.00    -0.300 NA
ATOM      8  C   LIG    1        4.517   0.187   2.386  0.00  0.00    +0.260 A 
ATOM      9  C   LIG    1        5.317   0.702   1.370  0.00  0.00    -0.250 A 
ENDROOT
BRANCH   1  11
ATOM     10  C   LIG    1        2.477   1.074  -0.016  0.00  0.00    +0.560 C 
ATOM     11  N   LIG    1        3.633   1.767  -0.024  0.00  0.00    -0.720 N 
ATOM     12  H   LIG    1        3.618   2.736  -0.018  0.00  0.00    +0.400 HD
ATOM     13  O   LIG    1        2.496  -0.141  -0.024  0.00  0.00    -0.540 OA
BRANCH  10  17
ATOM     14  C   LIG    1       -1.234   3.139   0.031  0.00  0.00    +0.160 A 
ATOM     15  C   LIG    1       -1.214   1.749   0.017  0.00  0.00    -0.080 A 
ATOM     16  C   LIG    1       -0.013   1.076   0.008  0.00  0.00    +0.120 A 
ATOM     17  C   LIG    1        1.187   1.792   0.000  0.00  0.00    -0.180 A 
ATOM     18  C   LIG    1        1.163   3.189   0.008  0.00  0.00    +0.090 A 
ATOM     19  C   LIG    1       -0.042   3.855   0.023  0.00  0.00    -0.020 A 
BRANCH  14  21
ATOM     20  C   LIG    1       -3.605   3.001   0.053  0.00  0.00    +0.240 C 
ATOM     21  O   LIG    1       -2.420   3.799   0.046  0.00  0.00    -0.310 OA
ENDBRANCH  14  21
ENDBRANCH  10  17
ENDBRANCH   1  11
BRANCH   6  22
ATOM     22  C   LIG    1        7.716   0.435   4.050  0.00  0.00    +0.370 C 
BRANCH  22  23
ATOM     23  C   LIG    1        7.790   1.752   4.779  0.00  0.00    -0.120 A 
ATOM     24  C   LIG    1        8.522   2.796   4.245  0.00  0.00    +0.020 A 
ATOM     25  C   LIG    1        8.586   4.006   4.911  0.00  0.00    +0.010 A 
ATOM     26  C   LIG    1        7.928   4.167   6.116  0.00  0.00    +0.010 A 
ATOM     27  C   LIG    1        7.201   3.121   6.652  0.00  0.00    +0.010 A 
ATOM     28  C   LIG    1        7.132   1.913   5.983  0.00  0.00    +0.030 A 
ENDBRANCH  22  23
ENDBRANCH   6  22
TORSDOF 5
