REMARK  Name = ZINCrD00000F5LwO.0
REMARK                            x       y       z     vdW  Elec       q    Type
REMARK                         _______ _______ _______ _____ _____    ______ ____
ROOT
ATOM      1  C   LIG    1        3.691  -0.688  -0.037  0.00  0.00    +0.110 C 
ATOM      2  C   LIG    1        3.706  -2.036  -0.045  0.00  0.00    +0.070 C 
ENDROOT
BRANCH   1  10
ATOM      3  O   LIG    1       -0.081   5.332   0.324  0.00  0.00    -0.500 OA
ATOM      4  C   LIG    1       -0.014   4.121   0.339  0.00  0.00    +0.490 C 
ATOM      5  C   LIG    1       -1.218   3.301   0.727  0.00  0.00    +0.300 C 
ATOM      6  O   LIG    1       -1.197   2.056   0.030  0.00  0.00    -0.300 OA
ATOM      7  C   LIG    1       -0.017   1.382   0.010  0.00  0.00    +0.090 A 
ATOM      8  C   LIG    1        0.002  -0.004   0.002  0.00  0.00    +0.040 A 
ATOM      9  C   LIG    1        1.204  -0.679  -0.013  0.00  0.00    +0.050 A 
ATOM     10  C   LIG    1        2.408   0.033  -0.021  0.00  0.00    -0.070 A 
ATOM     11  C   LIG    1        2.390   1.432  -0.013  0.00  0.00    +0.040 A 
ATOM     12  C   LIG    1        1.182   2.100   0.002  0.00  0.00    +0.090 A 
ATOM     13  N   LIG    1        1.141   3.502   0.009  0.00  0.00    -0.660 N 
ATOM     14  H   LIG    1        1.929   4.019  -0.219  0.00  0.00    +0.420 HD
ENDBRANCH   1  10
BRANCH   2  15
ATOM     15  C   LIG    1        4.983  -2.753  -0.061  0.00  0.00    +0.210 A 
ATOM     16  N   LIG    1        5.153  -4.068  -0.070  0.00  0.00    -0.470 NA
ATOM     17  C   LIG    1        6.481  -4.257  -0.084  0.00  0.00    +0.180 A 
ATOM     18  N   LIG    1        7.047  -3.086  -0.083  0.00  0.00    -0.380 NA
ATOM     19  O   LIG    1        6.211  -2.208  -0.076  0.00  0.00    +0.080 OA
BRANCH  17  20
ATOM     20  C   LIG    1        7.189  -5.587  -0.099  0.00  0.00    +0.100 C 
ATOM     21  C   LIG    1        8.088  -5.702   1.135  0.00  0.00    +0.010 C 
ATOM     22  C   LIG    1        8.835  -7.038   1.098  0.00  0.00    +0.220 C 
ATOM     23  O   LIG    1        9.624  -7.109  -0.093  0.00  0.00    -0.350 OA
ATOM     24  C   LIG    1        8.866  -6.987  -1.295  0.00  0.00    +0.090 C 
ATOM     25  C   LIG    1        9.680  -7.263  -2.566  0.00  0.00    +0.050 C 
ATOM     26  C   LIG    1        9.277  -8.739  -2.406  0.00  0.00    +0.030 C 
ATOM     27  C   LIG    1        8.045  -8.239  -1.632  0.00  0.00    -0.010 C 
ATOM     28  C   LIG    1        8.055  -5.694  -1.359  0.00  0.00    +0.030 C 
ENDBRANCH  17  20
ENDBRANCH   2  15
TORSDOF 3
