REMARK  Name = ZINCrH000004tM9x.0
REMARK                            x       y       z     vdW  Elec       q    Type
REMARK                         _______ _______ _______ _____ _____    ______ ____
ROOT
ATOM      1  N   LIG    1        3.526  -2.433   0.189  0.00  0.00    -0.470 NA
ATOM      2  C   LIG    1        4.827  -2.998  -0.253  0.00  0.00    +0.180 C 
ATOM      3  C   LIG    1        5.307  -2.045  -1.368  0.00  0.00    +0.040 C 
ATOM      4  C   LIG    1        4.594  -0.707  -1.086  0.00  0.00    +0.040 C 
ATOM      5  C   LIG    1        3.743  -0.964   0.176  0.00  0.00    +0.130 C 
ENDROOT
BRANCH   5   6
ATOM      6  C   LIG    1        2.426  -0.239   0.079  0.00  0.00    +0.520 C 
ATOM      7  N   LIG    1        2.402   1.106  -0.015  0.00  0.00    -0.670 N 
ATOM      8  H   LIG    1        3.233   1.602  -0.086  0.00  0.00    +0.420 HD
ATOM      9  O   LIG    1        1.387  -0.865   0.086  0.00  0.00    -0.490 OA
BRANCH   7  10
ATOM     10  C   LIG    1        1.179   1.786  -0.011  0.00  0.00    +0.170 A 
ATOM     11  C   LIG    1        0.064   1.215  -0.608  0.00  0.00    +0.060 A 
ATOM     12  C   LIG    1       -1.142   1.892  -0.607  0.00  0.00    -0.010 A 
ATOM     13  C   LIG    1       -1.240   3.133  -0.002  0.00  0.00    +0.040 A 
ATOM     14  C   LIG    1       -0.130   3.704   0.594  0.00  0.00    +0.070 A 
ATOM     15 CL   LIG    1       -2.536   1.183  -1.361  0.00  0.00    -0.050 Cl
ATOM     16  C   LIG    1        1.079   3.035   0.592  0.00  0.00    -0.060 A 
ATOM     17 CL   LIG    1        2.470   3.752   1.341  0.00  0.00    -0.060 Cl
ENDBRANCH   7  10
ENDBRANCH   5   6
BRANCH   1  18
ATOM     18  C   LIG    1        3.178  -2.903   1.537  0.00  0.00    +0.210 C 
BRANCH  18  20
ATOM     19  O   LIG    1        2.700  -4.915   0.401  0.00  0.00    -0.520 OA
ATOM     20  C   LIG    1        2.728  -4.339   1.468  0.00  0.00    +0.520 C 
ATOM     21  N   LIG    1        2.357  -4.984   2.591  0.00  0.00    -0.730 N 
ATOM     22  H   LIG    1        2.380  -4.523   3.445  0.00  0.00    +0.400 HD
BRANCH  21  23
ATOM     23  C   LIG    1        1.919  -6.381   2.524  0.00  0.00    +0.320 C 
BRANCH  23  24
ATOM     24  C   LIG    1        1.563  -6.862   3.907  0.00  0.00    -0.110 A 
ATOM     25  C   LIG    1        2.527  -7.450   4.704  0.00  0.00    +0.020 A 
ATOM     26  C   LIG    1        2.201  -7.888   5.974  0.00  0.00    +0.000 A 
ATOM     27  C   LIG    1        0.908  -7.746   6.444  0.00  0.00    +0.010 A 
ATOM     28  C   LIG    1       -0.057  -7.163   5.644  0.00  0.00    +0.010 A 
ATOM     29  C   LIG    1        0.270  -6.721   4.376  0.00  0.00    +0.020 A 
ENDBRANCH  23  24
ENDBRANCH  21  23
ENDBRANCH  18  20
ENDBRANCH   1  18
TORSDOF 6
