REMARK  Name = ZINCpk00000e1uX8.1
REMARK                            x       y       z     vdW  Elec       q    Type
REMARK                         _______ _______ _______ _____ _____    ______ ____
ROOT
ATOM      1  C   LIG    1       -4.514  -2.166   0.678  0.00  0.00    +0.240 C 
ATOM      2  C   LIG    1       -4.463  -3.133  -0.530  0.00  0.00    +0.070 C 
ATOM      3  C   LIG    1       -5.841  -2.875  -1.195  0.00  0.00    +0.050 C 
ATOM      4  C   LIG    1       -6.059  -1.365  -0.964  0.00  0.00    +0.270 C 
ATOM      5  N   LIG    1       -5.220  -0.971   0.179  0.00  0.00    -0.990 NA
ENDROOT
BRANCH   1   8
ATOM      6  N   LIG    1       -2.598  -2.365   2.230  0.00  0.00    -0.620 N 
ATOM      7  H   LIG    1       -3.100  -3.038   2.715  0.00  0.00    +0.420 HD
ATOM      8  C   LIG    1       -3.120  -1.804   1.121  0.00  0.00    +0.500 C 
ATOM      9  O   LIG    1       -2.467  -1.010   0.478  0.00  0.00    -0.430 OA
BRANCH   6  13
ATOM     10  C   LIG    1        0.811  -1.506   3.740  0.00  0.00    +0.010 A 
ATOM     11  N   LIG    1        0.571  -0.907   2.618  0.00  0.00    -0.230 NA
ATOM     12  N   LIG    1       -0.541  -1.153   2.073  0.00  0.00    -0.260 NA
ATOM     13  C   LIG    1       -1.341  -1.977   2.679  0.00  0.00    +0.230 A 
ATOM     14  S   LIG    1       -0.588  -2.509   4.124  0.00  0.00    +0.100 S 
BRANCH  10  16
ATOM     15  C   LIG    1        1.891  -0.222   5.567  0.00  0.00    +0.040 C 
ATOM     16  C   LIG    1        2.062  -1.371   4.571  0.00  0.00    +0.150 C 
ENDBRANCH  10  16
ENDBRANCH   6  13
ENDBRANCH   1   8
BRANCH   5  17
ATOM     17  S   LIG    1       -5.088   0.557   0.802  0.00  0.00    +2.740 S 
ATOM     18  O   LIG    1       -5.311   1.452  -0.280  0.00  0.00    -0.940 OA
ATOM     19  O   LIG    1       -3.906   0.570   1.589  0.00  0.00    -0.920 OA
BRANCH  17  20
ATOM     20  C   LIG    1       -6.433   0.783   1.918  0.00  0.00    -0.800 A 
ATOM     21  C   LIG    1       -7.708   1.136   1.628  0.00  0.00    +0.120 A 
ATOM     22  O   LIG    1       -8.364   1.180   2.796  0.00  0.00    +0.100 OA
ATOM     23  N   LIG    1       -7.639   0.909   3.724  0.00  0.00    -0.360 NA
ATOM     24  C   LIG    1       -8.277   1.419   0.262  0.00  0.00    +0.210 C 
ATOM     25  C   LIG    1       -6.428   0.645   3.325  0.00  0.00    +0.110 A 
ATOM     26  C   LIG    1       -5.254   0.268   4.192  0.00  0.00    +0.180 C 
ENDBRANCH  17  20
ENDBRANCH   5  17
TORSDOF 5
