REMARK  Name = ZINCqH00000501VQ.0
REMARK                            x       y       z     vdW  Elec       q    Type
REMARK                         _______ _______ _______ _____ _____    ______ ____
ROOT
ATOM      1  C   LIG    1       -3.197   1.364  -2.391  0.00  0.00    +0.600 C 
ATOM      2  N   LIG    1       -2.402   1.636  -1.337  0.00  0.00    -0.590 N 
ATOM      3  C   LIG    1       -0.991   1.991  -1.535  0.00  0.00    +0.270 C 
ATOM      4  C   LIG    1       -0.123   1.061  -0.681  0.00  0.00    +0.020 C 
ATOM      5  C   LIG    1       -0.590   1.130   0.775  0.00  0.00    +0.020 C 
ATOM      6  C   LIG    1       -2.043   0.657   0.869  0.00  0.00    +0.030 C 
ATOM      7  C   LIG    1       -2.932   1.583   0.033  0.00  0.00    +0.310 C 
ATOM      8  O   LIG    1       -4.325   0.952  -2.211  0.00  0.00    -0.490 OA
ENDROOT
BRANCH   1  14
ATOM      9  C   LIG    1       -4.855   0.964  -5.144  0.00  0.00    +0.160 C 
ATOM     10  C   LIG    1       -3.420   1.392  -4.978  0.00  0.00    -0.130 A 
ATOM     11  C   LIG    1       -2.514   1.703  -5.953  0.00  0.00    +0.010 A 
ATOM     12  O   LIG    1       -1.372   2.025  -5.321  0.00  0.00    +0.120 OA
ATOM     13  N   LIG    1       -1.489   1.950  -4.120  0.00  0.00    -0.330 NA
ATOM     14  C   LIG    1       -2.693   1.567  -3.772  0.00  0.00    -0.020 A 
BRANCH  11  15
ATOM     15  C   LIG    1       -2.745   1.688  -7.414  0.00  0.00    -0.030 A 
ATOM     16  C   LIG    1       -1.834   1.057  -8.261  0.00  0.00    +0.040 A 
ATOM     17  C   LIG    1       -2.057   1.043  -9.622  0.00  0.00    +0.010 A 
ATOM     18  C   LIG    1       -3.176   1.663 -10.149  0.00  0.00    +0.030 A 
ATOM     19  C   LIG    1       -4.082   2.295  -9.315  0.00  0.00    +0.010 A 
ATOM     20  C   LIG    1       -3.872   2.312  -7.951  0.00  0.00    +0.040 A 
ENDBRANCH  11  15
ENDBRANCH   1  14
BRANCH   7  21
ATOM     21  C   LIG    1       -4.340   1.045   0.009  0.00  0.00    -0.210 A 
ATOM     22  C   LIG    1       -5.462   1.741   0.304  0.00  0.00    +0.220 A 
ATOM     23  N   LIG    1       -6.513   0.906   0.163  0.00  0.00    -0.380 N 
ATOM     24  N   LIG    1       -6.019  -0.347  -0.223  0.00  0.00    -0.300 NA
ATOM     25  C   LIG    1       -7.921   1.247   0.380  0.00  0.00    +0.350 C 
ATOM     26  C   LIG    1       -4.716  -0.262  -0.315  0.00  0.00    +0.280 A 
ENDBRANCH   7  21
TORSDOF 3
