REMARK  Name = ZINCrD00000F5Lpf.0
REMARK                            x       y       z     vdW  Elec       q    Type
REMARK                         _______ _______ _______ _____ _____    ______ ____
ROOT
ATOM      1  O   LIG    1        0.882   2.951  -0.420  0.00  0.00    -0.490 OA
ATOM      2  C   LIG    1        1.051   1.775  -0.176  0.00  0.00    +0.520 C 
ATOM      3  N   LIG    1       -0.011   0.966   0.007  0.00  0.00    -0.670 N 
ATOM      4  H   LIG    1        0.121   0.012   0.125  0.00  0.00    +0.420 HD
ENDROOT
BRANCH   3   5
ATOM      5  C   LIG    1       -1.306   1.501   0.022  0.00  0.00    +0.160 A 
ATOM      6  C   LIG    1       -2.370   0.757  -0.474  0.00  0.00    +0.010 A 
ATOM      7  C   LIG    1       -3.648   1.279  -0.461  0.00  0.00    +0.060 A 
ATOM      8  C   LIG    1       -3.872   2.549   0.047  0.00  0.00    +0.080 A 
ATOM      9  N   LIG    1       -5.016   3.332   0.192  0.00  0.00    -0.640 N 
ATOM     10  H   LIG    1       -5.916   3.077  -0.066  0.00  0.00    +0.440 HD
ATOM     11  C   LIG    1       -4.660   4.503   0.753  0.00  0.00    +0.690 A 
ATOM     12  N   LIG    1       -3.333   4.514   0.977  0.00  0.00    -0.640 N 
ATOM     13  H   LIG    1       -2.830   5.243   1.373  0.00  0.00    +0.440 HD
ATOM     14  O   LIG    1       -5.423   5.415   1.016  0.00  0.00    -0.550 OA
ATOM     15  C   LIG    1       -2.804   3.300   0.545  0.00  0.00    +0.110 A 
ATOM     16  C   LIG    1       -1.524   2.771   0.536  0.00  0.00    +0.030 A 
ENDBRANCH   3   5
BRANCH   2  17
ATOM     17  C   LIG    1        2.448   1.219  -0.077  0.00  0.00    +0.270 C 
BRANCH  17  18
ATOM     18  O   LIG    1        3.394   2.264  -0.308  0.00  0.00    -0.320 OA
BRANCH  18  19
ATOM     19  C   LIG    1        4.701   1.931  -0.255  0.00  0.00    +0.500 C 
ATOM     20  O   LIG    1        5.026   0.783  -0.019  0.00  0.00    -0.500 OA
BRANCH  19  21
ATOM     21  C   LIG    1        5.725   2.949  -0.482  0.00  0.00    -0.030 C 
ATOM     22  C   LIG    1        7.031   2.615  -0.429  0.00  0.00    +0.140 C 
BRANCH  22  23
ATOM     23  C   LIG    1        8.062   3.640  -0.656  0.00  0.00    -0.060 A 
ATOM     24  C   LIG    1        7.692   4.960  -0.934  0.00  0.00    +0.070 A 
ATOM     25  C   LIG    1        8.663   5.917  -1.141  0.00  0.00    +0.050 A 
ATOM     26  C   LIG    1       10.003   5.572  -1.087  0.00  0.00    +0.070 A 
ATOM     27  C   LIG    1       10.379   4.267  -0.818  0.00  0.00    -0.030 A 
ATOM     28 CL   LIG    1       12.063   3.847  -0.752  0.00  0.00    -0.040 Cl
ATOM     29  C   LIG    1        9.418   3.298  -0.602  0.00  0.00    -0.010 A 
ATOM     30 CL   LIG    1        9.891   1.662  -0.265  0.00  0.00    -0.030 Cl
ENDBRANCH  22  23
ENDBRANCH  19  21
ENDBRANCH  18  19
ENDBRANCH  17  18
ENDBRANCH   2  17
TORSDOF 6
