REMARK  Name = ZINCqH0000000rmP.0
REMARK                            x       y       z     vdW  Elec       q    Type
REMARK                         _______ _______ _______ _____ _____    ______ ____
ROOT
ATOM      1  C   LIG    1       -6.041  -1.140   0.238  0.00  0.00    +0.070 C 
ENDROOT
BRANCH   1   2
ATOM      2  C   LIG    1       -4.695  -0.464   0.277  0.00  0.00    +0.500 C 
ATOM      3  N   LIG    1       -3.569  -1.195   0.161  0.00  0.00    -0.660 N 
ATOM      4  H   LIG    1       -3.626  -2.145  -0.027  0.00  0.00    +0.420 HD
ATOM      5  O   LIG    1       -4.625   0.740   0.412  0.00  0.00    -0.450 OA
BRANCH   3   6
ATOM      6  C   LIG    1       -2.326  -0.588   0.312  0.00  0.00    +0.380 A 
ATOM      7  N   LIG    1       -2.263   0.718   0.458  0.00  0.00    -0.470 NA
ATOM      8  C   LIG    1       -1.090   1.344   0.607  0.00  0.00    +0.160 A 
ATOM      9  C   LIG    1       -1.029   2.739   0.762  0.00  0.00    +0.040 A 
ATOM     10  C   LIG    1        0.179   3.350   0.911  0.00  0.00    +0.040 A 
ATOM     11  C   LIG    1        1.361   2.614   0.912  0.00  0.00    +0.000 A 
ATOM     12  C   LIG    1        1.341   1.260   0.764  0.00  0.00    +0.040 A 
ATOM     13  C   LIG    1        0.114   0.597   0.608  0.00  0.00    -0.130 A 
ATOM     14  C   LIG    1        0.053  -0.802   0.447  0.00  0.00    +0.110 A 
ATOM     15  C   LIG    1       -1.172  -1.383   0.305  0.00  0.00    -0.060 A 
ENDBRANCH   3   6
ENDBRANCH   1   2
BRANCH   1  16
ATOM     16  C   LIG    1       -7.144  -0.091   0.390  0.00  0.00    +0.310 C 
BRANCH  16  17
ATOM     17  C   LIG    1       -8.483  -0.778   0.474  0.00  0.00    -0.110 A 
ATOM     18  C   LIG    1       -9.133  -1.170  -0.681  0.00  0.00    +0.020 A 
ATOM     19  C   LIG    1      -10.358  -1.804  -0.603  0.00  0.00    +0.000 A 
ATOM     20  C   LIG    1      -10.939  -2.037   0.630  0.00  0.00    -0.080 A 
ATOM     21  C   LIG    1      -10.292  -1.640   1.785  0.00  0.00    +0.000 A 
ATOM     22  C   LIG    1      -12.278  -2.723   0.714  0.00  0.00    +0.090 C 
ATOM     23  C   LIG    1       -9.063  -1.010   1.707  0.00  0.00    +0.020 A 
ENDBRANCH  16  17
BRANCH  16  26
ATOM     24  C   LIG    1       -7.658   2.961  -1.861  0.00  0.00    +0.080 C 
ATOM     25  C   LIG    1       -7.566   2.074  -0.646  0.00  0.00    +0.520 C 
ATOM     26  N   LIG    1       -7.128   0.805  -0.769  0.00  0.00    -0.720 N 
ATOM     27  H   LIG    1       -6.801   0.486  -1.625  0.00  0.00    +0.400 HD
ATOM     28  O   LIG    1       -7.887   2.502   0.442  0.00  0.00    -0.540 OA
ENDBRANCH  16  26
ENDBRANCH   1  16
TORSDOF 5
