REMARK  Name = ZINCqH0000031oDA.0
REMARK                            x       y       z     vdW  Elec       q    Type
REMARK                         _______ _______ _______ _____ _____    ______ ____
ROOT
ATOM      1  C   LIG    1       -5.395   3.999   0.051  0.00  0.00    -0.010 A 
ATOM      2  C   LIG    1       -4.609   5.155   0.052  0.00  0.00    +0.070 A 
ATOM      3  C   LIG    1       -3.248   5.068   0.045  0.00  0.00    +0.080 A 
ATOM      4  C   LIG    1       -2.626   3.814   0.035  0.00  0.00    +0.070 A 
ATOM      5  N   LIG    1       -1.330   3.422   0.032  0.00  0.00    -0.470 NA
ATOM      6  C   LIG    1       -1.264   2.111   0.020  0.00  0.00    +0.370 A 
ATOM      7  N   LIG    1       -2.528   1.584   0.023  0.00  0.00    -0.580 N 
ATOM      8  H   LIG    1       -2.759   0.642   0.020  0.00  0.00    +0.430 HD
ATOM      9  C   LIG    1       -3.413   2.647   0.033  0.00  0.00    +0.050 A 
ATOM     10  C   LIG    1       -4.794   2.744   0.042  0.00  0.00    +0.070 A 
ENDROOT
BRANCH   1  13
ATOM     11  C   LIG    1       -8.848   4.884   0.074  0.00  0.00    +0.160 A 
ATOM     12  N   LIG    1       -7.593   5.257   0.069  0.00  0.00    -0.430 NA
ATOM     13  C   LIG    1       -6.874   4.111   0.059  0.00  0.00    +0.220 A 
ATOM     14  N   LIG    1       -7.728   3.120   0.053  0.00  0.00    -0.370 NA
ATOM     15  O   LIG    1       -8.863   3.547   0.067  0.00  0.00    +0.090 OA
BRANCH  11  16
ATOM     16  C   LIG    1      -10.051   5.792   0.085  0.00  0.00    +0.520 C 
BRANCH  16  20
ATOM     17 BR   LIG    1      -13.064   6.255  -4.348  0.00  0.00    -0.010 Br
ATOM     18  C   LIG    1      -11.629   6.301  -3.118  0.00  0.00    -0.240 A 
ATOM     19  C   LIG    1      -11.671   5.893  -1.828  0.00  0.00    +0.290 A 
ATOM     20  N   LIG    1      -10.449   6.093  -1.292  0.00  0.00    -0.380 N 
ATOM     21  N   LIG    1       -9.625   6.635  -2.288  0.00  0.00    -0.270 NA
ATOM     22  C   LIG    1      -10.333   6.760  -3.381  0.00  0.00    +0.290 A 
ENDBRANCH  16  20
ENDBRANCH  11  16
ENDBRANCH   1  13
BRANCH   6  23
ATOM     23  C   LIG    1       -0.016   1.323   0.009  0.00  0.00    +0.110 A 
ATOM     24  C   LIG    1        1.212   1.889   0.001  0.00  0.00    +0.000 A 
ATOM     25  S   LIG    1        2.404   0.591  -0.018  0.00  0.00    +0.170 S 
ATOM     26  C   LIG    1        1.155  -0.575  -0.012  0.00  0.00    +0.240 A 
ATOM     27  N   LIG    1        0.002  -0.004   0.002  0.00  0.00    -0.470 NA
ENDBRANCH   6  23
TORSDOF 4
