REMARK  Name = ZINCqH0000031oDA.1
REMARK                            x       y       z     vdW  Elec       q    Type
REMARK                         _______ _______ _______ _____ _____    ______ ____
ROOT
ATOM      1  C   LIG    1       -4.638   5.138   0.053  0.00  0.00    -0.030 A 
ATOM      2  C   LIG    1       -5.408   3.971   0.051  0.00  0.00    +0.100 A 
ATOM      3  C   LIG    1       -4.800   2.736   0.041  0.00  0.00    +0.030 A 
ATOM      4  C   LIG    1       -3.415   2.644   0.033  0.00  0.00    +0.070 A 
ATOM      5  N   LIG    1       -2.529   1.584   0.024  0.00  0.00    -0.580 N 
ATOM      6  H   LIG    1       -2.759   0.642   0.020  0.00  0.00    +0.430 HD
ATOM      7  C   LIG    1       -1.265   2.111   0.020  0.00  0.00    +0.360 A 
ATOM      8  N   LIG    1       -1.330   3.421   0.032  0.00  0.00    -0.470 NA
ATOM      9  C   LIG    1       -2.629   3.812   0.035  0.00  0.00    +0.050 A 
ATOM     10  C   LIG    1       -3.252   5.061   0.045  0.00  0.00    +0.120 A 
ENDROOT
BRANCH   1  13
ATOM     11  C   LIG    1       -6.771   7.995   0.080  0.00  0.00    +0.150 A 
ATOM     12  N   LIG    1       -6.637   6.692   0.072  0.00  0.00    -0.430 NA
ATOM     13  C   LIG    1       -5.304   6.463   0.064  0.00  0.00    +0.220 A 
ATOM     14  N   LIG    1       -4.713   7.630   0.073  0.00  0.00    -0.360 NA
ATOM     15  O   LIG    1       -5.540   8.517   0.077  0.00  0.00    +0.090 OA
BRANCH  11  16
ATOM     16  C   LIG    1       -8.068   8.761   0.091  0.00  0.00    +0.520 C 
BRANCH  16  20
ATOM     17 BR   LIG    1       -9.590  11.332   4.566  0.00  0.00    -0.010 Br
ATOM     18  C   LIG    1       -9.101   9.998   3.318  0.00  0.00    -0.240 A 
ATOM     19  C   LIG    1       -8.755  10.205   2.026  0.00  0.00    +0.290 A 
ATOM     20  N   LIG    1       -8.482   9.002   1.476  0.00  0.00    -0.380 N 
ATOM     21  N   LIG    1       -8.658   8.026   2.465  0.00  0.00    -0.270 NA
ATOM     22  C   LIG    1       -9.029   8.623   3.568  0.00  0.00    +0.280 A 
ENDBRANCH  16  20
ENDBRANCH  11  16
ENDBRANCH   1  13
BRANCH   7  23
ATOM     23  C   LIG    1       -0.016   1.323   0.009  0.00  0.00    +0.110 A 
ATOM     24  C   LIG    1        1.212   1.889   0.001  0.00  0.00    -0.010 A 
ATOM     25  S   LIG    1        2.404   0.591  -0.018  0.00  0.00    +0.170 S 
ATOM     26  C   LIG    1        1.155  -0.575  -0.012  0.00  0.00    +0.240 A 
ATOM     27  N   LIG    1        0.002  -0.004   0.002  0.00  0.00    -0.470 NA
ENDBRANCH   7  23
TORSDOF 4
