REMARK  Name = ZINCrg000000t6tR.0
REMARK                            x       y       z     vdW  Elec       q    Type
REMARK                         _______ _______ _______ _____ _____    ______ ____
ROOT
ATOM      1  C   LIG    1       -0.661  -0.694  -0.950  0.00  0.00    +0.590 C 
ATOM      2  N   LIG    1       -0.069  -0.011   0.049  0.00  0.00    -0.600 N 
ATOM      3  C   LIG    1       -0.086   1.459   0.063  0.00  0.00    +0.280 C 
ATOM      4  C   LIG    1        1.359   1.965   0.159  0.00  0.00    +0.270 C 
ATOM      5  N   LIG    1        2.034   1.254   1.254  0.00  0.00    -0.620 N 
ATOM      6  C   LIG    1        2.051  -0.216   1.240  0.00  0.00    +0.280 C 
ATOM      7  C   LIG    1        2.627   1.937   2.253  0.00  0.00    +0.520 C 
ATOM      8  O   LIG    1        3.181   1.339   3.151  0.00  0.00    -0.520 OA
ATOM      9  C   LIG    1        0.606  -0.722   1.144  0.00  0.00    +0.270 C 
ATOM     10  O   LIG    1       -1.295  -0.100  -1.800  0.00  0.00    -0.520 OA
ENDROOT
BRANCH   1  16
ATOM     11  C   LIG    1        0.326  -2.765  -1.938  0.00  0.00    +0.400 A 
ATOM     12  N   LIG    1        0.428  -4.088  -1.982  0.00  0.00    -0.500 NA
ATOM     13  C   LIG    1       -0.291  -4.833  -1.162  0.00  0.00    +0.310 A 
ATOM     14  C   LIG    1       -1.152  -4.240  -0.250  0.00  0.00    +0.160 A 
ATOM     15  N   LIG    1       -1.260  -2.929  -0.192  0.00  0.00    -0.370 NA
ATOM     16  C   LIG    1       -0.542  -2.165  -1.011  0.00  0.00    -0.030 A 
BRANCH  11  17
ATOM     17  N   LIG    1        1.073  -1.981  -2.799  0.00  0.00    -0.830 N 
ATOM     18  H   LIG    1        1.615  -2.398  -3.486  0.00  0.00    +0.410 HD
ATOM     19  H   LIG    1        1.054  -1.015  -2.714  0.00  0.00    +0.410 HD
ENDBRANCH  11  17
ENDBRANCH   1  16
BRANCH   7  20
ATOM     20  C   LIG    1        2.602   3.443   2.255  0.00  0.00    +0.140 C 
BRANCH  20  21
ATOM     21  C   LIG    1        3.329   3.957   3.470  0.00  0.00    -0.160 A 
ATOM     22  C   LIG    1        2.777   4.301   4.645  0.00  0.00    +0.240 A 
ATOM     23  N   LIG    1        3.749   4.722   5.511  0.00  0.00    -0.590 N 
ATOM     24  H   LIG    1        3.593   5.021   6.421  0.00  0.00    +0.420 HD
ATOM     25  C   LIG    1        4.981   4.657   4.900  0.00  0.00    +0.100 A 
ATOM     26  C   LIG    1        6.274   4.958   5.316  0.00  0.00    -0.010 A 
ATOM     27  C   LIG    1        7.330   4.782   4.450  0.00  0.00    +0.030 A 
ATOM     28  C   LIG    1        7.119   4.306   3.163  0.00  0.00    -0.020 A 
ATOM     29  C   LIG    1        5.857   4.005   2.733  0.00  0.00    +0.050 A 
ATOM     30  C   LIG    1        4.773   4.170   3.597  0.00  0.00    -0.090 A 
ENDBRANCH  20  21
ENDBRANCH   7  20
TORSDOF 4
