REMARK  Name = ZINCrH000004sL7b.0
REMARK                            x       y       z     vdW  Elec       q    Type
REMARK                         _______ _______ _______ _____ _____    ______ ____
ROOT
ATOM      1  C   LIG    1        0.904   1.965  -1.996  0.00  0.00    +0.180 C 
ATOM      2  C   LIG    1        1.555   2.253  -0.668  0.00  0.00    +0.130 A 
ATOM      3  N   LIG    1        2.658   2.924  -0.484  0.00  0.00    -0.250 NA
ATOM      4  N   LIG    1        2.937   2.976   0.886  0.00  0.00    -0.340 N 
ATOM      5  C   LIG    1        1.966   2.321   1.544  0.00  0.00    +0.170 A 
ATOM      6 CL   LIG    1        1.851   2.110   3.263  0.00  0.00    +0.020 Cl
ATOM      7  C   LIG    1        1.076   1.844   0.598  0.00  0.00    -0.240 A 
ENDROOT
BRANCH   7   8
ATOM      8  C   LIG    1       -0.143   1.062   0.861  0.00  0.00    +0.560 C 
ATOM      9  O   LIG    1       -0.092  -0.151   0.890  0.00  0.00    -0.490 OA
BRANCH   8  10
ATOM     10  O   LIG    1       -1.317   1.693   1.063  0.00  0.00    -0.320 OA
BRANCH  10  11
ATOM     11  C   LIG    1       -2.479   0.858   1.310  0.00  0.00    +0.250 C 
BRANCH  11  12
ATOM     12  C   LIG    1       -3.691   1.731   1.511  0.00  0.00    +0.520 C 
ATOM     13  N   LIG    1       -4.892   1.171   1.757  0.00  0.00    -0.610 N 
ATOM     14  C   LIG    1       -5.037  -0.289   1.826  0.00  0.00    +0.270 C 
ATOM     15  C   LIG    1       -5.708  -0.652   3.159  0.00  0.00    +0.010 C 
ATOM     16  C   LIG    1       -7.026   0.117   3.285  0.00  0.00    +0.020 C 
ATOM     17  C   LIG    1       -6.743   1.621   3.282  0.00  0.00    +0.010 C 
ATOM     18  C   LIG    1       -6.082   2.009   1.955  0.00  0.00    +0.270 C 
ATOM     19  O   LIG    1       -3.585   2.938   1.452  0.00  0.00    -0.510 OA
ENDBRANCH  11  12
ENDBRANCH  10  11
ENDBRANCH   8  10
ENDBRANCH   7   8
BRANCH   4  20
ATOM     20  C   LIG    1        4.090   3.639   1.500  0.00  0.00    +0.390 C 
BRANCH  20  21
ATOM     21  C   LIG    1        3.782   5.101   1.698  0.00  0.00    -0.120 A 
ATOM     22  C   LIG    1        3.283   5.544   2.909  0.00  0.00    +0.050 A 
ATOM     23  C   LIG    1        3.005   6.886   3.092  0.00  0.00    +0.010 A 
ATOM     24  C   LIG    1        3.216   7.783   2.062  0.00  0.00    +0.050 A 
ATOM     25  C   LIG    1        3.710   7.340   0.850  0.00  0.00    +0.030 A 
ATOM     26  C   LIG    1        3.993   5.999   0.667  0.00  0.00    -0.010 A 
ATOM     27 CL   LIG    1        4.614   5.442  -0.856  0.00  0.00    -0.050 Cl
ENDBRANCH  20  21
ENDBRANCH   4  20
TORSDOF 6
