REMARK  Name = ZINCpk000000ory1.0
REMARK                            x       y       z     vdW  Elec       q    Type
REMARK                         _______ _______ _______ _____ _____    ______ ____
ROOT
ATOM      1  C   LIG    1        3.934   7.768  -0.228  0.00  0.00    +0.020 C 
ATOM      2  C   LIG    1        3.119   8.336  -1.413  0.00  0.00    +0.100 C 
ATOM      3  C   LIG    1        4.152   8.573  -2.493  0.00  0.00    +0.520 C 
ATOM      4  N   LIG    1        5.387   8.562  -1.963  0.00  0.00    -0.550 N 
ATOM      5  O   LIG    1        3.901   8.747  -3.667  0.00  0.00    -0.500 OA
ATOM      6  C   LIG    1        5.343   8.335  -0.513  0.00  0.00    +0.320 C 
ENDROOT
BRANCH   4   7
ATOM      7  C   LIG    1        6.565   8.743  -2.699  0.00  0.00    +0.180 A 
ATOM      8  C   LIG    1        6.511   8.832  -4.083  0.00  0.00    +0.020 A 
ATOM      9  C   LIG    1        7.673   9.011  -4.811  0.00  0.00    +0.070 A 
ATOM     10  C   LIG    1        8.893   9.102  -4.161  0.00  0.00    +0.010 A 
ATOM     11  O   LIG    1       10.161   9.275  -4.639  0.00  0.00    -0.310 OA
ATOM     12  C   LIG    1       11.034   8.882  -3.564  0.00  0.00    +0.430 C 
ATOM     13  O   LIG    1       10.252   9.131  -2.380  0.00  0.00    -0.310 OA
ATOM     14  C   LIG    1        8.949   9.014  -2.772  0.00  0.00    +0.060 A 
ATOM     15  C   LIG    1        7.785   8.840  -2.044  0.00  0.00    +0.000 A 
ENDBRANCH   4   7
BRANCH   1  18
ATOM     16  N   LIG    1        2.787   5.578  -0.150  0.00  0.00    -0.720 N 
ATOM     17  H   LIG    1        1.948   6.056  -0.059  0.00  0.00    +0.410 HD
ATOM     18  C   LIG    1        3.944   6.261  -0.253  0.00  0.00    +0.520 C 
ATOM     19  O   LIG    1        4.993   5.663  -0.367  0.00  0.00    -0.530 OA
BRANCH  16  20
ATOM     20  C   LIG    1        2.796   4.113  -0.175  0.00  0.00    +0.240 C 
BRANCH  20  21
ATOM     21  C   LIG    1        1.364   3.592  -0.042  0.00  0.00    +0.120 C 
ATOM     22  C   LIG    1        0.520   4.116  -1.205  0.00  0.00    +0.060 C 
BRANCH  21  23
ATOM     23  O   LIG    1        0.805   4.043   1.193  0.00  0.00    -0.550 OA
ATOM     24  H   LIG    1        1.290   3.748   1.976  0.00  0.00    +0.380 HD
ENDBRANCH  21  23
BRANCH  21  25
ATOM     25  C   LIG    1        1.374   2.062  -0.068  0.00  0.00    +0.000 C 
BRANCH  25  27
ATOM     26  C   LIG    1       -0.056   0.013  -0.086  0.00  0.00    +0.000 C 
ATOM     27  C   LIG    1       -0.065   1.542  -0.060  0.00  0.00    +0.020 C 
ENDBRANCH  25  27
ENDBRANCH  21  25
ENDBRANCH  20  21
ENDBRANCH  16  20
ENDBRANCH   1  18
TORSDOF 7
