REMARK  Name = ZINCb80000002mwX.0
REMARK                            x       y       z     vdW  Elec       q    Type
REMARK                         _______ _______ _______ _____ _____    ______ ____
ROOT
ATOM      1  C   LIG    1       -0.013   1.086   0.008  0.00  0.00    +0.230 C 
ATOM      2  N   LIG    1        1.359   1.623  -0.002  0.00  0.00    -0.720 N 
ATOM      3  H   LIG    1        2.028   1.492  -0.693  0.00  0.00    +0.440 HD
ATOM      4  C   LIG    1        1.504   2.330   1.133  0.00  0.00    +0.700 C 
ATOM      5  N   LIG    1        0.397   2.323   1.884  0.00  0.00    -0.680 N 
ATOM      6  H   LIG    1        0.314   2.779   2.737  0.00  0.00    +0.430 HD
ATOM      7  O   LIG    1        2.526   2.911   1.441  0.00  0.00    -0.540 OA
ATOM      8  C   LIG    1       -0.589   1.604   1.311  0.00  0.00    +0.530 C 
ATOM      9  O   LIG    1       -1.704   1.413   1.746  0.00  0.00    -0.460 OA
ENDROOT
BRANCH   1  11
ATOM     10  C   LIG    1       -0.150   1.152  -2.486  0.00  0.00    +0.050 C 
ATOM     11  C   LIG    1       -0.808   1.618  -1.186  0.00  0.00    -0.060 C 
ATOM     12  C   LIG    1       -0.828   3.148  -1.144  0.00  0.00    +0.030 C 
ATOM     13  C   LIG    1       -2.242   1.088  -1.121  0.00  0.00    +0.050 C 
ENDBRANCH   1  11
TORSDOF 1
