REMARK  Name = ZINCrg000000sOoA.0
REMARK                            x       y       z     vdW  Elec       q    Type
REMARK                         _______ _______ _______ _____ _____    ______ ____
ROOT
ATOM      1  C   LIG    1       -1.262  -0.768   0.009  0.00  0.00    +0.570 C 
ATOM      2  N   LIG    1       -2.443  -0.117   0.024  0.00  0.00    -0.710 N 
ATOM      3  H   LIG    1       -2.462   0.853   0.029  0.00  0.00    +0.400 HD
ATOM      4  O   LIG    1       -1.238  -1.983   0.003  0.00  0.00    -0.510 OA
ENDROOT
BRANCH   1  11
ATOM      5  C   LIG    1        3.983   3.386  -0.018  0.00  0.00    +0.390 C 
ATOM      6  N   LIG    1        3.573   1.980  -0.021  0.00  0.00    -0.380 N 
ATOM      7  N   LIG    1        4.419   0.862  -0.035  0.00  0.00    +0.020 NA
ATOM      8  N   LIG    1        3.712  -0.213  -0.035  0.00  0.00    -0.190 NA
ATOM      9  C   LIG    1        2.395   0.100  -0.020  0.00  0.00    -0.070 A 
ATOM     10  C   LIG    1        1.227  -0.670  -0.013  0.00  0.00    +0.260 A 
ATOM     11  C   LIG    1        0.002  -0.004   0.002  0.00  0.00    -0.210 A 
ATOM     12  C   LIG    1       -0.017   1.397   0.010  0.00  0.00    +0.380 A 
ATOM     13  N   LIG    1        1.097   2.091   0.003  0.00  0.00    -0.480 NA
ATOM     14  C   LIG    1        2.287   1.504  -0.012  0.00  0.00    +0.290 A 
ENDBRANCH   1  11
BRANCH   2  15
ATOM     15  C   LIG    1       -3.697  -0.874   0.031  0.00  0.00    +0.250 C 
ATOM     16  C   LIG    1       -4.833  -0.034   0.658  0.00  0.00    +0.060 C 
ATOM     17  C   LIG    1       -5.472   0.613  -0.590  0.00  0.00    +0.260 C 
ATOM     18  N   LIG    1       -5.163  -0.293  -1.703  0.00  0.00    -0.610 N 
ATOM     19  C   LIG    1       -4.166  -1.136  -1.383  0.00  0.00    +0.510 C 
ATOM     20  O   LIG    1       -3.708  -1.982  -2.122  0.00  0.00    -0.500 OA
BRANCH  18  21
ATOM     21  C   LIG    1       -5.853  -0.281  -2.995  0.00  0.00    +0.350 C 
BRANCH  21  22
ATOM     22  C   LIG    1       -5.141   0.657  -3.936  0.00  0.00    -0.120 A 
ATOM     23  C   LIG    1       -5.509   1.989  -3.993  0.00  0.00    +0.060 A 
ATOM     24  C   LIG    1       -4.853   2.851  -4.852  0.00  0.00    -0.020 A 
ATOM     25  C   LIG    1       -3.834   2.378  -5.662  0.00  0.00    +0.100 A 
ATOM     26  C   LIG    1       -3.470   1.044  -5.607  0.00  0.00    -0.020 A 
ATOM     27  F   LIG    1       -3.196   3.219  -6.505  0.00  0.00    -0.140 F 
ATOM     28  C   LIG    1       -4.123   0.185  -4.744  0.00  0.00    +0.070 A 
ENDBRANCH  21  22
ENDBRANCH  18  21
ENDBRANCH   2  15
TORSDOF 4
