REMARK  Name = ZINCpe00000VVGtV.0
REMARK                            x       y       z     vdW  Elec       q    Type
REMARK                         _______ _______ _______ _____ _____    ______ ____
ROOT
ATOM      1  N   LIG    1       -0.900  -3.944   3.089  0.00  0.00    -1.020 NA
ATOM      2  C   LIG    1       -1.888  -4.116   2.006  0.00  0.00    +0.380 C 
ATOM      3  C   LIG    1       -1.728  -2.605   1.762  0.00  0.00    -0.470 C 
ATOM      4  C   LIG    1       -0.349  -2.740   2.431  0.00  0.00    +0.380 C 
ENDROOT
BRANCH   1   6
ATOM      5  O   LIG    1        0.094  -3.839   5.345  0.00  0.00    -0.920 OA
ATOM      6  S   LIG    1       -0.551  -4.766   4.483  0.00  0.00    +2.710 S 
ATOM      7  O   LIG    1       -1.733  -5.468   4.842  0.00  0.00    -0.940 OA
BRANCH   6   8
ATOM      8  C   LIG    1        0.652  -5.989   4.080  0.00  0.00    -0.460 A 
ATOM      9  C   LIG    1        0.240  -7.248   3.687  0.00  0.00    +0.070 A 
ATOM     10  C   LIG    1        1.194  -8.202   3.367  0.00  0.00    +0.060 A 
ATOM     11  C   LIG    1        2.533  -7.855   3.465  0.00  0.00    +0.040 A 
ATOM     12  C   LIG    1        2.869  -6.577   3.870  0.00  0.00    +0.250 A 
ATOM     13  N   LIG    1        1.935  -5.694   4.162  0.00  0.00    -0.390 NA
ENDBRANCH   6   8
ENDBRANCH   1   6
BRANCH   3  14
ATOM     14  S   LIG    1       -1.647  -2.153   0.007  0.00  0.00    +2.620 S 
ATOM     15  O   LIG    1       -0.522  -2.760  -0.613  0.00  0.00    -0.930 OA
ATOM     16  O   LIG    1       -2.937  -2.223  -0.586  0.00  0.00    -0.930 OA
BRANCH  14  17
ATOM     17  N   LIG    1       -1.288  -0.536   0.012  0.00  0.00    -0.940 N 
ATOM     18  C   LIG    1       -2.278   0.544   0.028  0.00  0.00    +0.280 C 
ATOM     19  C   LIG    1       -1.457   1.843   0.032  0.00  0.00    +0.100 C 
ATOM     20  C   LIG    1       -0.017   1.382   0.010  0.00  0.00    -0.130 A 
ATOM     21  C   LIG    1        1.164   2.099   0.002  0.00  0.00    +0.050 A 
ATOM     22  C   LIG    1        2.378   1.437  -0.013  0.00  0.00    -0.010 A 
ATOM     23  C   LIG    1        2.408   0.055  -0.021  0.00  0.00    +0.040 A 
ATOM     24  C   LIG    1        1.232  -0.665  -0.014  0.00  0.00    -0.010 A 
ATOM     25  C   LIG    1        0.002  -0.004   0.002  0.00  0.00    +0.150 A 
ENDBRANCH  14  17
ENDBRANCH   3  14
TORSDOF 4
