REMARK  Name = ZINCrD00000lc75r.0
REMARK                            x       y       z     vdW  Elec       q    Type
REMARK                         _______ _______ _______ _____ _____    ______ ____
ROOT
ATOM      1  C   LIG    1        0.097   5.232  -2.098  0.00  0.00    +0.600 C 
ATOM      2  N   LIG    1        0.234   5.794  -0.880  0.00  0.00    -0.610 N 
ATOM      3  C   LIG    1       -0.036   7.226  -0.672  0.00  0.00    +0.250 C 
ATOM      4  C   LIG    1       -0.987   7.369   0.521  0.00  0.00    +0.220 C 
ATOM      5  O   LIG    1       -0.451   6.655   1.638  0.00  0.00    -0.370 OA
ATOM      6  C   LIG    1       -0.326   5.247   1.427  0.00  0.00    +0.230 C 
ATOM      7  C   LIG    1        0.659   4.995   0.280  0.00  0.00    +0.290 C 
ATOM      8  O   LIG    1        0.285   4.038  -2.241  0.00  0.00    -0.490 OA
ENDROOT
BRANCH   1  13
ATOM      9  C   LIG    1       -0.743   8.916  -5.945  0.00  0.00    +0.190 C 
ATOM     10  C   LIG    1       -0.661   7.742  -5.005  0.00  0.00    +0.060 A 
ATOM     11  N   LIG    1       -1.278   6.616  -5.173  0.00  0.00    -0.480 NA
ATOM     12  C   LIG    1       -1.099   5.690  -4.265  0.00  0.00    +0.150 A 
ATOM     13  C   LIG    1       -0.279   6.059  -3.249  0.00  0.00    -0.310 A 
ATOM     14  C   LIG    1       -1.750   4.333  -4.340  0.00  0.00    +0.160 C 
ATOM     15  S   LIG    1        0.259   7.707  -3.565  0.00  0.00    +0.170 S 
ENDBRANCH   1  13
BRANCH   7  16
ATOM     16  C   LIG    1        0.652   3.532  -0.082  0.00  0.00    -0.210 A 
ATOM     17  C   LIG    1        1.711   2.692  -0.021  0.00  0.00    +0.100 A 
ATOM     18  N   LIG    1        1.294   1.474  -0.426  0.00  0.00    -0.390 N 
ATOM     19  N   LIG    1       -0.065   1.570  -0.753  0.00  0.00    -0.280 NA
ATOM     20  C   LIG    1        3.106   3.051   0.421  0.00  0.00    +0.140 C 
ATOM     21  C   LIG    1       -0.450   2.803  -0.541  0.00  0.00    +0.150 A 
ATOM     22  C   LIG    1       -1.839   3.344  -0.759  0.00  0.00    +0.130 C 
BRANCH  18  23
ATOM     23  C   LIG    1        2.118   0.266  -0.515  0.00  0.00    +0.370 C 
BRANCH  23  24
ATOM     24  C   LIG    1        2.061  -0.490   0.814  0.00  0.00    +0.440 C 
ATOM     25  F   LIG    1        2.546   0.331   1.838  0.00  0.00    -0.180 F 
ATOM     26  F   LIG    1        2.848  -1.643   0.729  0.00  0.00    -0.180 F 
ATOM     27  F   LIG    1        0.737  -0.848   1.090  0.00  0.00    -0.170 F 
ENDBRANCH  23  24
ENDBRANCH  18  23
ENDBRANCH   7  16
TORSDOF 4
