REMARK  Name = ZINCrD000000AzHr.0
REMARK                            x       y       z     vdW  Elec       q    Type
REMARK                         _______ _______ _______ _____ _____    ______ ____
ROOT
ATOM      1  O   LIG    1        2.216   6.236   3.662  0.00  0.00    -0.530 OA
ATOM      2  C   LIG    1        2.857   6.617   2.706  0.00  0.00    +0.510 C 
ATOM      3  N   LIG    1        2.789   5.948   1.538  0.00  0.00    -0.730 N 
ATOM      4  H   LIG    1        3.302   6.253   0.773  0.00  0.00    +0.410 HD
ENDROOT
BRANCH   3   5
ATOM      5  C   LIG    1        1.939   4.760   1.423  0.00  0.00    +0.280 C 
BRANCH   5   6
ATOM      6  C   LIG    1        2.041   4.195   0.005  0.00  0.00    +0.260 C 
BRANCH   6   7
ATOM      7  N   LIG    1        1.711   5.247  -0.966  0.00  0.00    -0.520 NA
ATOM      8  C   LIG    1        0.485   5.958  -0.577  0.00  0.00    +0.150 C 
ATOM      9  C   LIG    1        0.212   7.081  -1.581  0.00  0.00    +0.230 C 
ATOM     10  O   LIG    1        0.123   6.527  -2.896  0.00  0.00    -0.380 OA
ATOM     11  C   LIG    1        1.300   5.827  -3.308  0.00  0.00    +0.220 C 
ATOM     12  C   LIG    1        1.584   4.692  -2.321  0.00  0.00    +0.160 C 
ENDBRANCH   6   7
BRANCH   6  13
ATOM     13  C   LIG    1        1.075   3.049  -0.149  0.00  0.00    -0.220 A 
ATOM     14  C   LIG    1        1.418   1.764  -0.263  0.00  0.00    +0.020 A 
ATOM     15  C   LIG    1        0.355   0.887  -0.394  0.00  0.00    +0.000 A 
ATOM     16  C   LIG    1       -0.850   1.458  -0.392  0.00  0.00    -0.060 A 
ATOM     17  S   LIG    1       -0.676   3.199  -0.206  0.00  0.00    +0.120 S 
ENDBRANCH   6  13
ENDBRANCH   5   6
ENDBRANCH   3   5
BRANCH   2  18
ATOM     18  C   LIG    1        3.732   7.839   2.824  0.00  0.00    +0.100 C 
BRANCH  18  19
ATOM     19  C   LIG    1        3.631   8.395   4.221  0.00  0.00    -0.070 A 
ATOM     20  C   LIG    1        2.672   9.344   4.522  0.00  0.00    +0.010 A 
ATOM     21  C   LIG    1        2.585   9.848   5.804  0.00  0.00    +0.000 A 
ATOM     22  C   LIG    1        3.460   9.416   6.792  0.00  0.00    -0.070 A 
ATOM     23  C   LIG    1        3.322  10.022   8.165  0.00  0.00    +0.070 C 
ATOM     24  C   LIG    1        4.027   9.156   9.207  0.00  0.00    +0.020 C 
ATOM     25  C   LIG    1        5.456   8.882   8.721  0.00  0.00    +0.020 C 
ATOM     26  C   LIG    1        5.385   7.944   7.518  0.00  0.00    +0.070 C 
ATOM     27  C   LIG    1        4.415   8.470   6.492  0.00  0.00    -0.070 A 
ATOM     28  C   LIG    1        4.500   7.963   5.202  0.00  0.00    +0.020 A 
ENDBRANCH  18  19
ENDBRANCH   2  18
TORSDOF 6
