REMARK  Name = ZINCpe00000MJLxh.0
REMARK                            x       y       z     vdW  Elec       q    Type
REMARK                         _______ _______ _______ _____ _____    ______ ____
ROOT
ATOM      1  O   LIG    1       -0.097   3.960   0.024  0.00  0.00    -0.510 OA
ATOM      2  C   LIG    1        1.030   3.512   0.011  0.00  0.00    +0.530 C 
ATOM      3  N   LIG    1        2.088   4.347   0.005  0.00  0.00    -0.610 N 
ATOM      4  C   LIG    1        3.501   3.941  -0.004  0.00  0.00    +0.260 C 
ATOM      5  C   LIG    1        4.348   5.231  -0.037  0.00  0.00    +0.100 C 
ATOM      6  C   LIG    1        3.361   6.283  -0.608  0.00  0.00    +0.110 C 
ATOM      7  C   LIG    1        2.019   5.820   0.014  0.00  0.00    +0.250 C 
ENDROOT
BRANCH   6   8
ATOM      8  O   LIG    1        3.313   6.220  -2.034  0.00  0.00    -0.540 OA
ATOM      9  H   LIG    1        2.640   6.790  -2.431  0.00  0.00    +0.390 HD
ENDBRANCH   6   8
BRANCH   6  10
ATOM     10  C   LIG    1        3.727   7.691  -0.135  0.00  0.00    +0.340 C 
BRANCH  10  11
ATOM     11  N   LIG    1        2.637   8.614  -0.461  0.00  0.00    -0.300 N 
ATOM     12  C   LIG    1        1.988   9.416   0.416  0.00  0.00    +0.150 A 
ATOM     13  C   LIG    1        1.066  10.095  -0.305  0.00  0.00    +0.140 A 
ATOM     14  N   LIG    1        1.188   9.675  -1.569  0.00  0.00    -0.260 NA
ATOM     15  N   LIG    1        2.128   8.799  -1.628  0.00  0.00    -0.100 NA
ENDBRANCH  10  11
ENDBRANCH   6  10
BRANCH   2  16
ATOM     16  C   LIG    1        1.248   2.021   0.001  0.00  0.00    +0.240 C 
BRANCH  16  17
ATOM     17  O   LIG    1       -0.016   1.355   0.009  0.00  0.00    -0.290 OA
BRANCH  17  18
ATOM     18  C   LIG    1        0.002  -0.004   0.002  0.00  0.00    +0.130 A 
ATOM     19  C   LIG    1        1.212  -0.683  -0.013  0.00  0.00    -0.080 A 
ATOM     20  C   LIG    1        1.225  -2.063  -0.020  0.00  0.00    +0.050 A 
ATOM     21  C   LIG    1        0.036  -2.774  -0.013  0.00  0.00    -0.130 A 
ATOM     22  C   LIG    1       -0.213  -4.267  -0.018  0.00  0.00    +0.070 C 
ATOM     23  C   LIG    1       -1.679  -4.434   0.436  0.00  0.00    +0.030 C 
ATOM     24  C   LIG    1       -2.313  -3.093   0.009  0.00  0.00    +0.080 C 
ATOM     25  C   LIG    1       -1.171  -2.099   0.003  0.00  0.00    -0.060 A 
ATOM     26  C   LIG    1       -1.188  -0.716   0.015  0.00  0.00    -0.010 A 
ENDBRANCH  17  18
ENDBRANCH  16  17
ENDBRANCH   2  16
TORSDOF 6
