REMARK  Name = ZINCqH0000000tWA.0
REMARK                            x       y       z     vdW  Elec       q    Type
REMARK                         _______ _______ _______ _____ _____    ______ ____
ROOT
ATOM      1  N   LIG    1        1.995   3.233  -0.166  0.00  0.00    -0.420 N 
ATOM      2  C   LIG    1        1.262   2.084  -0.281  0.00  0.00    +0.160 A 
ATOM      3  N   LIG    1        2.115   1.088  -0.334  0.00  0.00    -0.280 NA
ATOM      4  N   LIG    1        3.317   1.536  -0.254  0.00  0.00    -0.280 NA
ATOM      5  C   LIG    1        3.305   2.834  -0.147  0.00  0.00    +0.240 A 
ENDROOT
BRANCH   1  10
ATOM      6  C   LIG    1        0.271   6.235   1.095  0.00  0.00    +0.160 A 
ATOM      7  C   LIG    1        0.547   7.140   0.079  0.00  0.00    +0.010 A 
ATOM      8  C   LIG    1        1.299   6.747  -1.012  0.00  0.00    +0.060 A 
ATOM      9  C   LIG    1        1.784   5.456  -1.092  0.00  0.00    +0.010 A 
ATOM     10  C   LIG    1        1.507   4.545  -0.081  0.00  0.00    +0.130 A 
ATOM     11  C   LIG    1        0.752   4.935   1.015  0.00  0.00    +0.040 A 
BRANCH   6  14
ATOM     12  C   LIG    1       -1.135   6.445   4.580  0.00  0.00    +0.110 C 
ATOM     13  C   LIG    1       -0.240   6.109   3.415  0.00  0.00    +0.510 C 
ATOM     14  N   LIG    1       -0.491   6.632   2.199  0.00  0.00    -0.680 N 
ATOM     15  H   LIG    1       -1.200   7.285   2.089  0.00  0.00    +0.420 HD
ATOM     16  O   LIG    1        0.706   5.366   3.572  0.00  0.00    -0.520 OA
ENDBRANCH   6  14
ENDBRANCH   1  10
BRANCH   5  17
ATOM     17  C   LIG    1        4.510   3.732  -0.030  0.00  0.00    +0.040 C 
ATOM     18  C   LIG    1        5.887   3.098  -0.241  0.00  0.00    +0.080 C 
ATOM     19  C   LIG    1        5.442   3.512   1.164  0.00  0.00    +0.060 C 
ENDBRANCH   5  17
BRANCH   2  20
ATOM     20  S   LIG    1       -0.495   1.964  -0.352  0.00  0.00    +0.020 S 
BRANCH  20  21
ATOM     21  C   LIG    1       -0.682   0.171  -0.507  0.00  0.00    +0.160 C 
BRANCH  21  22
ATOM     22  C   LIG    1       -2.146  -0.177  -0.587  0.00  0.00    -0.140 A 
ATOM     23  C   LIG    1       -2.868  -0.443   0.566  0.00  0.00    +0.090 A 
ATOM     24  C   LIG    1       -4.215  -0.752   0.445  0.00  0.00    -0.030 A 
ATOM     25  C   LIG    1       -4.785  -0.797  -0.813  0.00  0.00    +0.270 A 
ATOM     26  N   LIG    1       -4.065  -0.544  -1.889  0.00  0.00    -0.480 NA
ATOM     27  C   LIG    1       -2.784  -0.240  -1.811  0.00  0.00    +0.280 A 
ENDBRANCH  21  22
ENDBRANCH  20  21
ENDBRANCH   2  20
TORSDOF 6
