REMARK  Name = ZINCpk00000y2o3c.0
REMARK                            x       y       z     vdW  Elec       q    Type
REMARK                         _______ _______ _______ _____ _____    ______ ____
ROOT
ATOM      1  C   LIG    1        2.770   4.400  -1.425  0.00  0.00    +0.050 C 
ATOM      2  C   LIG    1        3.216   3.225  -2.256  0.00  0.00    +0.270 C 
ATOM      3  N   LIG    1        3.874   2.252  -1.721  0.00  0.00    -0.480 NA
ATOM      4  C   LIG    1        4.168   2.233  -0.411  0.00  0.00    +0.490 C 
ATOM      5  N   LIG    1        3.551   3.055   0.456  0.00  0.00    -0.660 N 
ATOM      6  H   LIG    1        3.826   3.071   1.387  0.00  0.00    +0.430 HD
ATOM      7  S   LIG    1        5.352   1.140   0.167  0.00  0.00    -0.500 S 
ATOM      8  C   LIG    1        2.889   3.185  -3.727  0.00  0.00    +0.180 C 
ATOM      9  C   LIG    1        2.465   3.926  -0.001  0.00  0.00    +0.330 C 
ENDROOT
BRANCH   9  10
ATOM     10  C   LIG    1        1.167   3.160   0.007  0.00  0.00    -0.060 A 
ATOM     11  C   LIG    1        1.178   1.781   0.000  0.00  0.00    +0.010 A 
ATOM     12  C   LIG    1       -0.013   1.076   0.008  0.00  0.00    +0.070 A 
ATOM     13  C   LIG    1       -1.222   1.748   0.017  0.00  0.00    +0.020 A 
ATOM     14  C   LIG    1       -1.248   3.127   0.030  0.00  0.00    +0.100 A 
ATOM     15  C   LIG    1       -0.050   3.845   0.022  0.00  0.00    -0.110 A 
BRANCH  15  16
ATOM     16  C   LIG    1       -0.070   5.322   0.029  0.00  0.00    +0.510 C 
ATOM     17  O   LIG    1        0.973   5.944   0.022  0.00  0.00    -0.500 OA
BRANCH  16  18
ATOM     18  O   LIG    1       -1.246   5.980   0.044  0.00  0.00    -0.350 OA
ATOM     19  C   LIG    1       -1.189   7.431   0.050  0.00  0.00    +0.290 C 
ENDBRANCH  16  18
ENDBRANCH  15  16
ENDBRANCH   9  10
BRANCH   1  20
ATOM     20  C   LIG    1        3.865   5.434  -1.387  0.00  0.00    +0.480 C 
ATOM     21  O   LIG    1        4.353   5.759  -0.330  0.00  0.00    -0.480 OA
BRANCH  20  22
ATOM     22  O   LIG    1        4.300   5.995  -2.527  0.00  0.00    -0.340 OA
BRANCH  22  23
ATOM     23  C   LIG    1        5.357   6.983  -2.414  0.00  0.00    +0.240 C 
BRANCH  23  24
ATOM     24  C   LIG    1        5.717   7.505  -3.807  0.00  0.00    +0.210 C 
BRANCH  24  26
ATOM     25  C   LIG    1        4.832   8.739  -5.661  0.00  0.00    +0.200 C 
ATOM     26  O   LIG    1        4.600   8.207  -4.355  0.00  0.00    -0.390 OA
ENDBRANCH  24  26
ENDBRANCH  23  24
ENDBRANCH  22  23
ENDBRANCH  20  22
ENDBRANCH   1  20
TORSDOF 8
