REMARK  Name = ZINCpe00000MJJbc.0
REMARK                            x       y       z     vdW  Elec       q    Type
REMARK                         _______ _______ _______ _____ _____    ______ ____
ROOT
ATOM      1  N   LIG    1       -4.631   0.870   1.230  0.00  0.00    -0.720 N 
ATOM      2  H   LIG    1       -4.467   1.723   0.798  0.00  0.00    +0.410 HD
ATOM      3  C   LIG    1       -5.472   0.797   2.280  0.00  0.00    +0.510 C 
ATOM      4  O   LIG    1       -5.678  -0.270   2.819  0.00  0.00    -0.530 OA
ENDROOT
BRANCH   1   9
ATOM      5  C   LIG    1       -2.650   0.024   0.013  0.00  0.00    +0.150 C 
ATOM      6  C   LIG    1       -2.865  -0.485  -1.429  0.00  0.00    +0.210 C 
ATOM      7  O   LIG    1       -3.861  -1.524  -1.309  0.00  0.00    -0.360 OA
ATOM      8  C   LIG    1       -4.818  -1.025  -0.350  0.00  0.00    +0.210 C 
ATOM      9  C   LIG    1       -3.964  -0.339   0.740  0.00  0.00    +0.230 C 
BRANCH   5  10
ATOM     10  O   LIG    1       -2.449   1.439   0.020  0.00  0.00    -0.290 OA
BRANCH  10  14
ATOM     11  C   LIG    1        1.452   4.377   0.012  0.00  0.00    +0.370 C 
ATOM     12  N   LIG    1        0.599   3.186   0.013  0.00  0.00    -0.370 N 
ATOM     13  C   LIG    1       -0.760   3.176   0.026  0.00  0.00    +0.210 A 
ATOM     14  C   LIG    1       -1.160   1.880   0.017  0.00  0.00    -0.030 A 
ATOM     15  C   LIG    1       -0.013   1.076   0.008  0.00  0.00    +0.180 A 
ATOM     16  N   LIG    1        1.038   1.856   0.002  0.00  0.00    -0.270 NA
ENDBRANCH  10  14
ENDBRANCH   5  10
ENDBRANCH   1   9
BRANCH   3  17
ATOM     17  C   LIG    1       -6.158   2.040   2.784  0.00  0.00    +0.110 C 
BRANCH  17  18
ATOM     18  C   LIG    1       -7.038   1.689   3.956  0.00  0.00    -0.100 A 
ATOM     19  C   LIG    1       -6.519   1.735   5.208  0.00  0.00    +0.090 A 
ATOM     20  C   LIG    1       -7.335   1.407   6.312  0.00  0.00    -0.210 A 
ATOM     21  C   LIG    1       -7.146   1.349   7.680  0.00  0.00    +0.270 A 
ATOM     22  N   LIG    1       -8.303   0.969   8.240  0.00  0.00    -0.430 N 
ATOM     23  H   LIG    1       -8.447   0.848   9.191  0.00  0.00    +0.440 HD
ATOM     24  N   LIG    1       -9.271   0.771   7.249  0.00  0.00    -0.310 NA
ATOM     25  C   LIG    1       -8.734   1.024   6.069  0.00  0.00    +0.110 A 
ATOM     26  C   LIG    1       -9.206   0.998   4.738  0.00  0.00    +0.030 A 
ATOM     27  C   LIG    1       -8.368   1.330   3.725  0.00  0.00    +0.070 A 
ENDBRANCH  17  18
ENDBRANCH   3  17
TORSDOF 5
