REMARK  Name = ZINCnE000001OyFa.0
REMARK                            x       y       z     vdW  Elec       q    Type
REMARK                         _______ _______ _______ _____ _____    ______ ____
ROOT
ATOM      1  S   LIG    1       -1.410  -0.880   0.099  0.00  0.00    +2.690 S 
ATOM      2  O   LIG    1       -0.874  -2.177   0.322  0.00  0.00    -0.940 OA
ATOM      3  O   LIG    1       -2.191  -0.548  -1.041  0.00  0.00    -0.940 OA
ENDROOT
BRANCH   1  11
ATOM      4  C   LIG    1        0.721  -0.833   2.238  0.00  0.00    +0.100 C 
ATOM      5  C   LIG    1        0.886   0.175   1.130  0.00  0.00    -0.020 A 
ATOM      6  C   LIG    1        1.964   1.046   1.144  0.00  0.00    +0.060 A 
ATOM      7  C   LIG    1        2.117   1.976   0.134  0.00  0.00    +0.100 A 
ATOM      8  C   LIG    1        1.181   2.037  -0.901  0.00  0.00    -0.130 A 
ATOM      9  C   LIG    1        0.097   1.156  -0.908  0.00  0.00    +0.170 A 
ATOM     10  F   LIG    1        2.867   0.985   2.147  0.00  0.00    -0.140 F 
ATOM     11  C   LIG    1       -0.043   0.232   0.107  0.00  0.00    -0.670 A 
BRANCH   8  12
ATOM     12  C   LIG    1        1.338   3.027  -1.984  0.00  0.00    +0.520 C 
ATOM     13  O   LIG    1        2.288   3.797  -1.975  0.00  0.00    -0.680 OA
ATOM     14  O   LIG    1        0.517   3.078  -2.889  0.00  0.00    -0.670 OA
ENDBRANCH   8  12
ENDBRANCH   1  11
BRANCH   1  15
ATOM     15  N   LIG    1       -2.340  -0.524   1.422  0.00  0.00    -1.050 N 
ATOM     16  H   LIG    1       -2.494  -1.199   2.102  0.00  0.00    +0.430 HD
BRANCH  15  17
ATOM     17  C   LIG    1       -2.901   0.748   1.560  0.00  0.00    +0.200 A 
ATOM     18  C   LIG    1       -3.343   1.438   0.440  0.00  0.00    -0.020 A 
ATOM     19  C   LIG    1       -3.904   2.695   0.581  0.00  0.00    +0.150 A 
ATOM     20  C   LIG    1       -4.014   3.269   1.836  0.00  0.00    -0.010 A 
ATOM     21  C   LIG    1       -3.568   2.585   2.953  0.00  0.00    +0.090 A 
ATOM     22  F   LIG    1       -4.339   3.366  -0.508  0.00  0.00    -0.120 F 
ATOM     23  C   LIG    1       -3.013   1.327   2.819  0.00  0.00    -0.070 A 
ATOM     24 CL   LIG    1       -2.454   0.471   4.222  0.00  0.00    -0.060 Cl
ENDBRANCH  15  17
ENDBRANCH   1  15
TORSDOF 4
