REMARK  Name = ZINCrH000004k6J5.0
REMARK                            x       y       z     vdW  Elec       q    Type
REMARK                         _______ _______ _______ _____ _____    ______ ____
ROOT
ATOM      1  N   LIG    1       -0.444   1.540   1.424  0.00  0.00    -0.740 N 
ATOM      2  H   LIG    1       -0.954   2.365   1.447  0.00  0.00    +0.400 HD
ATOM      3  C   LIG    1       -0.285   0.814   2.548  0.00  0.00    +0.710 C 
ATOM      4  N   LIG    1       -0.834   1.234   3.705  0.00  0.00    -0.720 N 
ATOM      5  H   LIG    1       -1.344   2.059   3.728  0.00  0.00    +0.400 HD
ATOM      6  O   LIG    1        0.354  -0.220   2.519  0.00  0.00    -0.580 OA
ENDROOT
BRANCH   1  12
ATOM      7  C   LIG    1        1.278  -0.968  -1.217  0.00  0.00    +0.200 C 
ATOM      8  N   LIG    1        1.923   0.177  -1.873  0.00  0.00    -0.490 N 
ATOM      9  C   LIG    1        0.997   0.843  -2.798  0.00  0.00    +0.210 C 
ATOM     10  C   LIG    1       -0.422   0.824  -2.261  0.00  0.00    +0.000 C 
ATOM     11  C   LIG    1       -0.620   1.671  -1.018  0.00  0.00    +0.030 C 
ATOM     12  C   LIG    1        0.153   1.083   0.166  0.00  0.00    +0.300 C 
ATOM     13  C   LIG    1        1.588   1.560   0.079  0.00  0.00    -0.120 A 
ATOM     14  C   LIG    1        2.068   2.462   1.008  0.00  0.00    +0.020 A 
ATOM     15  C   LIG    1        3.380   2.897   0.927  0.00  0.00    +0.000 A 
ATOM     16  C   LIG    1        4.205   2.430  -0.079  0.00  0.00    +0.000 A 
ATOM     17  C   LIG    1        3.725   1.528  -1.009  0.00  0.00    +0.030 A 
ATOM     18  C   LIG    1        2.407   1.092  -0.926  0.00  0.00    +0.090 A 
ENDBRANCH   1  12
BRANCH   4  19
ATOM     19  C   LIG    1       -0.661   0.445   4.927  0.00  0.00    +0.280 C 
ATOM     20  C   LIG    1       -1.720   0.597   6.022  0.00  0.00    -0.040 C 
ATOM     21  C   LIG    1       -1.851  -0.510   7.075  0.00  0.00    +0.130 C 
ATOM     22  C   LIG    1       -0.524  -0.507   7.849  0.00  0.00    -0.070 A 
ATOM     23  C   LIG    1       -0.118  -1.311   8.905  0.00  0.00    +0.000 A 
ATOM     24  C   LIG    1        1.140  -1.154   9.458  0.00  0.00    +0.100 A 
ATOM     25  C   LIG    1        1.998  -0.191   8.955  0.00  0.00    -0.010 A 
ATOM     26  C   LIG    1        1.593   0.608   7.904  0.00  0.00    +0.060 A 
ATOM     27  F   LIG    1        1.530  -1.938  10.486  0.00  0.00    -0.140 F 
ATOM     28  C   LIG    1        0.331   0.452   7.350  0.00  0.00    -0.070 A 
ATOM     29  C   LIG    1       -0.322   1.200   6.213  0.00  0.00    -0.010 C 
ENDBRANCH   4  19
TORSDOF 2
