REMARK  Name = ZINCpk000005SxFf.0
REMARK                            x       y       z     vdW  Elec       q    Type
REMARK                         _______ _______ _______ _____ _____    ______ ____
ROOT
ATOM      1  N   LIG    1        2.672   2.048   4.625  0.00  0.00    -0.460 N 
ATOM      2  C   LIG    1        3.231   0.703   4.432  0.00  0.00    +0.210 C 
ATOM      3  C   LIG    1        4.721   0.716   4.791  0.00  0.00    +0.300 C 
ATOM      4  N   LIG    1        4.869   1.263   6.148  0.00  0.00    -0.620 N 
ATOM      5  C   LIG    1        4.219   2.546   6.457  0.00  0.00    +0.300 C 
ATOM      6  C   LIG    1        5.583   0.607   7.084  0.00  0.00    +0.520 C 
ATOM      7  O   LIG    1        5.696   1.073   8.198  0.00  0.00    -0.530 OA
ATOM      8  C   LIG    1        2.749   2.460   6.032  0.00  0.00    +0.230 C 
ENDROOT
BRANCH   1  16
ATOM      9  C   LIG    1       -0.013   1.086   0.008  0.00  0.00    +0.340 C 
ATOM     10  N   LIG    1       -0.698   1.558   1.213  0.00  0.00    -0.480 N 
ATOM     11  C   LIG    1       -2.033   1.814   1.335  0.00  0.00    +0.500 A 
ATOM     12  N   LIG    1       -2.302   2.215   2.542  0.00  0.00    -0.460 NA
ATOM     13  C   LIG    1       -1.159   2.252   3.272  0.00  0.00    -0.080 A 
ATOM     14  C   LIG    1       -0.847   2.599   4.587  0.00  0.00    +0.430 A 
ATOM     15  N   LIG    1        0.412   2.518   4.984  0.00  0.00    -0.550 NA
ATOM     16  C   LIG    1        1.369   2.115   4.157  0.00  0.00    +0.510 A 
ATOM     17  N   LIG    1        1.121   1.777   2.902  0.00  0.00    -0.530 NA
ATOM     18  C   LIG    1       -0.115   1.830   2.425  0.00  0.00    +0.300 A 
ENDBRANCH   1  16
BRANCH   6  19
ATOM     19  C   LIG    1        6.242  -0.706   6.746  0.00  0.00    +0.070 C 
BRANCH  19  20
ATOM     20  C   LIG    1        6.983  -1.236   7.975  0.00  0.00    +0.030 C 
ATOM     21  C   LIG    1        8.425  -0.714   8.097  0.00  0.00    +0.050 C 
ATOM     22  C   LIG    1        8.815  -2.129   8.554  0.00  0.00    +0.250 C 
ATOM     23  F   LIG    1       10.035  -2.571   8.030  0.00  0.00    -0.190 F 
ATOM     24  F   LIG    1        8.715  -2.320   9.937  0.00  0.00    -0.180 F 
ATOM     25  C   LIG    1        7.591  -2.634   7.772  0.00  0.00    +0.050 C 
ENDBRANCH  19  20
ENDBRANCH   6  19
TORSDOF 3
