REMARK  Name = ZINCrD00000F5Ltw.0
REMARK                            x       y       z     vdW  Elec       q    Type
REMARK                         _______ _______ _______ _____ _____    ______ ____
ROOT
ATOM      1  C   LIG    1       -3.180   5.653  -3.237  0.00  0.00    +0.030 C 
ATOM      2  C   LIG    1       -1.732   5.275  -3.550  0.00  0.00    +0.270 C 
ENDROOT
BRANCH   2   3
ATOM      3  N   LIG    1       -1.515   5.330  -4.998  0.00  0.00    -0.710 N 
ATOM      4  H   LIG    1       -1.597   4.524  -5.532  0.00  0.00    +0.400 HD
ATOM      5  C   LIG    1       -1.201   6.500  -5.588  0.00  0.00    +0.570 C 
ATOM      6  O   LIG    1       -1.098   7.510  -4.919  0.00  0.00    -0.510 OA
BRANCH   5   7
ATOM      7  C   LIG    1       -0.983   6.556  -7.046  0.00  0.00    -0.200 A 
ATOM      8  C   LIG    1       -2.055   6.808  -7.909  0.00  0.00    +0.160 A 
ATOM      9  C   LIG    1       -1.840   6.864  -9.273  0.00  0.00    -0.010 A 
ATOM     10  C   LIG    1       -0.572   6.661  -9.787  0.00  0.00    +0.110 A 
ATOM     11  C   LIG    1        0.492   6.406  -8.941  0.00  0.00    -0.010 A 
ATOM     12  F   LIG    1       -3.295   7.001  -7.410  0.00  0.00    -0.120 F 
ATOM     13  C   LIG    1        0.297   6.352  -7.574  0.00  0.00    +0.160 A 
ATOM     14  F   LIG    1        1.338   6.103  -6.750  0.00  0.00    -0.120 F 
ENDBRANCH   5   7
ENDBRANCH   2   3
BRANCH   2  15
ATOM     15  C   LIG    1       -1.454   3.857  -3.047  0.00  0.00    -0.020 C 
ATOM     16  C   LIG    1       -0.005   3.479  -3.360  0.00  0.00    +0.060 C 
BRANCH  15  17
ATOM     17  C   LIG    1       -1.677   3.800  -1.557  0.00  0.00    +0.540 C 
ATOM     18  N   LIG    1       -2.203   2.693  -0.997  0.00  0.00    -0.620 N 
ATOM     19  C   LIG    1       -2.375   2.461   0.449  0.00  0.00    +0.260 C 
ATOM     20  C   LIG    1       -3.521   1.423   0.550  0.00  0.00    +0.040 C 
ATOM     21  C   LIG    1       -3.231   0.517  -0.675  0.00  0.00    +0.100 C 
ATOM     22  C   LIG    1       -2.699   1.516  -1.725  0.00  0.00    +0.260 C 
ATOM     23  O   LIG    1       -1.384   4.750  -0.864  0.00  0.00    -0.530 OA
BRANCH  21  24
ATOM     24  C   LIG    1       -4.495  -0.145  -1.160  0.00  0.00    -0.010 A 
ATOM     25  C   LIG    1       -4.699  -1.471  -1.260  0.00  0.00    -0.050 A 
ATOM     26  C   LIG    1       -6.013  -1.646  -1.752  0.00  0.00    -0.060 A 
ATOM     27  C   LIG    1       -6.530  -0.417  -1.931  0.00  0.00    +0.160 A 
ATOM     28  O   LIG    1       -5.606   0.488  -1.570  0.00  0.00    -0.170 OA
ENDBRANCH  21  24
ENDBRANCH  15  17
ENDBRANCH   2  15
TORSDOF 5
