REMARK  Name = ZINCrH000004rw6a.0
REMARK                            x       y       z     vdW  Elec       q    Type
REMARK                         _______ _______ _______ _____ _____    ______ ____
ROOT
ATOM      1  C   LIG    1       -1.330   1.944   0.019  0.00  0.00    +0.280 C 
ENDROOT
BRANCH   1   2
ATOM      2  C   LIG    1       -0.014   1.209   0.009  0.00  0.00    +0.530 C 
ATOM      3  N   LIG    1        1.143   1.899   0.001  0.00  0.00    -0.560 N 
ATOM      4  C   LIG    1        2.438   1.199  -0.009  0.00  0.00    +0.300 C 
ATOM      5  C   LIG    1        2.905   0.945  -1.423  0.00  0.00    +0.030 C 
ATOM      6  C   LIG    1        3.280   2.185  -2.221  0.00  0.00    +0.030 C 
ATOM      7  S   LIG    1        1.790   3.139  -2.631  0.00  0.00    -0.150 S 
ATOM      8  C   LIG    1        1.495   4.026  -1.120  0.00  0.00    -0.100 A 
ATOM      9  C   LIG    1        1.568   5.405  -1.092  0.00  0.00    +0.080 A 
ATOM     10  C   LIG    1        1.241   6.075   0.076  0.00  0.00    +0.030 A 
ATOM     11  C   LIG    1        0.849   5.363   1.194  0.00  0.00    +0.050 A 
ATOM     12  C   LIG    1        0.800   3.981   1.170  0.00  0.00    +0.010 A 
ATOM     13  C   LIG    1        3.984   1.763  -3.512  0.00  0.00    +0.070 C 
ATOM     14  C   LIG    1        1.145   3.300   0.009  0.00  0.00    +0.150 A 
ATOM     15  O   LIG    1        0.002  -0.004   0.002  0.00  0.00    -0.520 OA
ENDBRANCH   1   2
BRANCH   1  16
ATOM     16  N   LIG    1       -2.430   0.977   0.019  0.00  0.00    -0.730 N 
ATOM     17  H   LIG    1       -2.240   0.026   0.013  0.00  0.00    +0.410 HD
BRANCH  16  24
ATOM     18  C   LIG    1       -4.505  -0.969   0.006  0.00  0.00    +0.100 C 
ATOM     19  C   LIG    1       -4.798   0.509   0.022  0.00  0.00    -0.100 A 
ATOM     20  C   LIG    1       -6.105   0.955   0.035  0.00  0.00    +0.040 A 
ATOM     21  C   LIG    1       -6.374   2.312   0.043  0.00  0.00    +0.060 A 
ATOM     22  C   LIG    1       -5.337   3.226   0.044  0.00  0.00    -0.620 A 
ATOM     23  C   LIG    1       -4.027   2.787   0.036  0.00  0.00    +0.040 A 
ATOM     24  C   LIG    1       -3.753   1.425   0.028  0.00  0.00    +0.200 A 
BRANCH  22  25
ATOM     25  S   LIG    1       -5.686   4.953   0.056  0.00  0.00    +2.500 S 
ATOM     26  O   LIG    1       -4.540   5.538   0.659  0.00  0.00    -0.940 OA
ATOM     27  O   LIG    1       -6.965   5.048   0.667  0.00  0.00    -0.940 OA
ATOM     28  C   LIG    1       -5.783   5.406  -1.698  0.00  0.00    -0.260 C 
ENDBRANCH  22  25
ENDBRANCH  16  24
ENDBRANCH   1  16
TORSDOF 4
