REMARK  Name = ZINCtV000002uVsj.0
REMARK                            x       y       z     vdW  Elec       q    Type
REMARK                         _______ _______ _______ _____ _____    ______ ____
ROOT
ATOM      1  C   LIG    1        1.253  -6.028  -1.752  0.00  0.00    +0.570 C 
ATOM      2  N   LIG    1        0.592  -6.846  -0.910  0.00  0.00    -0.670 N 
ATOM      3  H   LIG    1        0.106  -6.477  -0.156  0.00  0.00    +0.410 HD
ATOM      4  O   LIG    1        1.940  -6.495  -2.640  0.00  0.00    -0.510 OA
ENDROOT
BRANCH   1   8
ATOM      5  C   LIG    1        0.932  -1.814  -1.301  0.00  0.00    +0.140 A 
ATOM      6  C   LIG    1        0.256  -2.659  -0.431  0.00  0.00    -0.040 A 
ATOM      7  C   LIG    1        0.354  -4.026  -0.578  0.00  0.00    +0.050 A 
ATOM      8  C   LIG    1        1.142  -4.564  -1.597  0.00  0.00    -0.140 A 
ATOM      9  C   LIG    1        1.827  -3.714  -2.470  0.00  0.00    +0.040 A 
ATOM     10  C   LIG    1        1.721  -2.345  -2.321  0.00  0.00    +0.100 A 
BRANCH   5  11
ATOM     11  O   LIG    1        0.829  -0.468  -1.155  0.00  0.00    -0.300 OA
BRANCH  11  12
ATOM     12  C   LIG    1        0.004   0.008  -0.089  0.00  0.00    +0.180 C 
BRANCH  12  13
ATOM     13  C   LIG    1        0.011   1.538  -0.083  0.00  0.00    +0.040 C 
BRANCH  13  15
ATOM     14  C   LIG    1       -0.865   3.577   1.064  0.00  0.00    +0.030 C 
ATOM     15  C   LIG    1       -0.872   2.047   1.058  0.00  0.00    +0.020 C 
ENDBRANCH  13  15
ENDBRANCH  12  13
ENDBRANCH  11  12
ENDBRANCH   5  11
BRANCH  10  16
ATOM     16  O   LIG    1        2.387  -1.515  -3.167  0.00  0.00    -0.300 OA
BRANCH  16  17
ATOM     17  C   LIG    1        3.176  -2.127  -4.189  0.00  0.00    +0.170 C 
ATOM     18  C   LIG    1        3.844  -1.042  -5.036  0.00  0.00    +0.070 C 
ENDBRANCH  16  17
ENDBRANCH  10  16
ENDBRANCH   1   8
BRANCH   2  19
ATOM     19  C   LIG    1        0.606  -8.227  -1.123  0.00  0.00    +0.150 A 
ATOM     20  C   LIG    1        0.641  -8.729  -2.419  0.00  0.00    +0.020 A 
ATOM     21  C   LIG    1        0.661 -10.092  -2.631  0.00  0.00    +0.040 A 
ATOM     22  C   LIG    1        0.634 -10.966  -1.545  0.00  0.00    -0.060 A 
ATOM     23  C   LIG    1        0.594 -10.460  -0.246  0.00  0.00    +0.040 A 
ATOM     24  C   LIG    1        0.580  -9.097  -0.039  0.00  0.00    -0.010 A 
BRANCH  22  25
ATOM     25  C   LIG    1        0.649 -12.431  -1.771  0.00  0.00    -0.040 A 
ATOM     26  C   LIG    1        0.628 -13.306  -0.686  0.00  0.00    +0.010 A 
ATOM     27  C   LIG    1        0.637 -14.670  -0.902  0.00  0.00    +0.000 A 
ATOM     28  C   LIG    1        0.676 -15.168  -2.192  0.00  0.00    +0.000 A 
ATOM     29  C   LIG    1        0.703 -14.304  -3.272  0.00  0.00    +0.000 A 
ATOM     30  C   LIG    1        0.689 -12.939  -3.068  0.00  0.00    +0.020 A 
ENDBRANCH  22  25
ENDBRANCH   2  19
TORSDOF 9
