REMARK  Name = ZINCpk000000oNfK.0
REMARK                            x       y       z     vdW  Elec       q    Type
REMARK                         _______ _______ _______ _____ _____    ______ ____
ROOT
ATOM      1  N   LIG    1        6.267   3.835  -3.382  0.00  0.00    -0.490 NA
ATOM      2  C   LIG    1        7.337   3.249  -2.616  0.00  0.00    +0.180 C 
ATOM      3  C   LIG    1        7.200   1.707  -2.593  0.00  0.00    +0.020 C 
ATOM      4  C   LIG    1        5.709   1.320  -2.477  0.00  0.00    +0.270 C 
ATOM      5  N   LIG    1        4.913   2.102  -1.574  0.00  0.00    -0.980 NA
ATOM      6  C   LIG    1        4.229   3.335  -2.092  0.00  0.00    +0.320 C 
ATOM      7  C   LIG    1        5.284   4.307  -2.409  0.00  0.00    +0.170 C 
ENDROOT
BRANCH   5   8
ATOM      8  S   LIG    1        4.756   1.656   0.013  0.00  0.00    +2.680 S 
ATOM      9  O   LIG    1        5.887   0.852   0.317  0.00  0.00    -0.930 OA
ATOM     10  O   LIG    1        4.426   2.838   0.731  0.00  0.00    -0.930 OA
BRANCH   8  11
ATOM     11  C   LIG    1        3.350   0.600   0.121  0.00  0.00    -0.700 A 
ATOM     12  C   LIG    1        2.098   1.136   0.362  0.00  0.00    +0.060 A 
ATOM     13  C   LIG    1        0.994   0.307   0.448  0.00  0.00    +0.050 A 
ATOM     14  C   LIG    1        1.140  -1.058   0.293  0.00  0.00    +0.110 A 
ATOM     15  C   LIG    1        2.391  -1.598   0.052  0.00  0.00    +0.050 A 
ATOM     16  F   LIG    1        2.534  -2.933  -0.101  0.00  0.00    -0.120 F 
ATOM     17 CL   LIG    1        1.912   2.851   0.557  0.00  0.00    -0.000 Cl
ATOM     18  C   LIG    1        3.498  -0.767  -0.034  0.00  0.00    +0.180 A 
ATOM     19  F   LIG    1        4.721  -1.293  -0.270  0.00  0.00    -0.090 F 
ENDBRANCH   8  11
ENDBRANCH   5   8
BRANCH   1  20
ATOM     20  C   LIG    1        6.758   4.942  -4.213  0.00  0.00    +0.250 C 
BRANCH  20  23
ATOM     21  N   LIG    1        8.140   6.971  -3.912  0.00  0.00    -0.730 N 
ATOM     22  H   LIG    1        8.127   7.085  -4.875  0.00  0.00    +0.400 HD
ATOM     23  C   LIG    1        7.498   5.929  -3.347  0.00  0.00    +0.480 C 
ATOM     24  O   LIG    1        7.514   5.787  -2.143  0.00  0.00    -0.530 OA
BRANCH  21  26
ATOM     25  C   LIG    1        9.495   9.007  -3.953  0.00  0.00    +0.020 C 
ATOM     26  C   LIG    1        8.859   7.931  -3.071  0.00  0.00    +0.250 C 
ENDBRANCH  21  26
ENDBRANCH  20  23
ENDBRANCH   1  20
TORSDOF 5
