REMARK  Name = ZINCrD0000075aHI.0
REMARK                            x       y       z     vdW  Elec       q    Type
REMARK                         _______ _______ _______ _____ _____    ______ ____
ROOT
ATOM      1  C   LIG    1       -0.002  -0.001   0.455  0.00  0.00    +0.570 C 
ATOM      2  N   LIG    1        0.037   1.305   0.125  0.00  0.00    -0.590 N 
ATOM      3  C   LIG    1       -1.153   1.912  -0.503  0.00  0.00    +0.260 C 
ATOM      4  C   LIG    1       -0.786   2.853  -1.661  0.00  0.00    +0.020 C 
ATOM      5  C   LIG    1        0.328   2.250  -2.481  0.00  0.00    +0.020 C 
ATOM      6  C   LIG    1        1.670   2.741  -1.947  0.00  0.00    +0.010 C 
ATOM      7  C   LIG    1        2.198   1.956  -0.821  0.00  0.00    +0.020 C 
ATOM      8  C   LIG    1        1.245   2.052   0.396  0.00  0.00    +0.290 C 
ATOM      9  O   LIG    1        1.001  -0.556   0.862  0.00  0.00    -0.530 OA
ENDROOT
BRANCH   1  12
ATOM     10  C   LIG    1       -0.237  -3.072   0.246  0.00  0.00    +0.330 C 
ATOM     11  N   LIG    1       -1.359  -2.130   0.230  0.00  0.00    -0.450 N 
ATOM     12  C   LIG    1       -1.257  -0.756   0.324  0.00  0.00    +0.030 A 
ATOM     13  C   LIG    1       -2.502  -0.213   0.280  0.00  0.00    +0.020 A 
ATOM     14  C   LIG    1       -3.430  -1.273   0.146  0.00  0.00    -0.120 A 
ATOM     15  C   LIG    1       -4.827  -1.322   0.050  0.00  0.00    +0.140 A 
ATOM     16  C   LIG    1       -5.457  -2.527  -0.068  0.00  0.00    -0.210 A 
ATOM     17  C   LIG    1       -4.726  -3.708  -0.093  0.00  0.00    +0.090 A 
ATOM     18  C   LIG    1       -3.353  -3.686  -0.001  0.00  0.00    +0.010 A 
ATOM     19  C   LIG    1       -2.687  -2.470   0.120  0.00  0.00    +0.130 A 
BRANCH  16  20
ATOM     20  C   LIG    1       -6.960  -2.577  -0.171  0.00  0.00    +0.510 C 
ATOM     21  F   LIG    1       -7.511  -1.494   0.522  0.00  0.00    -0.180 F 
ATOM     22  F   LIG    1       -7.426  -3.773   0.385  0.00  0.00    -0.180 F 
ATOM     23  F   LIG    1       -7.337  -2.510  -1.516  0.00  0.00    -0.180 F 
ENDBRANCH  16  20
ENDBRANCH   1  12
BRANCH   6  24
ATOM     24  C   LIG    1        2.690   2.701  -3.088  0.00  0.00    +0.050 C 
BRANCH  24  25
ATOM     25  C   LIG    1        3.953   3.401  -2.657  0.00  0.00    +0.510 C 
ATOM     26  O   LIG    1        4.030   3.884  -1.547  0.00  0.00    -0.540 OA
ATOM     27  N   LIG    1        4.997   3.489  -3.505  0.00  0.00    -0.860 N 
ATOM     28  H   LIG    1        5.810   3.940  -3.228  0.00  0.00    +0.400 HD
ATOM     29  H   LIG    1        4.935   3.103  -4.392  0.00  0.00    +0.400 HD
ENDBRANCH  24  25
ENDBRANCH   6  24
TORSDOF 4
