REMARK  Name = ZINCrH000004k0Vq.0
REMARK                            x       y       z     vdW  Elec       q    Type
REMARK                         _______ _______ _______ _____ _____    ______ ____
ROOT
ATOM      1  C   LIG    1        1.169   3.686  -0.477  0.00  0.00    +0.070 A 
ATOM      2  N   LIG    1        0.036   4.345  -0.428  0.00  0.00    -0.190 NA
ATOM      3  N   LIG    1       -0.058   5.598  -0.190  0.00  0.00    -0.320 N 
ATOM      4  C   LIG    1        1.006   6.395   0.040  0.00  0.00    +0.520 A 
ATOM      5  C   LIG    1        2.347   5.796   0.018  0.00  0.00    -0.140 A 
ATOM      6  C   LIG    1        3.506   6.530   0.243  0.00  0.00    +0.090 A 
ATOM      7  C   LIG    1        4.727   5.889   0.222  0.00  0.00    +0.030 A 
ATOM      8  C   LIG    1        4.809   4.528  -0.039  0.00  0.00    +0.050 A 
ATOM      9  C   LIG    1        3.672   3.783  -0.270  0.00  0.00    +0.080 A 
ATOM     10  O   LIG    1        0.858   7.583   0.262  0.00  0.00    -0.480 OA
ATOM     11  C   LIG    1        2.430   4.407  -0.242  0.00  0.00    -0.040 A 
ENDROOT
BRANCH   3  12
ATOM     12  C   LIG    1       -1.333   6.173  -0.167  0.00  0.00    +0.120 A 
ATOM     13  C   LIG    1       -1.715   6.979   0.898  0.00  0.00    +0.040 A 
ATOM     14  C   LIG    1       -2.972   7.550   0.915  0.00  0.00    +0.020 A 
ATOM     15  C   LIG    1       -3.855   7.311  -0.123  0.00  0.00    +0.020 A 
ATOM     16  C   LIG    1       -3.480   6.506  -1.182  0.00  0.00    +0.020 A 
ATOM     17  C   LIG    1       -2.223   5.936  -1.208  0.00  0.00    +0.030 A 
ENDBRANCH   3  12
BRANCH   1  20
ATOM     18  C   LIG    1       -1.218   2.361  -1.180  0.00  0.00    +0.300 C 
ATOM     19  N   LIG    1        0.039   1.612  -1.115  0.00  0.00    -0.590 N 
ATOM     20  C   LIG    1        1.179   2.237  -0.759  0.00  0.00    +0.590 C 
ATOM     21  O   LIG    1        2.216   1.608  -0.671  0.00  0.00    -0.520 OA
BRANCH  19  22
ATOM     22  C   LIG    1        0.059   0.184  -1.444  0.00  0.00    +0.360 C 
BRANCH  22  23
ATOM     23  C   LIG    1       -0.186  -0.622  -0.194  0.00  0.00    -0.120 A 
ATOM     24  C   LIG    1       -1.409  -0.976   0.203  0.00  0.00    -0.040 A 
ATOM     25  S   LIG    1       -1.300  -1.903   1.694  0.00  0.00    +0.100 S 
ATOM     26  C   LIG    1        0.452  -1.754   1.693  0.00  0.00    -0.050 A 
ATOM     27  C   LIG    1        0.842  -1.056   0.625  0.00  0.00    +0.030 A 
ENDBRANCH  22  23
ENDBRANCH  19  22
ENDBRANCH   1  20
TORSDOF 4
