REMARK  Name = ZINCrD00000F5LpI.0
REMARK                            x       y       z     vdW  Elec       q    Type
REMARK                         _______ _______ _______ _____ _____    ______ ____
ROOT
ATOM      1  N   LIG    1       -6.136   3.577   0.079  0.00  0.00    -0.580 N 
ATOM      2  H   LIG    1       -6.302   2.621   0.075  0.00  0.00    +0.390 HD
ATOM      3  C   LIG    1       -4.871   4.041   0.069  0.00  0.00    +0.530 C 
ATOM      4  O   LIG    1       -4.663   5.236   0.074  0.00  0.00    -0.490 OA
ENDROOT
BRANCH   1   6
ATOM      5  C   LIG    1       -8.430   4.028   0.103  0.00  0.00    +0.140 C 
ATOM      6  N   LIG    1       -7.211   4.475   0.094  0.00  0.00    -0.210 NA
ATOM      7  C   LIG    1       -8.688   2.543   0.098  0.00  0.00    +0.090 C 
BRANCH   5  11
ATOM      8  C   LIG    1      -11.691   6.750   0.150  0.00  0.00    +0.160 A 
ATOM      9  C   LIG    1      -11.928   5.381   0.144  0.00  0.00    -0.080 A 
ATOM     10  C   LIG    1      -10.873   4.494   0.129  0.00  0.00    +0.110 A 
ATOM     11  C   LIG    1       -9.561   4.972   0.119  0.00  0.00    -0.120 A 
ATOM     12  C   LIG    1       -9.324   6.354   0.130  0.00  0.00    +0.190 A 
ATOM     13  C   LIG    1      -10.391   7.234   0.141  0.00  0.00    -0.050 A 
BRANCH   8  15
ATOM     14  C   LIG    1      -14.049   7.052   0.174  0.00  0.00    +0.240 C 
ATOM     15  O   LIG    1      -12.736   7.617   0.165  0.00  0.00    -0.310 OA
ENDBRANCH   8  15
BRANCH  12  16
ATOM     16  O   LIG    1       -8.051   6.827   0.126  0.00  0.00    -0.470 OA
ATOM     17  H   LIG    1       -7.688   6.972  -0.759  0.00  0.00    +0.400 HD
ENDBRANCH  12  16
ENDBRANCH   5  11
ENDBRANCH   1   6
BRANCH   3  18
ATOM     18  C   LIG    1       -3.714   3.075   0.053  0.00  0.00    +0.310 C 
BRANCH  18  19
ATOM     19  N   LIG    1       -2.454   3.822   0.045  0.00  0.00    -0.730 N 
ATOM     20  H   LIG    1       -2.465   4.792   0.050  0.00  0.00    +0.420 HD
BRANCH  19  21
ATOM     21  C   LIG    1       -1.236   3.138   0.030  0.00  0.00    +0.220 A 
ATOM     22  C   LIG    1       -1.218   1.749   0.017  0.00  0.00    -0.040 A 
ATOM     23  C   LIG    1       -0.013   1.076   0.008  0.00  0.00    +0.070 A 
ATOM     24  C   LIG    1        1.176   1.783   0.000  0.00  0.00    +0.010 A 
ATOM     25  C   LIG    1        1.161   3.166   0.007  0.00  0.00    -0.130 A 
ATOM     26  C   LIG    1       -0.040   3.845   0.022  0.00  0.00    -0.010 A 
BRANCH  25  27
ATOM     27  C   LIG    1        2.459   3.932  -0.001  0.00  0.00    +0.510 C 
ATOM     28  F   LIG    1        2.537   4.731   1.144  0.00  0.00    -0.180 F 
ATOM     29  F   LIG    1        2.514   4.742  -1.140  0.00  0.00    -0.180 F 
ATOM     30  F   LIG    1        3.531   3.033  -0.016  0.00  0.00    -0.180 F 
ENDBRANCH  25  27
ENDBRANCH  19  21
ENDBRANCH  18  19
ENDBRANCH   3  18
TORSDOF 8
