REMARK  Name = ZINCpk000000pStd.0
REMARK                            x       y       z     vdW  Elec       q    Type
REMARK                         _______ _______ _______ _____ _____    ______ ____
ROOT
ATOM      1  N   LIG    1       -5.011   2.713   5.072  0.00  0.00    -0.560 N 
ATOM      2  C   LIG    1       -4.875   4.001   4.733  0.00  0.00    +0.530 C 
ATOM      3  C   LIG    1       -3.411   4.301   4.498  0.00  0.00    +0.110 C 
ATOM      4  C   LIG    1       -2.717   2.950   4.762  0.00  0.00    +0.060 C 
ATOM      5  O   LIG    1       -5.781   4.800   4.631  0.00  0.00    -0.470 OA
ATOM      6  C   LIG    1       -3.863   2.027   5.120  0.00  0.00    +0.540 C 
ATOM      7  O   LIG    1       -3.757   0.854   5.403  0.00  0.00    -0.470 OA
ENDROOT
BRANCH   4   8
ATOM      8  C   LIG    1       -2.012   2.464   3.522  0.00  0.00    -0.090 A 
ATOM      9  C   LIG    1       -0.646   2.252   3.542  0.00  0.00    +0.040 A 
ATOM     10  C   LIG    1        0.001   1.806   2.405  0.00  0.00    +0.010 A 
ATOM     11  C   LIG    1       -0.718   1.572   1.248  0.00  0.00    -0.080 A 
ATOM     12  C   LIG    1       -2.083   1.789   1.226  0.00  0.00    +0.000 A 
ATOM     13  C   LIG    1       -0.013   1.086   0.008  0.00  0.00    +0.090 C 
ATOM     14  C   LIG    1       -2.731   2.230   2.365  0.00  0.00    +0.020 A 
ENDBRANCH   4   8
BRANCH   1  15
ATOM     15  C   LIG    1       -6.311   2.104   5.368  0.00  0.00    +0.340 C 
BRANCH  15  21
ATOM     16  C   LIG    1       -9.136  -1.054   3.179  0.00  0.00    +0.140 C 
ATOM     17  C   LIG    1       -8.710   0.393   2.903  0.00  0.00    +0.260 C 
ATOM     18  N   LIG    1       -8.108   0.941   4.129  0.00  0.00    -0.610 N 
ATOM     19  C   LIG    1       -8.854   0.797   5.389  0.00  0.00    +0.250 C 
ATOM     20  C   LIG    1       -9.275  -0.664   5.543  0.00  0.00    +0.220 C 
ATOM     21  C   LIG    1       -6.907   1.551   4.099  0.00  0.00    +0.510 C 
ATOM     22  O   LIG    1       -6.305   1.655   3.051  0.00  0.00    -0.520 OA
ATOM     23  O   LIG    1       -9.948  -1.089   4.355  0.00  0.00    -0.370 OA
BRANCH  16  25
ATOM     24  C   LIG    1      -10.255  -3.066   2.209  0.00  0.00    +0.020 C 
ATOM     25  C   LIG    1       -9.937  -1.586   1.988  0.00  0.00    +0.040 C 
ENDBRANCH  16  25
ENDBRANCH  15  21
ENDBRANCH   1  15
TORSDOF 4
