REMARK  Name = ZINCkj000005krlX.0
REMARK                            x       y       z     vdW  Elec       q    Type
REMARK                         _______ _______ _______ _____ _____    ______ ____
ROOT
ATOM      1  N   LIG    1        0.957   4.199   1.008  0.00  0.00    -0.580 NA
ATOM      2  H   LIG    1        0.564   3.681   1.729  0.00  0.00    +0.440 HD
ENDROOT
BRANCH   1   9
ATOM      3  C   LIG    1       -0.005  11.003   3.635  0.00  0.00    +0.120 C 
ATOM      4  C   LIG    1        0.445   9.970   2.635  0.00  0.00    -0.020 A 
ATOM      5  C   LIG    1        1.061  10.375   1.464  0.00  0.00    +0.070 A 
ATOM      6  C   LIG    1        1.472   9.425   0.548  0.00  0.00    +0.120 A 
ATOM      7  C   LIG    1        1.268   8.081   0.808  0.00  0.00    -0.180 A 
ATOM      8  S   LIG    1        1.657   6.623  -0.115  0.00  0.00    +0.260 S 
ATOM      9  C   LIG    1        0.990   5.503   1.083  0.00  0.00    +0.410 C 
ATOM     10  N   LIG    1        0.512   6.279   2.096  0.00  0.00    -0.590 N 
ATOM     11  H   LIG    1        0.090   5.882   2.874  0.00  0.00    +0.440 HD
ATOM     12  C   LIG    1        0.650   7.652   1.983  0.00  0.00    +0.120 A 
ATOM     13  C   LIG    1        0.240   8.635   2.897  0.00  0.00    +0.050 A 
ENDBRANCH   1   9
BRANCH   1  14
ATOM     14  C   LIG    1        1.514   3.518  -0.163  0.00  0.00    +0.340 C 
BRANCH  14  15
ATOM     15  C   LIG    1        1.350   2.006  -0.000  0.00  0.00    +0.070 C 
ATOM     16  C   LIG    1        1.927   1.293  -1.226  0.00  0.00    +0.220 C 
ATOM     17  O   LIG    1        1.703  -0.114  -1.103  0.00  0.00    -0.360 OA
ATOM     18  C   LIG    1        0.323  -0.469  -0.981  0.00  0.00    +0.180 C 
ATOM     19  C   LIG    1       -0.270   0.225   0.247  0.00  0.00    +0.210 C 
ATOM     20  N   LIG    1       -0.078   1.677   0.124  0.00  0.00    -0.680 NA
ATOM     21  H   LIG    1       -0.603   2.047  -0.655  0.00  0.00    +0.360 HD
BRANCH  15  22
ATOM     22  C   LIG    1        2.091   1.542   1.256  0.00  0.00    +0.210 C 
BRANCH  22  23
ATOM     23  O   LIG    1        3.453   1.969   1.189  0.00  0.00    -0.570 OA
ATOM     24  H   LIG    1        3.984   1.710   1.955  0.00  0.00    +0.400 HD
ENDBRANCH  22  23
ENDBRANCH  15  22
ENDBRANCH  14  15
ENDBRANCH   1  14
TORSDOF 5
