REMARK  Name = ZINCbw0000000HoE.0
REMARK                            x       y       z     vdW  Elec       q    Type
REMARK                         _______ _______ _______ _____ _____    ______ ____
ROOT
ATOM      1  C   LIG    1        2.407   0.008  -0.020  0.00  0.00    +0.270 A 
ATOM      2  C   LIG    1        2.392   1.401  -0.012  0.00  0.00    -0.020 A 
ATOM      3  C   LIG    1        1.215   2.084   0.002  0.00  0.00    +0.150 A 
ATOM      4  C   LIG    1       -0.017   1.395   0.010  0.00  0.00    +0.020 A 
ATOM      5  N   LIG    1       -1.267   1.899   0.030  0.00  0.00    -0.450 NA
ATOM      6  C   LIG    1       -2.249   1.078   0.029  0.00  0.00    +0.290 A 
ATOM      7  S   LIG    1       -1.663  -0.580   0.015  0.00  0.00    +0.070 S 
ATOM      8  C   LIG    1        0.002  -0.004   0.002  0.00  0.00    -0.100 A 
ATOM      9  C   LIG    1        1.214  -0.693  -0.013  0.00  0.00    -0.150 A 
ATOM     10 BR   LIG    1        1.227  -2.584  -0.022  0.00  0.00    -0.040 Br
ENDROOT
BRANCH   1  11
ATOM     11  N   LIG    1        3.624  -0.681  -0.035  0.00  0.00    -0.860 N 
ATOM     12  H   LIG    1        4.460  -0.188  -0.040  0.00  0.00    +0.410 HD
ATOM     13  H   LIG    1        3.633  -1.651  -0.041  0.00  0.00    +0.410 HD
ENDBRANCH   1  11
TORSDOF 1
