REMARK  Name = ZINCpe00000MJLCK.0
REMARK                            x       y       z     vdW  Elec       q    Type
REMARK                         _______ _______ _______ _____ _____    ______ ____
ROOT
ATOM      1  C   LIG    1        2.416   1.181   0.096  0.00  0.00    +0.350 C 
ATOM      2  C   LIG    1        1.950   1.769   1.432  0.00  0.00    -0.330 C 
ATOM      3  S   LIG    1        2.221   3.565   1.411  0.00  0.00    +2.420 S 
ATOM      4  C   LIG    1        1.304   4.049  -0.081  0.00  0.00    -0.350 C 
ATOM      5  C   LIG    1        1.836   3.242  -1.275  0.00  0.00    +0.320 C 
ATOM      6  O   LIG    1        3.604   3.814   1.198  0.00  0.00    -0.930 OA
ATOM      7  O   LIG    1        1.579   4.135   2.544  0.00  0.00    -0.930 OA
ATOM      8  N   LIG    1        1.680   1.813  -1.000  0.00  0.00    -0.630 N 
ATOM      9  C   LIG    1        0.855   1.071  -1.766  0.00  0.00    +0.530 C 
ATOM     10  O   LIG    1        0.803  -0.131  -1.613  0.00  0.00    -0.470 OA
ENDROOT
BRANCH   9  11
ATOM     11  C   LIG    1        0.003   1.735  -2.816  0.00  0.00    +0.010 C 
ATOM     12  C   LIG    1       -1.081   2.627  -2.166  0.00  0.00    +0.260 C 
ATOM     13  O   LIG    1       -2.208   1.740  -2.069  0.00  0.00    -0.300 OA
ATOM     14  C   LIG    1       -2.128   0.804  -3.054  0.00  0.00    +0.110 A 
ATOM     15  C   LIG    1       -3.115  -0.028  -3.577  0.00  0.00    -0.010 A 
ATOM     16  C   LIG    1       -2.806  -0.930  -4.574  0.00  0.00    +0.050 A 
ATOM     17  C   LIG    1       -1.515  -1.017  -5.063  0.00  0.00    -0.020 A 
ATOM     18  C   LIG    1       -0.530  -0.191  -4.551  0.00  0.00    +0.070 A 
ATOM     19  C   LIG    1       -0.837   0.713  -3.558  0.00  0.00    -0.150 A 
ENDBRANCH   9  11
BRANCH   1  23
ATOM     20  C   LIG    1        2.886  -3.741  -0.725  0.00  0.00    +0.340 C 
ATOM     21  N   LIG    1        2.367  -2.446  -0.277  0.00  0.00    -0.370 N 
ATOM     22  C   LIG    1        2.943  -1.245  -0.489  0.00  0.00    +0.240 A 
ATOM     23  C   LIG    1        2.157  -0.304   0.084  0.00  0.00    -0.200 A 
ATOM     24  C   LIG    1        1.059  -0.953   0.658  0.00  0.00    +0.250 A 
ATOM     25  N   LIG    1        1.184  -2.237   0.442  0.00  0.00    -0.290 NA
ENDBRANCH   1  23
TORSDOF 2
