REMARK  Name = ZINCvU0000000HjS.0
REMARK                            x       y       z     vdW  Elec       q    Type
REMARK                         _______ _______ _______ _____ _____    ______ ____
ROOT
ATOM      1  C   LIG    1        4.356   7.309  -3.802  0.00  0.00    +0.190 C 
ATOM      2  C   LIG    1        5.133   6.611  -4.889  0.00  0.00    +0.150 A 
ATOM      3  N   LIG    1        5.307   7.036  -6.104  0.00  0.00    -0.270 NA
ATOM      4  O   LIG    1        6.091   6.108  -6.826  0.00  0.00    -0.080 OA
ATOM      5  C   LIG    1        6.410   5.072  -6.025  0.00  0.00    +0.310 A 
ATOM      6  N   LIG    1        7.112   3.967  -6.216  0.00  0.00    -0.470 NA
ATOM      7  C   LIG    1        7.293   3.076  -5.253  0.00  0.00    +0.250 A 
ATOM      8  C   LIG    1        6.752   3.262  -3.978  0.00  0.00    -0.010 A 
ATOM      9  C   LIG    1        5.999   4.404  -3.722  0.00  0.00    +0.010 A 
ATOM     10  C   LIG    1        5.828   5.331  -4.771  0.00  0.00    -0.220 A 
ENDROOT
BRANCH   7  11
ATOM     11  C   LIG    1        8.090   1.857  -5.532  0.00  0.00    -0.080 A 
ATOM     12  C   LIG    1        8.295   0.911  -4.529  0.00  0.00    +0.080 A 
ATOM     13  C   LIG    1        9.034  -0.223  -4.795  0.00  0.00    -0.020 A 
ATOM     14  C   LIG    1        9.580  -0.418  -6.053  0.00  0.00    +0.120 A 
ATOM     15  C   LIG    1        9.383   0.523  -7.052  0.00  0.00    -0.020 A 
ATOM     16  F   LIG    1       10.307  -1.528  -6.307  0.00  0.00    -0.130 F 
ATOM     17  C   LIG    1        8.642   1.657  -6.797  0.00  0.00    +0.110 A 
ENDBRANCH   7  11
BRANCH   9  18
ATOM     18  C   LIG    1        5.403   4.642  -2.389  0.00  0.00    +0.560 C 
ATOM     19  N   LIG    1        6.183   4.629  -1.290  0.00  0.00    -0.600 N 
ATOM     20  C   LIG    1        7.601   4.282  -1.402  0.00  0.00    +0.290 C 
ATOM     21  O   LIG    1        4.210   4.849  -2.285  0.00  0.00    -0.510 OA
BRANCH  19  22
ATOM     22  C   LIG    1        5.611   4.963   0.018  0.00  0.00    +0.330 C 
BRANCH  22  23
ATOM     23  C   LIG    1        5.089   3.689   0.686  0.00  0.00    +0.190 C 
BRANCH  23  24
ATOM     24  O   LIG    1        6.184   2.814   0.964  0.00  0.00    -0.300 OA
BRANCH  24  25
ATOM     25  C   LIG    1        5.891   1.629   1.562  0.00  0.00    +0.140 A 
ATOM     26  C   LIG    1        4.577   1.316   1.875  0.00  0.00    -0.060 A 
ATOM     27  C   LIG    1        4.280   0.110   2.482  0.00  0.00    +0.060 A 
ATOM     28  C   LIG    1        5.293  -0.783   2.779  0.00  0.00    -0.010 A 
ATOM     29  C   LIG    1        6.604  -0.473   2.469  0.00  0.00    +0.070 A 
ATOM     30  C   LIG    1        6.906   0.730   1.861  0.00  0.00    -0.070 A 
ATOM     31 CL   LIG    1        8.553   1.118   1.470  0.00  0.00    -0.060 Cl
ENDBRANCH  24  25
ENDBRANCH  23  24
ENDBRANCH  22  23
ENDBRANCH  19  22
ENDBRANCH   9  18
TORSDOF 6
