REMARK  Name = ZINCqH0000001Cqq.0
REMARK                            x       y       z     vdW  Elec       q    Type
REMARK                         _______ _______ _______ _____ _____    ______ ____
ROOT
ATOM      1  C   LIG    1       -8.428   1.141   0.050  0.00  0.00    +0.460 C 
ATOM      2  O   LIG    1       -8.436   2.350   0.063  0.00  0.00    -0.480 OA
ENDROOT
BRANCH   1   3
ATOM      3  O   LIG    1       -9.586   0.463   0.049  0.00  0.00    -0.340 OA
BRANCH   3  10
ATOM      4  C   LIG    1      -11.916   0.477  -0.659  0.00  0.00    +0.000 C 
ATOM      5  C   LIG    1      -13.205   1.302  -0.643  0.00  0.00    +0.030 C 
ATOM      6  C   LIG    1      -13.626   1.562   0.804  0.00  0.00    +0.020 C 
ATOM      7  C   LIG    1      -12.519   2.331   1.528  0.00  0.00    -0.020 C 
ATOM      8  C   LIG    1      -11.231   1.506   1.512  0.00  0.00    +0.010 C 
ATOM      9  C   LIG    1      -12.941   2.591   2.975  0.00  0.00    +0.030 C 
ATOM     10  C   LIG    1      -10.809   1.246   0.064  0.00  0.00    +0.190 C 
BRANCH   4  12
ATOM     11  C   LIG    1      -12.539  -0.668  -2.791  0.00  0.00    +0.030 C 
ATOM     12  C   LIG    1      -11.495   0.217  -2.107  0.00  0.00    -0.020 C 
ATOM     13  C   LIG    1      -11.387   1.548  -2.853  0.00  0.00    +0.010 C 
ENDBRANCH   4  12
ENDBRANCH   3  10
ENDBRANCH   1   3
BRANCH   1  14
ATOM     14  C   LIG    1       -7.119   0.396   0.035  0.00  0.00    +0.320 C 
BRANCH  14  15
ATOM     15  O   LIG    1       -6.021   1.347   0.039  0.00  0.00    -0.330 OA
BRANCH  15  16
ATOM     16  C   LIG    1       -4.777   0.842   0.027  0.00  0.00    +0.470 C 
ATOM     17  O   LIG    1       -4.612  -0.355   0.013  0.00  0.00    -0.470 OA
BRANCH  16  18
ATOM     18  C   LIG    1       -3.588   1.767   0.030  0.00  0.00    +0.300 C 
BRANCH  18  19
ATOM     19  O   LIG    1       -2.385   0.997   0.015  0.00  0.00    -0.290 OA
BRANCH  19  20
ATOM     20  C   LIG    1       -1.212   1.683   0.016  0.00  0.00    +0.160 A 
ATOM     21  C   LIG    1       -1.220   3.071   0.036  0.00  0.00    -0.080 A 
ATOM     22  C   LIG    1       -0.027   3.768   0.031  0.00  0.00    +0.090 A 
ATOM     23  C   LIG    1        1.175   3.085   0.012  0.00  0.00    -0.050 A 
ATOM     24  C   LIG    1        1.186   1.700  -0.003  0.00  0.00    +0.140 A 
ATOM     25  F   LIG    1        2.362   1.035  -0.022  0.00  0.00    -0.130 F 
ATOM     26  C   LIG    1       -0.006   0.998   0.002  0.00  0.00    -0.030 A 
ENDBRANCH  19  20
ENDBRANCH  18  19
ENDBRANCH  16  18
ENDBRANCH  15  16
ENDBRANCH  14  15
ENDBRANCH   1  14
TORSDOF 9
