REMARK  Name = ZINCqH0000050Qoc.0
REMARK                            x       y       z     vdW  Elec       q    Type
REMARK                         _______ _______ _______ _____ _____    ______ ____
ROOT
ATOM      1  O   LIG    1        7.141   0.031  -0.257  0.00  0.00    -0.320 OA
ENDROOT
BRANCH   1   2
ATOM      2  C   LIG    1        8.299  -0.437   0.248  0.00  0.00    +0.560 C 
ATOM      3  O   LIG    1        8.364  -1.578   0.664  0.00  0.00    -0.480 OA
BRANCH   2  10
ATOM      4  C   LIG    1        9.096   1.483   2.646  0.00  0.00    +0.180 C 
ATOM      5  C   LIG    1        9.853   1.292   1.358  0.00  0.00    +0.130 A 
ATOM      6  N   LIG    1       10.965   1.888   1.027  0.00  0.00    -0.260 NA
ATOM      7  N   LIG    1       11.353   1.455  -0.246  0.00  0.00    -0.340 N 
ATOM      8  C   LIG    1       10.448   0.566  -0.688  0.00  0.00    +0.170 A 
ATOM      9 CL   LIG    1       10.479  -0.261  -2.214  0.00  0.00    +0.020 Cl
ATOM     10  C   LIG    1        9.486   0.432   0.297  0.00  0.00    -0.250 A 
BRANCH   7  11
ATOM     11  C   LIG    1       12.545   1.896  -0.974  0.00  0.00    +0.330 C 
BRANCH  11  12
ATOM     12  C   LIG    1       12.200   3.120  -1.823  0.00  0.00    -0.030 C 
ATOM     13  C   LIG    1       13.409   3.506  -2.678  0.00  0.00    +0.040 C 
ATOM     14  C   LIG    1       11.829   4.289  -0.907  0.00  0.00    +0.030 C 
ENDBRANCH  11  12
ENDBRANCH   7  11
ENDBRANCH   2  10
ENDBRANCH   1   2
BRANCH   1  15
ATOM     15  C   LIG    1        6.012  -0.882  -0.274  0.00  0.00    +0.190 C 
ATOM     16  C   LIG    1        6.004  -1.659  -1.592  0.00  0.00    +0.070 C 
BRANCH  15  17
ATOM     17  C   LIG    1        4.731  -0.099  -0.145  0.00  0.00    +0.520 C 
ATOM     18  N   LIG    1        3.554  -0.747  -0.035  0.00  0.00    -0.660 N 
ATOM     19  H   LIG    1        3.537  -1.713   0.042  0.00  0.00    +0.420 HD
ATOM     20  O   LIG    1        4.759   1.113  -0.139  0.00  0.00    -0.490 OA
BRANCH  18  21
ATOM     21  C   LIG    1        2.355  -0.023  -0.033  0.00  0.00    +0.120 A 
ATOM     22  C   LIG    1        2.286   1.232  -0.630  0.00  0.00    +0.090 A 
ATOM     23  C   LIG    1        1.077   1.909  -0.601  0.00  0.00    +0.010 A 
ATOM     24  C   LIG    1       -0.012   1.322   0.013  0.00  0.00    +0.270 A 
ATOM     25  N   LIG    1        0.085   0.130   0.571  0.00  0.00    -0.450 NA
ATOM     26  C   LIG    1        1.216  -0.549   0.567  0.00  0.00    +0.140 A 
ATOM     27 CL   LIG    1        1.282  -2.113   1.317  0.00  0.00    -0.030 Cl
ENDBRANCH  18  21
ENDBRANCH  15  17
ENDBRANCH   1  15
TORSDOF 7
