REMARK  Name = ZINCrH000004tMmv.0
REMARK                            x       y       z     vdW  Elec       q    Type
REMARK                         _______ _______ _______ _____ _____    ______ ____
ROOT
ATOM      1  N   LIG    1        6.607   4.758   3.530  0.00  0.00    -0.520 NA
ATOM      2  C   LIG    1        7.287   3.656   2.834  0.00  0.00    +0.200 C 
ATOM      3  C   LIG    1        6.816   3.608   1.379  0.00  0.00    +0.200 C 
ATOM      4  N   LIG    1        5.357   3.428   1.344  0.00  0.00    -0.540 NA
ATOM      5  C   LIG    1        4.678   4.529   2.040  0.00  0.00    +0.190 C 
ATOM      6  C   LIG    1        5.149   4.578   3.495  0.00  0.00    +0.190 C 
ENDROOT
BRANCH   1   7
ATOM      7  C   LIG    1        7.090   4.885   4.911  0.00  0.00    +0.220 C 
BRANCH   7   9
ATOM      8  O   LIG    1        5.851   6.893   4.855  0.00  0.00    -0.490 OA
ATOM      9  C   LIG    1        6.560   6.162   5.513  0.00  0.00    +0.520 C 
ATOM     10  N   LIG    1        6.875   6.490   6.781  0.00  0.00    -0.670 N 
ATOM     11  H   LIG    1        7.375   5.869   7.333  0.00  0.00    +0.410 HD
BRANCH  10  12
ATOM     12  C   LIG    1        6.481   7.728   7.302  0.00  0.00    +0.160 A 
ATOM     13  C   LIG    1        6.245   8.798   6.449  0.00  0.00    +0.040 A 
ATOM     14  C   LIG    1        5.856  10.019   6.966  0.00  0.00    +0.040 A 
ATOM     15  C   LIG    1        5.701  10.176   8.331  0.00  0.00    +0.000 A 
ATOM     16  C   LIG    1        5.935   9.113   9.184  0.00  0.00    +0.050 A 
ATOM     17  C   LIG    1        6.318   7.887   8.673  0.00  0.00    -0.070 A 
ATOM     18 CL   LIG    1        6.604   6.550   9.743  0.00  0.00    -0.070 Cl
ENDBRANCH  10  12
ENDBRANCH   7   9
ENDBRANCH   1   7
BRANCH   4  19
ATOM     19  C   LIG    1        4.875   3.300  -0.037  0.00  0.00    +0.300 C 
BRANCH  19  20
ATOM     20  C   LIG    1        3.429   2.876  -0.027  0.00  0.00    +0.100 A 
ATOM     21  N   LIG    1        2.441   3.687  -0.012  0.00  0.00    -0.460 NA
ATOM     22  C   LIG    1        1.199   3.166  -0.005  0.00  0.00    +0.080 A 
ATOM     23  C   LIG    1       -0.051   3.818   0.011  0.00  0.00    +0.070 A 
ATOM     24  C   LIG    1       -1.206   3.095   0.015  0.00  0.00    +0.030 A 
ATOM     25  C   LIG    1       -1.175   1.708  -0.001  0.00  0.00    +0.040 A 
ATOM     26  C   LIG    1        0.031   1.045  -0.011  0.00  0.00    +0.060 A 
ATOM     27  C   LIG    1        1.222   1.767  -0.016  0.00  0.00    -0.190 A 
ATOM     28  S   LIG    1        2.906   1.251  -0.035  0.00  0.00    +0.120 S 
ENDBRANCH  19  20
ENDBRANCH   4  19
TORSDOF 5
