REMARK  Name = ZINCAx0000000aH9.0
REMARK                            x       y       z     vdW  Elec       q    Type
REMARK                         _______ _______ _______ _____ _____    ______ ____
ROOT
ATOM      1  C   LIG    1       -0.673   0.022  -0.118  0.00  0.00    +0.100 A 
ATOM      2  C   LIG    1        0.651   0.707  -0.014  0.00  0.00    +0.150 A 
ATOM      3  N   LIG    1        1.416  -0.116   0.790  0.00  0.00    -0.280 N 
ATOM      4  C   LIG    1        2.702  -0.031   1.251  0.00  0.00    -0.030 A 
ATOM      5  C   LIG    1        3.203  -1.040   2.063  0.00  0.00    +0.360 A 
ATOM      6  N   LIG    1        2.444  -2.075   2.390  0.00  0.00    -0.480 NA
ATOM      7  C   LIG    1        1.204  -2.181   1.960  0.00  0.00    +0.440 A 
ATOM      8  C   LIG    1        0.646  -1.190   1.136  0.00  0.00    +0.120 A 
ATOM      9  N   LIG    1       -0.578  -1.083   0.584  0.00  0.00    -0.410 NA
ENDROOT
BRANCH   1  12
ATOM     10  C   LIG    1       -3.208   0.485  -2.859  0.00  0.00    -0.130 A 
ATOM     11  C   LIG    1       -2.090   0.033  -2.164  0.00  0.00    +0.190 A 
ATOM     12  C   LIG    1       -1.851   0.493  -0.862  0.00  0.00    -0.010 A 
ATOM     13  C   LIG    1       -2.744   1.399  -0.269  0.00  0.00    +0.220 A 
ATOM     14  C   LIG    1       -3.844   1.845  -0.970  0.00  0.00    -0.030 A 
ATOM     15  C   LIG    1       -4.084   1.394  -2.255  0.00  0.00    +0.190 A 
BRANCH  14  16
ATOM     16  N   LIG    1       -4.777   2.806  -0.340  0.00  0.00    -0.020 N 
ATOM     17  O   LIG    1       -4.501   3.314   0.843  0.00  0.00    -0.170 OA
ATOM     18  O   LIG    1       -5.884   3.154  -0.964  0.00  0.00    -0.150 OA
ENDBRANCH  14  16
BRANCH  10  19
ATOM     19  C   LIG    1       -3.468   0.007  -4.232  0.00  0.00    +0.510 C 
ATOM     20  O   LIG    1       -2.707  -0.781  -4.756  0.00  0.00    -0.490 OA
BRANCH  19  22
ATOM     21  C   LIG    1       -4.744  -0.067  -6.249  0.00  0.00    +0.290 C 
ATOM     22  O   LIG    1       -4.551   0.445  -4.904  0.00  0.00    -0.350 OA
ENDBRANCH  19  22
ENDBRANCH  10  19
ENDBRANCH   1  12
BRANCH   4  23
ATOM     23  C   LIG    1        3.552   1.127   0.887  0.00  0.00    +0.510 C 
ATOM     24  O   LIG    1        4.531   1.395   1.553  0.00  0.00    -0.490 OA
BRANCH  23  25
ATOM     25  O   LIG    1        3.238   1.882  -0.184  0.00  0.00    -0.300 OA
ATOM     26  C   LIG    1        4.207   2.885  -0.589  0.00  0.00    +0.270 C 
ENDBRANCH  23  25
ENDBRANCH   4  23
BRANCH   2  27
ATOM     27  N   LIG    1        1.012   1.856  -0.568  0.00  0.00    -0.560 N 
ATOM     28  H   LIG    1        0.777   1.874  -1.549  0.00  0.00    +0.380 HD
BRANCH  27  29
ATOM     29  C   LIG    1        0.409   2.994   0.139  0.00  0.00    +0.130 C 
ATOM     30  C   LIG    1        1.492   4.025   0.499  0.00  0.00    +0.060 C 
ATOM     31  C   LIG    1        1.494   4.143   2.037  0.00  0.00    +0.020 C 
ATOM     32  C   LIG    1        0.893   2.800   2.522  0.00  0.00    +0.020 C 
ATOM     33  C   LIG    1       -0.210   2.521   1.470  0.00  0.00    +0.030 C 
BRANCH  29  34
ATOM     34  C   LIG    1       -0.649   3.635  -0.723  0.00  0.00    +0.440 C 
ATOM     35  O   LIG    1       -0.665   4.835  -0.867  0.00  0.00    -0.470 OA
BRANCH  34  36
ATOM     36  O   LIG    1       -1.573   2.874  -1.330  0.00  0.00    -0.350 OA
ATOM     37  C   LIG    1       -2.631   3.565  -2.044  0.00  0.00    +0.250 C 
ENDBRANCH  34  36
ENDBRANCH  29  34
ENDBRANCH  27  29
ENDBRANCH   2  27
TORSDOF 10
