REMARK  Name = ZINCrH000004r7GM.0
REMARK                            x       y       z     vdW  Elec       q    Type
REMARK                         _______ _______ _______ _____ _____    ______ ____
ROOT
ATOM      1  C   LIG    1       -6.238   2.026   0.028  0.00  0.00    +0.060 C 
ENDROOT
BRANCH   1   2
ATOM      2  C   LIG    1       -6.144   2.803  -1.260  0.00  0.00    -0.080 A 
ATOM      3  C   LIG    1       -6.358   2.166  -2.468  0.00  0.00    +0.030 A 
ATOM      4  C   LIG    1       -6.276   2.879  -3.649  0.00  0.00    +0.000 A 
ATOM      5  C   LIG    1       -5.972   4.228  -3.622  0.00  0.00    +0.010 A 
ATOM      6  C   LIG    1       -5.753   4.863  -2.414  0.00  0.00    -0.010 A 
ATOM      7  C   LIG    1       -5.840   4.151  -1.233  0.00  0.00    +0.050 A 
ENDBRANCH   1   2
BRANCH   1  10
ATOM      8  N   LIG    1       -8.637   2.223   0.600  0.00  0.00    -0.660 N 
ATOM      9  H   LIG    1       -8.461   3.129   0.899  0.00  0.00    +0.410 HD
ATOM     10  C   LIG    1       -7.623   1.448   0.167  0.00  0.00    +0.540 C 
ATOM     11  O   LIG    1       -7.826   0.285  -0.112  0.00  0.00    -0.500 OA
BRANCH   8  17
ATOM     12  C   LIG    1      -11.986  -0.928  -1.139  0.00  0.00    +0.090 C 
ATOM     13  C   LIG    1      -11.594   0.194  -0.213  0.00  0.00    -0.070 A 
ATOM     14  C   LIG    1      -12.525   0.730   0.656  0.00  0.00    -0.010 A 
ATOM     15  C   LIG    1      -12.170   1.760   1.507  0.00  0.00    +0.030 A 
ATOM     16  C   LIG    1      -10.882   2.258   1.491  0.00  0.00    -0.120 A 
ATOM     17  C   LIG    1       -9.943   1.722   0.619  0.00  0.00    +0.150 A 
ATOM     18  C   LIG    1      -10.495   3.381   2.418  0.00  0.00    +0.080 C 
ATOM     19  C   LIG    1      -10.305   0.691  -0.238  0.00  0.00    +0.020 A 
ENDBRANCH   8  17
ENDBRANCH   1  10
BRANCH   1  20
ATOM     20  S   LIG    1       -5.024   0.684   0.013  0.00  0.00    +0.090 S 
BRANCH  20  21
ATOM     21  C   LIG    1       -3.532   1.622  -0.002  0.00  0.00    +0.370 A 
ATOM     22  N   LIG    1       -2.370   0.986  -0.015  0.00  0.00    -0.590 NA
ATOM     23  C   LIG    1       -1.223   1.661  -0.027  0.00  0.00    +0.480 A 
ATOM     24  C   LIG    1       -1.256   3.053  -0.019  0.00  0.00    -0.240 A 
ATOM     25  C   LIG    1       -2.496   3.686  -0.010  0.00  0.00    +0.480 A 
ATOM     26  N   LIG    1       -3.602   2.945   0.001  0.00  0.00    -0.610 NA
BRANCH  25  27
ATOM     27  N   LIG    1       -2.578   5.070  -0.007  0.00  0.00    -0.840 N 
ATOM     28  H   LIG    1       -1.768   5.603  -0.015  0.00  0.00    +0.410 HD
ATOM     29  H   LIG    1       -3.445   5.504   0.004  0.00  0.00    +0.400 HD
ENDBRANCH  25  27
BRANCH  23  30
ATOM     30  N   LIG    1       -0.011   0.988  -0.041  0.00  0.00    -0.840 N 
ATOM     31  H   LIG    1        0.821   1.487  -0.054  0.00  0.00    +0.410 HD
ATOM     32  H   LIG    1        0.005   0.018  -0.042  0.00  0.00    +0.410 HD
ENDBRANCH  23  30
ENDBRANCH  20  21
ENDBRANCH   1  20
TORSDOF 7
