REMARK  Name = ZINCqH0000051Fgr.0
REMARK                            x       y       z     vdW  Elec       q    Type
REMARK                         _______ _______ _______ _____ _____    ______ ____
ROOT
ATOM      1  N   LIG    1        2.415   5.041  -1.775  0.00  0.00    -0.750 N 
ATOM      2  H   LIG    1        1.875   4.396  -2.259  0.00  0.00    +0.400 HD
ENDROOT
BRANCH   1   8
ATOM      3  C   LIG    1        1.471   4.282   0.313  0.00  0.00    -0.150 A 
ATOM      4  C   LIG    1        1.341   4.408   1.682  0.00  0.00    +0.050 A 
ATOM      5  C   LIG    1        2.026   5.403   2.355  0.00  0.00    -0.050 A 
ATOM      6  C   LIG    1        2.837   6.280   1.659  0.00  0.00    +0.050 A 
ATOM      7  C   LIG    1        2.969   6.163   0.289  0.00  0.00    -0.070 A 
ATOM      8  C   LIG    1        2.285   5.162  -0.390  0.00  0.00    +0.230 A 
BRANCH   3  12
ATOM      9  O   LIG    1       -2.241   1.250   0.006  0.00  0.00    -0.530 OA
ATOM     10  C   LIG    1       -1.113   1.694   0.010  0.00  0.00    +0.520 C 
ATOM     11  C   LIG    1       -0.762   3.166  -0.004  0.00  0.00    +0.060 C 
ATOM     12  C   LIG    1        0.728   3.195  -0.419  0.00  0.00    +0.040 C 
ATOM     13  C   LIG    1        1.207   1.797   0.031  0.00  0.00    +0.270 C 
ATOM     14  N   LIG    1        0.007   0.952   0.030  0.00  0.00    -0.730 N 
ATOM     15  H   LIG    1        0.021  -0.018   0.038  0.00  0.00    +0.410 HD
ENDBRANCH   3  12
ENDBRANCH   1   8
BRANCH   1  16
ATOM     16  C   LIG    1        3.368   5.887  -2.498  0.00  0.00    +0.330 C 
BRANCH  16  17
ATOM     17  C   LIG    1        3.314   5.561  -3.969  0.00  0.00    -0.090 A 
ATOM     18  C   LIG    1        2.437   6.241  -4.793  0.00  0.00    +0.070 A 
ATOM     19  C   LIG    1        2.382   5.946  -6.145  0.00  0.00    -0.040 A 
ATOM     20  C   LIG    1        3.209   4.966  -6.668  0.00  0.00    +0.080 A 
ATOM     21  O   LIG    1        3.165   4.665  -7.999  0.00  0.00    -0.310 OA
ATOM     22  C   LIG    1        4.322   5.021  -8.759  0.00  0.00    +0.230 C 
ATOM     23  C   LIG    1        5.385   3.938  -8.663  0.00  0.00    +0.000 C 
ATOM     24  C   LIG    1        5.924   3.780  -7.250  0.00  0.00    +0.230 C 
ATOM     25  O   LIG    1        4.900   3.321  -6.365  0.00  0.00    -0.310 OA
ATOM     26  C   LIG    1        4.089   4.284  -5.840  0.00  0.00    +0.080 A 
ATOM     27 CL   LIG    1        1.281   6.801  -7.179  0.00  0.00    -0.040 Cl
ATOM     28  C   LIG    1        4.146   4.585  -4.490  0.00  0.00    +0.050 A 
ENDBRANCH  16  17
ENDBRANCH   1  16
TORSDOF 4
