REMARK  Name = ZINCpe00000MJKaH.0
REMARK                            x       y       z     vdW  Elec       q    Type
REMARK                         _______ _______ _______ _____ _____    ______ ____
ROOT
ATOM      1  C   LIG    1        4.695  -2.102  -2.162  0.00  0.00    -0.140 A 
ATOM      2  C   LIG    1        5.262  -0.932  -1.863  0.00  0.00    -0.010 A 
ATOM      3  C   LIG    1        4.893  -0.402  -0.639  0.00  0.00    +0.170 A 
ATOM      4  C   LIG    1        4.026  -1.140   0.055  0.00  0.00    -0.800 A 
ATOM      5  S   LIG    1        3.635  -2.597  -0.849  0.00  0.00    +0.230 S 
ENDROOT
BRANCH   4   6
ATOM      6  S   LIG    1        3.378  -0.723   1.640  0.00  0.00    +2.710 S 
ATOM      7  O   LIG    1        2.975  -1.945   2.243  0.00  0.00    -0.940 OA
ATOM      8  O   LIG    1        4.313   0.165   2.235  0.00  0.00    -0.940 OA
BRANCH   6   9
ATOM      9  N   LIG    1        1.995   0.153   1.389  0.00  0.00    -0.990 NA
ATOM     10  C   LIG    1        2.036   1.619   1.271  0.00  0.00    +0.270 C 
ATOM     11  C   LIG    1        1.280   2.025   0.001  0.00  0.00    +0.220 C 
ATOM     12  O   LIG    1       -0.017   1.423   0.010  0.00  0.00    -0.370 OA
ATOM     13  C   LIG    1        0.002  -0.004   0.002  0.00  0.00    +0.150 C 
ATOM     14  C   LIG    1       -1.426  -0.545  -0.067  0.00  0.00    +0.030 C 
ATOM     15  C   LIG    1       -2.183  -0.149   1.203  0.00  0.00    +0.220 C 
ATOM     16  O   LIG    1       -1.483  -0.652   2.344  0.00  0.00    -0.370 OA
ATOM     17  C   LIG    1       -0.164  -0.126   2.493  0.00  0.00    +0.220 C 
ATOM     18  C   LIG    1        0.684  -0.511   1.278  0.00  0.00    +0.210 C 
ENDBRANCH   6   9
ENDBRANCH   4   6
BRANCH   1  19
ATOM     19  C   LIG    1        4.931  -2.884  -3.429  0.00  0.00    +0.120 C 
BRANCH  19  20
ATOM     20  C   LIG    1        6.108  -3.841  -3.226  0.00  0.00    +0.300 C 
BRANCH  20  22
ATOM     21  C   LIG    1        7.330  -5.511  -4.512  0.00  0.00    +0.650 C 
ATOM     22  N   LIG    1        6.338  -4.601  -4.457  0.00  0.00    -0.710 N 
ATOM     23  H   LIG    1        5.776  -4.449  -5.233  0.00  0.00    +0.410 HD
ATOM     24  O   LIG    1        8.034  -5.701  -3.540  0.00  0.00    -0.570 OA
BRANCH  21  26
ATOM     25  C   LIG    1        8.628  -7.172  -5.631  0.00  0.00    +0.300 C 
ATOM     26  O   LIG    1        7.542  -6.209  -5.644  0.00  0.00    -0.370 OA
ENDBRANCH  21  26
ENDBRANCH  20  22
ENDBRANCH  19  20
ENDBRANCH   1  19
TORSDOF 6
