REMARK  Name = ZINCtV000002D3Ft.0
REMARK                            x       y       z     vdW  Elec       q    Type
REMARK                         _______ _______ _______ _____ _____    ______ ____
ROOT
ATOM      1  C   LIG    1        1.808   3.692  -1.498  0.00  0.00    +0.070 C 
ENDROOT
BRANCH   1   3
ATOM      2  N   LIG    1        2.457   5.804  -2.609  0.00  0.00    -0.610 N 
ATOM      3  C   LIG    1        2.247   5.133  -1.459  0.00  0.00    +0.520 C 
ATOM      4  O   LIG    1        2.411   5.688  -0.394  0.00  0.00    -0.530 OA
ATOM      5  C   LIG    1        2.259   5.133  -3.896  0.00  0.00    +0.280 C 
BRANCH   2   7
ATOM      6  C   LIG    1        4.159   7.372  -3.401  0.00  0.00    +0.050 C 
ATOM      7  C   LIG    1        2.884   7.205  -2.572  0.00  0.00    +0.300 C 
BRANCH   7   8
ATOM      8  C   LIG    1        1.796   8.077  -3.142  0.00  0.00    -0.080 A 
ATOM      9  C   LIG    1        1.300   7.824  -4.407  0.00  0.00    +0.040 A 
ATOM     10  C   LIG    1        0.298   8.620  -4.930  0.00  0.00    +0.030 A 
ATOM     11  C   LIG    1       -0.203   9.677  -4.191  0.00  0.00    +0.070 A 
ATOM     12  C   LIG    1        0.298   9.934  -2.924  0.00  0.00    +0.070 A 
ATOM     13  F   LIG    1       -0.189  10.966  -2.200  0.00  0.00    -0.130 F 
ATOM     14  F   LIG    1       -1.179  10.458  -4.703  0.00  0.00    -0.130 F 
ATOM     15  C   LIG    1        1.298   9.133  -2.401  0.00  0.00    +0.040 A 
ENDBRANCH   7   8
ENDBRANCH   2   7
ENDBRANCH   1   3
BRANCH   1  16
ATOM     16  C   LIG    1        1.642   3.171  -0.069  0.00  0.00    +0.210 C 
BRANCH  16  17
ATOM     17  C   LIG    1        1.202   1.730  -0.107  0.00  0.00    +0.200 A 
ATOM     18  N   LIG    1        1.997   0.697  -0.121  0.00  0.00    -0.470 NA
ATOM     19  C   LIG    1        1.256  -0.421  -0.156  0.00  0.00    +0.190 A 
ATOM     20  C   LIG    1       -0.049  -0.046  -0.163  0.00  0.00    -0.020 A 
ATOM     21  O   LIG    1       -0.068   1.304  -0.132  0.00  0.00    -0.180 OA
BRANCH  20  22
ATOM     22  C   LIG    1       -1.223  -0.944  -0.197  0.00  0.00    -0.010 A 
ATOM     23  C   LIG    1       -1.298  -1.964  -1.146  0.00  0.00    +0.080 A 
ATOM     24  C   LIG    1       -2.396  -2.799  -1.173  0.00  0.00    +0.050 A 
ATOM     25  C   LIG    1       -3.423  -2.626  -0.261  0.00  0.00    -0.010 A 
ATOM     26  C   LIG    1       -3.356  -1.616   0.684  0.00  0.00    +0.050 A 
ATOM     27 CL   LIG    1       -4.801  -3.681  -0.301  0.00  0.00    -0.050 Cl
ATOM     28  C   LIG    1       -2.260  -0.777   0.724  0.00  0.00    -0.010 A 
ATOM     29 CL   LIG    1       -2.174   0.484   1.913  0.00  0.00    -0.040 Cl
ENDBRANCH  20  22
ENDBRANCH  16  17
ENDBRANCH   1  16
TORSDOF 6
