REMARK  Name = ZINCpk000000mYFv.0
REMARK                            x       y       z     vdW  Elec       q    Type
REMARK                         _______ _______ _______ _____ _____    ______ ____
ROOT
ATOM      1  C   LIG    1       -4.330   2.653   4.488  0.00  0.00    +0.560 C 
ATOM      2  N   LIG    1       -3.786   2.393   3.282  0.00  0.00    -0.610 N 
ATOM      3  C   LIG    1       -4.114   3.221   2.112  0.00  0.00    +0.280 C 
ATOM      4  C   LIG    1       -4.540   2.298   0.966  0.00  0.00    +0.170 C 
ATOM      5  N   LIG    1       -3.497   1.288   0.740  0.00  0.00    -0.530 NA
ATOM      6  C   LIG    1       -3.327   0.426   1.917  0.00  0.00    +0.170 C 
ATOM      7  C   LIG    1       -2.850   1.273   3.102  0.00  0.00    +0.300 C 
ATOM      8  O   LIG    1       -4.107   1.915   5.427  0.00  0.00    -0.520 OA
ENDROOT
BRANCH   1  13
ATOM      9  C   LIG    1       -5.755   6.114   4.131  0.00  0.00    +0.130 A 
ATOM     10  C   LIG    1       -6.830   6.054   5.010  0.00  0.00    +0.080 A 
ATOM     11  C   LIG    1       -7.089   4.894   5.715  0.00  0.00    +0.010 A 
ATOM     12  C   LIG    1       -6.280   3.784   5.550  0.00  0.00    +0.140 A 
ATOM     13  C   LIG    1       -5.197   3.836   4.667  0.00  0.00    -0.150 A 
ATOM     14  F   LIG    1       -6.536   2.652   6.242  0.00  0.00    -0.120 F 
ATOM     15  C   LIG    1       -4.935   5.010   3.960  0.00  0.00    +0.060 A 
BRANCH   9  18
ATOM     16  C   LIG    1       -5.351   9.757   3.272  0.00  0.00    +0.110 C 
ATOM     17  C   LIG    1       -5.725   8.490   3.996  0.00  0.00    +0.510 C 
ATOM     18  N   LIG    1       -5.498   7.293   3.420  0.00  0.00    -0.670 N 
ATOM     19  H   LIG    1       -5.156   7.248   2.513  0.00  0.00    +0.410 HD
ATOM     20  O   LIG    1       -6.231   8.547   5.097  0.00  0.00    -0.520 OA
ENDBRANCH   9  18
ENDBRANCH   1  13
BRANCH   5  21
ATOM     21  C   LIG    1       -3.787   0.491  -0.459  0.00  0.00    +0.250 C 
BRANCH  21  22
ATOM     22  C   LIG    1       -2.590  -0.359  -0.798  0.00  0.00    -0.240 A 
ATOM     23  C   LIG    1       -1.567  -0.006  -1.611  0.00  0.00    +0.260 A 
ATOM     24  N   LIG    1       -0.703  -1.041  -1.659  0.00  0.00    -0.480 N 
ATOM     25  H   LIG    1        0.124  -1.071  -2.165  0.00  0.00    +0.440 HD
ATOM     26  N   LIG    1       -1.211  -2.065  -0.849  0.00  0.00    -0.290 NA
ATOM     27  C   LIG    1       -2.342  -1.655  -0.333  0.00  0.00    +0.240 A 
ENDBRANCH  21  22
ENDBRANCH   5  21
TORSDOF 4
