REMARK  Name = ZINCrD000000AyCi.0
REMARK                            x       y       z     vdW  Elec       q    Type
REMARK                         _______ _______ _______ _____ _____    ______ ____
ROOT
ATOM      1  C   LIG    1        1.158  -2.322  -4.221  0.00  0.00    +0.130 A 
ATOM      2  C   LIG    1        1.541  -1.167  -4.889  0.00  0.00    +0.070 A 
ATOM      3  C   LIG    1        1.188   0.070  -4.386  0.00  0.00    +0.040 A 
ATOM      4  C   LIG    1        0.447   0.158  -3.221  0.00  0.00    +0.040 A 
ATOM      5  C   LIG    1        0.068  -0.992  -2.550  0.00  0.00    -0.660 A 
ATOM      6 CL   LIG    1       -0.003   1.714  -2.595  0.00  0.00    -0.040 Cl
ATOM      7  C   LIG    1        0.419  -2.231  -3.049  0.00  0.00    +0.160 A 
ENDROOT
BRANCH   1  10
ATOM      8  O   LIG    1       -0.358  -4.495  -3.973  0.00  0.00    -0.500 OA
ATOM      9  C   LIG    1        0.672  -4.620  -4.601  0.00  0.00    +0.510 C 
ATOM     10  N   LIG    1        1.515  -3.577  -4.728  0.00  0.00    -0.680 N 
ATOM     11  H   LIG    1        2.370  -3.695  -5.171  0.00  0.00    +0.420 HD
BRANCH   9  12
ATOM     12  C   LIG    1        1.010  -5.944  -5.237  0.00  0.00    +0.120 C 
BRANCH  12  13
ATOM     13  C   LIG    1       -0.088  -6.935  -4.948  0.00  0.00    -0.060 A 
ATOM     14  C   LIG    1       -0.021  -7.730  -3.819  0.00  0.00    +0.030 A 
ATOM     15  C   LIG    1       -1.030  -8.635  -3.550  0.00  0.00    +0.050 A 
ATOM     16  C   LIG    1       -2.102  -8.754  -4.417  0.00  0.00    -0.090 A 
ATOM     17  C   LIG    1       -2.165  -7.962  -5.549  0.00  0.00    +0.040 A 
ATOM     18 BR   LIG    1       -3.479  -9.998  -4.054  0.00  0.00    -0.050 Br
ATOM     19  C   LIG    1       -1.158  -7.053  -5.815  0.00  0.00    +0.030 A 
ENDBRANCH  12  13
ENDBRANCH   9  12
ENDBRANCH   1  10
BRANCH   5  20
ATOM     20  S   LIG    1       -0.870  -0.875  -1.063  0.00  0.00    +2.690 S 
ATOM     21  O   LIG    1       -1.906   0.065  -1.315  0.00  0.00    -0.930 OA
ATOM     22  O   LIG    1       -1.117  -2.208  -0.638  0.00  0.00    -0.940 OA
BRANCH  20  23
ATOM     23  N   LIG    1        0.111  -0.192   0.083  0.00  0.00    -1.000 NA
ATOM     24  C   LIG    1        0.045   1.248   0.377  0.00  0.00    +0.270 C 
ATOM     25  C   LIG    1        1.466   1.818   0.325  0.00  0.00    +0.220 C 
ATOM     26  O   LIG    1        2.318   1.037   1.166  0.00  0.00    -0.370 OA
ATOM     27  C   LIG    1        2.447  -0.328   0.762  0.00  0.00    +0.210 C 
ATOM     28  C   LIG    1        1.076  -1.008   0.837  0.00  0.00    +0.280 C 
ENDBRANCH  20  23
ENDBRANCH   5  20
TORSDOF 5
