REMARK  Name = ZINCpe00000KeavD.0
REMARK                            x       y       z     vdW  Elec       q    Type
REMARK                         _______ _______ _______ _____ _____    ______ ____
ROOT
ATOM      1  N   LIG    1       -3.846   1.106   3.384  0.00  0.00    -0.320 N 
ATOM      2  C   LIG    1       -3.722   1.690   2.158  0.00  0.00    +0.290 A 
ATOM      3  C   LIG    1       -2.881   0.915   1.441  0.00  0.00    -0.080 A 
ATOM      4  N   LIG    1       -2.486  -0.112   2.196  0.00  0.00    -0.190 NA
ATOM      5  N   LIG    1       -3.035  -0.039   3.358  0.00  0.00    -0.010 NA
ENDROOT
BRANCH   1  10
ATOM      6  C   LIG    1       -5.351   1.277   6.619  0.00  0.00    +0.390 A 
ATOM      7  C   LIG    1       -6.111   2.439   6.500  0.00  0.00    -0.080 A 
ATOM      8  C   LIG    1       -6.079   3.128   5.301  0.00  0.00    +0.400 A 
ATOM      9  N   LIG    1       -5.328   2.669   4.312  0.00  0.00    -0.550 NA
ATOM     10  C   LIG    1       -4.621   1.560   4.453  0.00  0.00    +0.590 A 
ATOM     11  N   LIG    1       -4.625   0.873   5.583  0.00  0.00    -0.560 NA
BRANCH   6  13
ATOM     12  C   LIG    1       -4.546  -0.609   7.815  0.00  0.00    +0.280 C 
ATOM     13  O   LIG    1       -5.352   0.570   7.775  0.00  0.00    -0.290 OA
ENDBRANCH   6  13
ENDBRANCH   1  10
BRANCH   3  14
ATOM     14  C   LIG    1       -2.452   1.173   0.020  0.00  0.00    +0.420 C 
BRANCH  14  15
ATOM     15  N   LIG    1       -1.180   1.900   0.018  0.00  0.00    -0.550 N 
ATOM     16  C   LIG    1       -1.182   3.259   0.031  0.00  0.00    +0.570 A 
ATOM     17  N   LIG    1       -0.099   3.975   0.025  0.00  0.00    -0.520 NA
ATOM     18  C   LIG    1        1.131   3.403   0.010  0.00  0.00    +0.150 A 
ATOM     19  C   LIG    1        2.296   4.172   0.002  0.00  0.00    +0.030 A 
ATOM     20  C   LIG    1        3.524   3.549  -0.013  0.00  0.00    +0.070 A 
ATOM     21  C   LIG    1        3.619   2.164  -0.022  0.00  0.00    -0.010 A 
ATOM     22  C   LIG    1        2.484   1.384  -0.015  0.00  0.00    +0.100 A 
ATOM     23  C   LIG    1        1.232   1.994   0.001  0.00  0.00    -0.190 A 
ATOM     24  C   LIG    1       -0.014   1.213   0.009  0.00  0.00    +0.550 A 
ATOM     25  O   LIG    1        0.002  -0.004   0.002  0.00  0.00    -0.490 OA
ENDBRANCH  14  15
ENDBRANCH   3  14
TORSDOF 4
