REMARK  Name = ZINCpe000027pHkB.0
REMARK                            x       y       z     vdW  Elec       q    Type
REMARK                         _______ _______ _______ _____ _____    ______ ____
ROOT
ATOM      1  N   LIG    1       -2.744  11.379  -1.884  0.00  0.00    -0.750 N 
ATOM      2  H   LIG    1       -2.998  11.007  -1.025  0.00  0.00    +0.400 HD
ATOM      3  C   LIG    1       -1.622  10.955  -2.497  0.00  0.00    +0.710 C 
ATOM      4  N   LIG    1       -0.907   9.942  -1.968  0.00  0.00    -0.630 N 
ATOM      5  C   LIG    1        0.259   9.392  -2.675  0.00  0.00    +0.310 C 
ATOM      6  C   LIG    1        0.106   7.869  -2.755  0.00  0.00    +0.170 C 
ATOM      7  N   LIG    1       -0.114   7.331  -1.406  0.00  0.00    -0.540 NA
ATOM      8  C   LIG    1       -1.365   7.838  -0.827  0.00  0.00    +0.170 C 
ATOM      9  C   LIG    1       -1.272   9.359  -0.668  0.00  0.00    +0.280 C 
ATOM     10  O   LIG    1       -1.254  11.486  -3.527  0.00  0.00    -0.580 OA
ENDROOT
BRANCH   1  11
ATOM     11  C   LIG    1       -3.581  12.403  -2.515  0.00  0.00    +0.290 C 
BRANCH  11  12
ATOM     12  C   LIG    1       -4.785  12.702  -1.619  0.00  0.00    +0.120 C 
BRANCH  12  16
ATOM     13  O   LIG    1       -8.224  14.946  -4.159  0.00  0.00    -0.550 OA
ATOM     14  C   LIG    1       -7.248  14.772  -3.451  0.00  0.00    +0.530 A 
ATOM     15  C   LIG    1       -6.723  13.523  -3.044  0.00  0.00    -0.170 A 
ATOM     16  C   LIG    1       -5.646  13.755  -2.268  0.00  0.00    +0.190 A 
ATOM     17  N   LIG    1       -5.463  15.105  -2.174  0.00  0.00    -0.490 N 
ATOM     18  H   LIG    1       -4.758  15.550  -1.678  0.00  0.00    +0.440 HD
ATOM     19  N   LIG    1       -6.470  15.735  -2.917  0.00  0.00    -0.520 N 
ATOM     20  H   LIG    1       -6.586  16.692  -3.027  0.00  0.00    +0.440 HD
ENDBRANCH  12  16
ENDBRANCH  11  12
ENDBRANCH   1  11
BRANCH   7  21
ATOM     21  C   LIG    1       -0.095   5.862  -1.415  0.00  0.00    +0.180 C 
BRANCH  21  22
ATOM     22  C   LIG    1       -0.075   5.343   0.024  0.00  0.00    +0.070 C 
BRANCH  22  23
ATOM     23  C   LIG    1       -0.056   3.836   0.014  0.00  0.00    -0.080 A 
ATOM     24  C   LIG    1        1.150   3.161  -0.001  0.00  0.00    +0.000 A 
ATOM     25  C   LIG    1        1.168   1.778  -0.009  0.00  0.00    +0.000 A 
ATOM     26  C   LIG    1       -0.020   1.072  -0.003  0.00  0.00    +0.000 A 
ATOM     27  C   LIG    1       -1.226   1.747   0.006  0.00  0.00    +0.000 A 
ATOM     28  C   LIG    1       -1.244   3.130   0.021  0.00  0.00    +0.000 A 
ENDBRANCH  22  23
ENDBRANCH  21  22
ENDBRANCH   7  21
TORSDOF 6
