REMARK  Name = ZINCpk000000nXdZ.0
REMARK                            x       y       z     vdW  Elec       q    Type
REMARK                         _______ _______ _______ _____ _____    ______ ____
ROOT
ATOM      1  N   LIG    1       -2.077  -0.481  -2.366  0.00  0.00    -1.000 NA
ATOM      2  C   LIG    1       -3.149  -1.349  -1.858  0.00  0.00    +0.290 C 
ATOM      3  C   LIG    1       -2.618  -2.135  -0.655  0.00  0.00    +0.020 C 
ATOM      4  C   LIG    1       -1.344  -2.881  -1.060  0.00  0.00    +0.010 C 
ATOM      5  C   LIG    1       -0.275  -1.872  -1.488  0.00  0.00    +0.180 C 
ATOM      6  C   LIG    1       -0.781  -1.084  -2.706  0.00  0.00    +0.310 C 
ENDROOT
BRANCH   1   7
ATOM      7  S   LIG    1       -2.328   1.144  -2.558  0.00  0.00    +2.780 S 
ATOM      8  O   LIG    1       -1.469   1.561  -3.610  0.00  0.00    -0.970 OA
ATOM      9  O   LIG    1       -3.736   1.333  -2.584  0.00  0.00    -0.960 OA
BRANCH   7  13
ATOM     10  C   LIG    1       -3.329   4.349  -0.592  0.00  0.00    +0.020 C 
ATOM     11  C   LIG    1       -2.628   3.482   0.456  0.00  0.00    +0.100 C 
ATOM     12  C   LIG    1       -2.643   2.018   0.002  0.00  0.00    +0.280 C 
ATOM     13  N   LIG    1       -1.782   1.891  -1.185  0.00  0.00    -1.010 NA
ATOM     14  C   LIG    1       -0.421   2.447  -1.115  0.00  0.00    +0.260 C 
ATOM     15  C   LIG    1       -0.514   3.890  -0.607  0.00  0.00    +0.220 C 
ATOM     16  C   LIG    1       -3.357   3.610   1.795  0.00  0.00    +0.080 C 
ATOM     17  O   LIG    1       -1.274   3.915   0.606  0.00  0.00    -0.370 OA
ENDBRANCH   7  13
ENDBRANCH   1   7
BRANCH   5  18
ATOM     18  O   LIG    1        0.924  -2.567  -1.837  0.00  0.00    -0.290 OA
BRANCH  18  19
ATOM     19  C   LIG    1        1.821  -2.785  -0.842  0.00  0.00    +0.300 A 
ATOM     20  N   LIG    1        1.563  -2.352   0.380  0.00  0.00    -0.510 NA
ATOM     21  C   LIG    1        2.405  -2.546   1.377  0.00  0.00    +0.300 A 
ATOM     22  C   LIG    1        3.602  -3.204   1.175  0.00  0.00    -0.030 A 
ATOM     23  C   LIG    1        3.915  -3.671  -0.094  0.00  0.00    +0.090 A 
ATOM     24  C   LIG    1        3.008  -3.456  -1.119  0.00  0.00    +0.030 A 
ATOM     25  F   LIG    1        3.272  -3.893  -2.370  0.00  0.00    -0.120 F 
ENDBRANCH  18  19
ENDBRANCH   5  18
TORSDOF 4
