REMARK  Name = ZINCpe00000R9Djx.0
REMARK                            x       y       z     vdW  Elec       q    Type
REMARK                         _______ _______ _______ _____ _____    ______ ____
ROOT
ATOM      1  C   LIG    1       -1.220   7.791   0.989  0.00  0.00    +0.260 C 
ATOM      2  C   LIG    1       -1.805   6.825  -0.054  0.00  0.00    +0.290 C 
ATOM      3  N   LIG    1       -0.984   5.604  -0.060  0.00  0.00    -0.610 N 
ATOM      4  C   LIG    1        0.475   5.752  -0.184  0.00  0.00    +0.270 C 
ATOM      5  C   LIG    1        0.949   6.770   0.860  0.00  0.00    +0.230 C 
ATOM      6  C   LIG    1       -1.552   4.386   0.041  0.00  0.00    +0.610 C 
ATOM      7  O   LIG    1       -0.853   3.396   0.155  0.00  0.00    -0.510 OA
ATOM      8  O   LIG    1        0.176   7.966   0.735  0.00  0.00    -0.360 OA
ENDROOT
BRANCH   1  12
ATOM      9  C   LIG    1       -3.025  10.924   1.357  0.00  0.00    +0.190 A 
ATOM     10  N   LIG    1       -2.700  10.923   0.093  0.00  0.00    -0.280 NA
ATOM     11  N   LIG    1       -2.044   9.852  -0.185  0.00  0.00    -0.250 NA
ATOM     12  C   LIG    1       -1.920   9.122   0.890  0.00  0.00    +0.170 A 
ATOM     13  N   LIG    1       -2.544   9.778   1.898  0.00  0.00    -0.570 N 
ATOM     14  H   LIG    1       -2.627   9.488   2.820  0.00  0.00    +0.430 HD
BRANCH   9  16
ATOM     15  C   LIG    1       -3.103  13.346   1.881  0.00  0.00    +0.050 C 
ATOM     16  C   LIG    1       -3.797  11.997   2.080  0.00  0.00    +0.140 C 
ENDBRANCH   9  16
ENDBRANCH   1  12
BRANCH   6  17
ATOM     17  C   LIG    1       -3.012   4.253   0.011  0.00  0.00    -0.070 A 
ATOM     18  C   LIG    1       -3.718   3.107   0.242  0.00  0.00    +0.060 A 
ATOM     19  C   LIG    1       -5.076   3.437   0.108  0.00  0.00    -0.030 A 
ATOM     20  C   LIG    1       -5.139   4.754  -0.186  0.00  0.00    -0.010 A 
ATOM     21  O   LIG    1       -3.893   5.242  -0.244  0.00  0.00    -0.150 OA
BRANCH  20  22
ATOM     22  C   LIG    1       -6.402   5.543  -0.412  0.00  0.00    +0.400 C 
BRANCH  22  23
ATOM     23  N   LIG    1       -6.867   6.097   0.862  0.00  0.00    -0.730 N 
ATOM     24  H   LIG    1       -6.368   5.926   1.676  0.00  0.00    +0.400 HD
ATOM     25  C   LIG    1       -7.988   6.845   0.903  0.00  0.00    +0.510 C 
ATOM     26  O   LIG    1       -8.612   7.058  -0.115  0.00  0.00    -0.540 OA
ATOM     27  C   LIG    1       -8.466   7.415   2.213  0.00  0.00    +0.110 C 
ENDBRANCH  22  23
ENDBRANCH  20  22
ENDBRANCH   6  17
TORSDOF 5
