REMARK  Name = ZINCpe00000R9Djx.1
REMARK                            x       y       z     vdW  Elec       q    Type
REMARK                         _______ _______ _______ _____ _____    ______ ____
ROOT
ATOM      1  C   LIG    1        1.012   7.832  -0.899  0.00  0.00    +0.270 C 
ATOM      2  C   LIG    1        1.623   6.871   0.133  0.00  0.00    +0.290 C 
ATOM      3  N   LIG    1        0.836   5.628   0.125  0.00  0.00    -0.610 N 
ATOM      4  C   LIG    1       -0.627   5.735   0.251  0.00  0.00    +0.270 C 
ATOM      5  C   LIG    1       -1.128   6.751  -0.782  0.00  0.00    +0.230 C 
ATOM      6  C   LIG    1        1.436   4.427   0.012  0.00  0.00    +0.610 C 
ATOM      7  O   LIG    1        0.764   3.420  -0.115  0.00  0.00    -0.510 OA
ATOM      8  O   LIG    1       -0.388   7.966  -0.643  0.00  0.00    -0.360 OA
ENDROOT
BRANCH   1  11
ATOM      9  C   LIG    1        2.945  10.867  -1.247  0.00  0.00    +0.290 A 
ATOM     10  N   LIG    1        2.574   9.675  -1.637  0.00  0.00    -0.530 NA
ATOM     11  C   LIG    1        1.676   9.180  -0.786  0.00  0.00    +0.230 A 
ATOM     12  N   LIG    1        1.469  10.051   0.166  0.00  0.00    -0.280 NA
ATOM     13  N   LIG    1        2.285  11.159  -0.113  0.00  0.00    -0.480 N 
ATOM     14  H   LIG    1        2.359  11.973   0.409  0.00  0.00    +0.440 HD
BRANCH   9  16
ATOM     15  C   LIG    1        5.325  11.557  -1.324  0.00  0.00    +0.050 C 
ATOM     16  C   LIG    1        3.942  11.756  -1.945  0.00  0.00    +0.150 C 
ENDBRANCH   9  16
ENDBRANCH   1  11
BRANCH   6  17
ATOM     17  C   LIG    1        2.899   4.333   0.041  0.00  0.00    -0.070 A 
ATOM     18  C   LIG    1        3.636   3.210  -0.203  0.00  0.00    +0.060 A 
ATOM     19  C   LIG    1        4.985   3.575  -0.068  0.00  0.00    -0.030 A 
ATOM     20  C   LIG    1        5.012   4.887   0.253  0.00  0.00    -0.010 A 
ATOM     21  O   LIG    1        3.753   5.341   0.313  0.00  0.00    -0.150 OA
BRANCH  20  22
ATOM     22  C   LIG    1        6.253   5.705   0.501  0.00  0.00    +0.400 C 
BRANCH  22  23
ATOM     23  N   LIG    1        6.707   6.297  -0.760  0.00  0.00    -0.730 N 
ATOM     24  H   LIG    1        6.215   6.130  -1.579  0.00  0.00    +0.410 HD
ATOM     25  C   LIG    1        7.808   7.075  -0.781  0.00  0.00    +0.510 C 
ATOM     26  O   LIG    1        8.422   7.284   0.244  0.00  0.00    -0.540 OA
ATOM     27  C   LIG    1        8.275   7.684  -2.078  0.00  0.00    +0.110 C 
ENDBRANCH  22  23
ENDBRANCH  20  22
ENDBRANCH   6  17
TORSDOF 5
