REMARK  Name = ZINCvU0000000E35.0
REMARK                            x       y       z     vdW  Elec       q    Type
REMARK                         _______ _______ _______ _____ _____    ______ ____
ROOT
ATOM      1  C   LIG    1       -0.348   1.573   0.376  0.00  0.00    -0.690 A 
ATOM      2  C   LIG    1       -1.628   2.101   0.382  0.00  0.00    +0.180 A 
ATOM      3  C   LIG    1       -1.823   3.458   0.567  0.00  0.00    +0.020 A 
ATOM      4  C   LIG    1       -0.739   4.297   0.738  0.00  0.00    +0.070 A 
ATOM      5  C   LIG    1        0.555   3.771   0.728  0.00  0.00    -0.150 A 
ATOM      6 CL   LIG    1       -0.985   6.000   0.963  0.00  0.00    -0.010 Cl
ATOM      7  C   LIG    1        0.743   2.399   0.546  0.00  0.00    +0.180 A 
ENDROOT
BRANCH   5   8
ATOM      8  C   LIG    1        1.720   4.661   0.910  0.00  0.00    +0.560 C 
ATOM      9  N   LIG    1        2.967   4.151   0.901  0.00  0.00    -0.670 N 
ATOM     10  H   LIG    1        3.104   3.210   0.706  0.00  0.00    +0.410 HD
ATOM     11  O   LIG    1        1.553   5.855   1.069  0.00  0.00    -0.490 OA
BRANCH   9  12
ATOM     12  C   LIG    1        4.063   4.976   1.173  0.00  0.00    +0.150 A 
ATOM     13  C   LIG    1        5.152   4.478   1.876  0.00  0.00    -0.030 A 
ATOM     14  C   LIG    1        6.235   5.294   2.138  0.00  0.00    -0.060 A 
ATOM     15  C   LIG    1        6.231   6.609   1.711  0.00  0.00    -0.010 A 
ATOM     16  C   LIG    1        5.145   7.110   1.015  0.00  0.00    -0.060 A 
ATOM     17  C   LIG    1        5.145   8.544   0.551  0.00  0.00    +0.100 C 
ATOM     18  C   LIG    1        7.420   4.753   2.895  0.00  0.00    +0.100 C 
ATOM     19  C   LIG    1        4.061   6.297   0.745  0.00  0.00    +0.020 A 
ENDBRANCH   9  12
ENDBRANCH   5   8
BRANCH   1  20
ATOM     20  S   LIG    1       -0.113  -0.158   0.146  0.00  0.00    +2.690 S 
ATOM     21  O   LIG    1        1.204  -0.319  -0.362  0.00  0.00    -0.940 OA
ATOM     22  O   LIG    1       -1.270  -0.634  -0.528  0.00  0.00    -0.940 OA
BRANCH  20  23
ATOM     23  N   LIG    1       -0.124  -0.858   1.646  0.00  0.00    -0.940 N 
ATOM     24  C   LIG    1       -1.397  -1.216   2.278  0.00  0.00    +0.320 C 
BRANCH  23  28
ATOM     25  C   LIG    1        3.467  -1.602   3.627  0.00  0.00    +0.130 A 
ATOM     26  C   LIG    1        3.224  -2.182   2.390  0.00  0.00    +0.000 A 
ATOM     27  C   LIG    1        2.035  -1.936   1.734  0.00  0.00    +0.080 A 
ATOM     28  C   LIG    1        1.081  -1.108   2.311  0.00  0.00    +0.090 A 
ATOM     29  C   LIG    1        1.328  -0.523   3.546  0.00  0.00    +0.050 A 
ATOM     30  C   LIG    1        2.516  -0.774   4.204  0.00  0.00    -0.070 A 
BRANCH  25  32
ATOM     31  C   LIG    1        4.822  -1.214   5.543  0.00  0.00    +0.250 C 
ATOM     32  O   LIG    1        4.639  -1.844   4.273  0.00  0.00    -0.310 OA
ENDBRANCH  25  32
ENDBRANCH  23  28
ENDBRANCH  20  23
ENDBRANCH   1  20
TORSDOF 6
