REMARK  Name = ZINCrD000000CO2E.0
REMARK                            x       y       z     vdW  Elec       q    Type
REMARK                         _______ _______ _______ _____ _____    ______ ____
ROOT
ATOM      1  C   LIG    1        6.034   3.066  -0.042  0.00  0.00    +0.230 C 
ENDROOT
BRANCH   1   2
ATOM      2  O   LIG    1        6.048   2.330  -1.267  0.00  0.00    -0.310 OA
BRANCH   2   9
ATOM      3  O   LIG    1       11.376  -2.534  -3.354  0.00  0.00    -0.530 OA
ATOM      4  C   LIG    1       10.478  -1.729  -3.214  0.00  0.00    +0.520 C 
ATOM      5  C   LIG    1        9.717  -1.247  -4.419  0.00  0.00    +0.080 C 
ATOM      6  C   LIG    1        8.251  -1.019  -4.053  0.00  0.00    +0.110 C 
ATOM      7  C   LIG    1        8.168  -0.206  -2.787  0.00  0.00    -0.080 A 
ATOM      8  C   LIG    1        7.134   0.691  -2.606  0.00  0.00    +0.030 A 
ATOM      9  C   LIG    1        7.063   1.442  -1.442  0.00  0.00    +0.110 A 
ATOM     10  C   LIG    1        8.025   1.286  -0.456  0.00  0.00    -0.050 A 
ATOM     11  C   LIG    1        9.057   0.385  -0.633  0.00  0.00    +0.020 A 
ATOM     12  C   LIG    1        9.131  -0.364  -1.800  0.00  0.00    +0.120 A 
ATOM     13  N   LIG    1       10.175  -1.279  -1.983  0.00  0.00    -0.660 N 
ATOM     14  H   LIG    1       10.683  -1.590  -1.217  0.00  0.00    +0.410 HD
ENDBRANCH   2   9
ENDBRANCH   1   2
BRANCH   1  15
ATOM     15  C   LIG    1        4.827   4.006  -0.025  0.00  0.00    +0.260 C 
BRANCH  15  16
ATOM     16  O   LIG    1        3.604   3.224  -0.017  0.00  0.00    -0.340 OA
BRANCH  16  17
ATOM     17  C   LIG    1        2.442   3.905  -0.002  0.00  0.00    +0.510 C 
ATOM     18  O   LIG    1        2.451   5.120   0.003  0.00  0.00    -0.500 OA
BRANCH  17  19
ATOM     19  C   LIG    1        1.159   3.176   0.007  0.00  0.00    -0.130 A 
ATOM     20  C   LIG    1       -0.034   3.881   0.022  0.00  0.00    +0.140 A 
ATOM     21  C   LIG    1       -1.248   3.180   0.030  0.00  0.00    -0.120 A 
ATOM     22  C   LIG    1       -2.483   3.857   0.045  0.00  0.00    +0.100 A 
ATOM     23  C   LIG    1       -3.627   3.111   0.052  0.00  0.00    -0.040 A 
ATOM     24  C   LIG    1       -3.550   1.721   0.044  0.00  0.00    +0.310 A 
ATOM     25  N   LIG    1       -2.399   1.093   0.031  0.00  0.00    -0.480 NA
ATOM     26  C   LIG    1       -1.242   1.762   0.018  0.00  0.00    +0.150 A 
ATOM     27  C   LIG    1       -0.013   1.076   0.008  0.00  0.00    +0.050 A 
ATOM     28  C   LIG    1        1.154   1.769   0.001  0.00  0.00    +0.090 A 
ENDBRANCH  17  19
ENDBRANCH  16  17
ENDBRANCH  15  16
ENDBRANCH   1  15
TORSDOF 6
