REMARK  Name = ZINCqH0000038hQQ.0
REMARK                            x       y       z     vdW  Elec       q    Type
REMARK                         _______ _______ _______ _____ _____    ______ ____
ROOT
ATOM      1  N   LIG    1       -3.561   3.216   0.040  0.00  0.00    -0.660 N 
ATOM      2  H   LIG    1       -3.479   2.252   0.108  0.00  0.00    +0.420 HD
ATOM      3  C   LIG    1       -2.455   3.986   0.019  0.00  0.00    +0.560 C 
ATOM      4  O   LIG    1       -2.558   5.198   0.037  0.00  0.00    -0.520 OA
ENDROOT
BRANCH   1   9
ATOM      5  C   LIG    1       -6.553   0.361   2.859  0.00  0.00    +0.130 C 
ATOM      6  C   LIG    1       -6.778   1.606   2.040  0.00  0.00    +0.160 A 
ATOM      7  N   LIG    1       -5.767   2.136   1.394  0.00  0.00    -0.480 NA
ATOM      8  C   LIG    1       -5.918   3.236   0.650  0.00  0.00    +0.120 A 
ATOM      9  C   LIG    1       -4.824   3.805  -0.038  0.00  0.00    +0.170 A 
ATOM     10  C   LIG    1       -5.014   4.943  -0.791  0.00  0.00    +0.030 A 
ATOM     11  C   LIG    1       -6.269   5.540  -0.877  0.00  0.00    +0.040 A 
ATOM     12  C   LIG    1       -7.340   5.016  -0.219  0.00  0.00    +0.020 A 
ATOM     13  C   LIG    1       -7.187   3.858   0.559  0.00  0.00    -0.090 A 
ATOM     14  C   LIG    1       -8.275   3.292   1.250  0.00  0.00    +0.090 A 
ATOM     15  C   LIG    1       -8.054   2.163   1.988  0.00  0.00    -0.030 A 
ENDBRANCH   1   9
BRANCH   3  16
ATOM     16  C   LIG    1       -1.120   3.360  -0.025  0.00  0.00    -0.160 A 
ATOM     17  C   LIG    1       -1.000   1.968  -0.053  0.00  0.00    +0.080 A 
ATOM     18  C   LIG    1        0.247   1.387  -0.089  0.00  0.00    +0.000 A 
ATOM     19  C   LIG    1        1.388   2.184  -0.110  0.00  0.00    +0.210 A 
ATOM     20  C   LIG    1        1.272   3.570  -0.089  0.00  0.00    -0.020 A 
ATOM     21  C   LIG    1        0.027   4.158  -0.047  0.00  0.00    +0.130 A 
BRANCH  19  22
ATOM     22  N   LIG    1        2.650   1.592  -0.152  0.00  0.00    -0.570 N 
ATOM     23  C   LIG    1        3.926   2.308  -0.300  0.00  0.00    +0.280 C 
ATOM     24  C   LIG    1        4.981   1.186  -0.283  0.00  0.00    +0.270 C 
ATOM     25  O   LIG    1        4.196  -0.033  -0.137  0.00  0.00    -0.320 OA
ATOM     26  C   LIG    1        2.897   0.278  -0.070  0.00  0.00    +0.650 C 
ATOM     27  O   LIG    1        2.021  -0.555   0.054  0.00  0.00    -0.490 OA
ENDBRANCH  19  22
ENDBRANCH   3  16
TORSDOF 3
