REMARK  Name = ZINCvU00000008XJ.0
REMARK                            x       y       z     vdW  Elec       q    Type
REMARK                         _______ _______ _______ _____ _____    ______ ____
ROOT
ATOM      1  C   LIG    1        3.738   7.830   0.006  0.00  0.00    +0.160 A 
ATOM      2  N   LIG    1        2.553   8.398   0.015  0.00  0.00    -0.280 NA
ATOM      3  N   LIG    1        2.674   9.677   0.024  0.00  0.00    -0.260 NA
ATOM      4  C   LIG    1        3.947  10.009   0.014  0.00  0.00    +0.270 A 
ATOM      5  N   LIG    1        4.669   8.834   0.002  0.00  0.00    -0.420 N 
ENDROOT
BRANCH   5   6
ATOM      6  C   LIG    1        6.064   8.696  -0.011  0.00  0.00    +0.100 A 
ATOM      7  C   LIG    1        6.816   9.133   1.071  0.00  0.00    +0.030 A 
ATOM      8  C   LIG    1        8.190   8.992   1.057  0.00  0.00    +0.040 A 
ATOM      9  C   LIG    1        8.818   8.426  -0.038  0.00  0.00    +0.040 A 
ATOM     10  C   LIG    1        8.071   7.994  -1.119  0.00  0.00    +0.040 A 
ATOM     11  C   LIG    1        6.697   8.128  -1.109  0.00  0.00    +0.040 A 
ENDBRANCH   5   6
BRANCH   4  12
ATOM     12  C   LIG    1        4.496  11.374   0.016  0.00  0.00    -0.140 A 
ATOM     13  C   LIG    1        3.797  12.496  -0.263  0.00  0.00    +0.080 A 
ATOM     14  C   LIG    1        4.530  13.662  -0.194  0.00  0.00    +0.010 A 
ATOM     15  C   LIG    1        5.818  13.504   0.129  0.00  0.00    -0.040 A 
ATOM     16  S   LIG    1        6.165  11.798   0.374  0.00  0.00    +0.150 S 
ENDBRANCH   4  12
BRANCH   1  17
ATOM     17  S   LIG    1        4.066   6.099  -0.006  0.00  0.00    +0.080 S 
BRANCH  17  18
ATOM     18  C   LIG    1        2.374   5.458   0.007  0.00  0.00    +0.090 C 
BRANCH  18  19
ATOM     19  C   LIG    1        2.408   3.951  -0.001  0.00  0.00    +0.420 C 
ATOM     20  O   LIG    1        3.471   3.368  -0.014  0.00  0.00    -0.420 OA
BRANCH  19  26
ATOM     21  C   LIG    1       -2.573   3.854   0.046  0.00  0.00    +0.100 C 
ATOM     22  C   LIG    1       -1.250   3.134   0.030  0.00  0.00    -0.120 A 
ATOM     23  C   LIG    1       -1.218   1.749   0.017  0.00  0.00    +0.100 A 
ATOM     24  C   LIG    1       -0.013   1.076   0.008  0.00  0.00    -0.060 A 
ATOM     25  C   LIG    1        1.179   1.784   0.000  0.00  0.00    +0.160 A 
ATOM     26  C   LIG    1        1.153   3.189   0.008  0.00  0.00    -0.180 A 
ATOM     27  C   LIG    1       -0.077   3.856   0.023  0.00  0.00    +0.110 A 
BRANCH  25  28
ATOM     28  O   LIG    1        2.364   1.125  -0.014  0.00  0.00    -0.290 OA
BRANCH  28  29
ATOM     29  C   LIG    1        2.311  -0.303  -0.020  0.00  0.00    +0.600 C 
ATOM     30  F   LIG    1        1.625  -0.740  -1.158  0.00  0.00    -0.200 F 
ATOM     31  F   LIG    1        1.646  -0.751   1.127  0.00  0.00    -0.200 F 
ENDBRANCH  28  29
ENDBRANCH  25  28
ENDBRANCH  19  26
ENDBRANCH  18  19
ENDBRANCH  17  18
ENDBRANCH   1  17
TORSDOF 8
