REMARK  Name = ZINCvU0000000ANr.0
REMARK                            x       y       z     vdW  Elec       q    Type
REMARK                         _______ _______ _______ _____ _____    ______ ____
ROOT
ATOM      1  C   LIG    1        1.685  -1.667  -0.030  0.00  0.00    +0.030 C 
ATOM      2  C   LIG    1        0.732  -1.954  -0.959  0.00  0.00    +0.200 C 
ENDROOT
BRANCH   1   3
ATOM      3  N   LIG    1        1.312  -1.364   1.285  0.00  0.00    -0.330 N 
ATOM      4  N   LIG    1        1.656  -2.066   2.454  0.00  0.00    -0.050 NA
ATOM      5  N   LIG    1        1.104  -1.446   3.440  0.00  0.00    -0.030 NA
ATOM      6  N   LIG    1        0.446  -0.426   3.020  0.00  0.00    -0.310 NA
ATOM      7  C   LIG    1        0.537  -0.325   1.710  0.00  0.00    +0.300 A 
BRANCH   7   8
ATOM      8  C   LIG    1       -0.083   0.716   0.861  0.00  0.00    -0.040 A 
ATOM      9  C   LIG    1        0.444   0.997  -0.400  0.00  0.00    +0.010 A 
ATOM     10  C   LIG    1       -0.142   1.964  -1.190  0.00  0.00    +0.020 A 
ATOM     11  C   LIG    1       -1.242   2.665  -0.728  0.00  0.00    +0.040 A 
ATOM     12  C   LIG    1       -1.766   2.395   0.524  0.00  0.00    +0.020 A 
ATOM     13  C   LIG    1       -1.192   1.425   1.321  0.00  0.00    +0.080 A 
ENDBRANCH   7   8
ENDBRANCH   1   3
BRANCH   2  14
ATOM     14  C   LIG    1        1.103  -2.186  -2.304  0.00  0.00    -0.040 A 
ATOM     15  C   LIG    1        0.240  -2.391  -3.362  0.00  0.00    +0.040 A 
ATOM     16  C   LIG    1        1.040  -2.574  -4.500  0.00  0.00    -0.060 A 
ATOM     17  C   LIG    1        2.329  -2.486  -4.102  0.00  0.00    +0.220 A 
ATOM     18  O   LIG    1        2.363  -2.252  -2.782  0.00  0.00    -0.160 OA
ENDBRANCH   2  14
BRANCH   1  21
ATOM     19  N   LIG    1        3.636  -0.608  -1.034  0.00  0.00    -0.650 N 
ATOM     20  H   LIG    1        3.099   0.185  -1.186  0.00  0.00    +0.410 HD
ATOM     21  C   LIG    1        3.100  -1.674  -0.407  0.00  0.00    +0.570 C 
ATOM     22  O   LIG    1        3.792  -2.643  -0.153  0.00  0.00    -0.480 OA
BRANCH  19  26
ATOM     23  C   LIG    1        7.596  -0.722  -2.318  0.00  0.00    -0.090 A 
ATOM     24  C   LIG    1        7.046   0.469  -1.882  0.00  0.00    +0.030 A 
ATOM     25  C   LIG    1        5.733   0.511  -1.456  0.00  0.00    -0.020 A 
ATOM     26  C   LIG    1        4.965  -0.646  -1.465  0.00  0.00    +0.140 A 
ATOM     27  C   LIG    1        5.522  -1.843  -1.898  0.00  0.00    +0.030 A 
ATOM     28  C   LIG    1        6.834  -1.876  -2.328  0.00  0.00    +0.030 A 
BRANCH  23  29
ATOM     29  C   LIG    1        9.029  -0.763  -2.783  0.00  0.00    +0.030 C 
ATOM     30  C   LIG    1        9.079  -1.228  -4.240  0.00  0.00    +0.030 C 
BRANCH  29  32
ATOM     31  C   LIG    1       11.300  -1.687  -2.300  0.00  0.00    +0.000 C 
ATOM     32  C   LIG    1        9.821  -1.738  -1.909  0.00  0.00    +0.000 C 
ENDBRANCH  29  32
ENDBRANCH  23  29
ENDBRANCH  19  26
ENDBRANCH   1  21
TORSDOF 7
