REMARK  Name = ZINCpe00000RcIzp.0
REMARK                            x       y       z     vdW  Elec       q    Type
REMARK                         _______ _______ _______ _____ _____    ______ ____
ROOT
ATOM      1  C   LIG    1       -2.911   2.835  -0.667  0.00  0.00    +0.250 C 
ATOM      2  C   LIG    1       -2.613   1.496   0.023  0.00  0.00    +0.270 C 
ATOM      3  N   LIG    1       -1.191   1.870   0.018  0.00  0.00    -0.640 N 
ATOM      4  C   LIG    1       -0.014   1.212   0.009  0.00  0.00    +0.630 C 
ATOM      5  O   LIG    1        0.002  -0.004   0.002  0.00  0.00    -0.550 OA
ATOM      6  C   LIG    1       -1.617   3.278   0.034  0.00  0.00    +0.280 C 
ENDROOT
BRANCH   4   7
ATOM      7  C   LIG    1        1.251   1.966   0.001  0.00  0.00    -0.240 A 
ATOM      8  C   LIG    1        2.516   1.447  -0.014  0.00  0.00    +0.110 A 
ATOM      9  N   LIG    1        3.394   2.468  -0.017  0.00  0.00    -0.440 N 
ATOM     10  C   LIG    1        2.732   3.662  -0.004  0.00  0.00    +0.150 A 
ATOM     11  C   LIG    1        4.851   2.320  -0.032  0.00  0.00    +0.330 C 
ATOM     12  C   LIG    1        2.869  -0.018  -0.025  0.00  0.00    +0.140 C 
ATOM     13  C   LIG    1        1.408   3.424   0.001  0.00  0.00    -0.020 A 
ENDBRANCH   4   7
BRANCH   1  17
ATOM     14  C   LIG    1       -6.430   4.119  -0.024  0.00  0.00    +0.140 C 
ATOM     15  C   LIG    1       -5.661   4.549   1.246  0.00  0.00    +0.090 C 
ATOM     16  C   LIG    1       -4.303   3.898   1.095  0.00  0.00    +0.520 C 
ATOM     17  N   LIG    1       -4.117   3.508  -0.177  0.00  0.00    -0.610 N 
ATOM     18  O   LIG    1       -3.500   3.751   1.992  0.00  0.00    -0.510 OA
ATOM     19  C   LIG    1       -5.274   3.847  -1.014  0.00  0.00    +0.300 C 
BRANCH  14  24
ATOM     20  C   LIG    1      -10.163   0.813   0.437  0.00  0.00    +0.200 C 
ATOM     21  C   LIG    1       -8.804   1.464   0.428  0.00  0.00    +0.170 A 
ATOM     22  N   LIG    1       -7.678   0.896   0.742  0.00  0.00    -0.380 NA
ATOM     23  O   LIG    1       -6.764   1.686   0.629  0.00  0.00    +0.090 OA
ATOM     24  C   LIG    1       -7.236   2.871   0.230  0.00  0.00    +0.180 A 
ATOM     25  N   LIG    1       -8.534   2.739   0.096  0.00  0.00    -0.470 NA
ENDBRANCH  14  24
ENDBRANCH   1  17
TORSDOF 3
