REMARK  Name = ZINCrH00000mk3Gr.0
REMARK                            x       y       z     vdW  Elec       q    Type
REMARK                         _______ _______ _______ _____ _____    ______ ____
ROOT
ATOM      1  C   LIG    1       -2.170   5.772  -1.402  0.00  0.00    +0.170 C 
ENDROOT
BRANCH   1   2
ATOM      2  C   LIG    1       -3.358   5.572  -0.496  0.00  0.00    +0.520 C 
ATOM      3  N   LIG    1       -4.511   5.085  -0.995  0.00  0.00    -0.560 N 
ATOM      4  C   LIG    1       -4.636   4.740  -2.419  0.00  0.00    +0.340 C 
ATOM      5  C   LIG    1       -5.976   5.214  -2.923  0.00  0.00    +0.510 C 
ATOM      6  N   LIG    1       -7.034   5.297  -2.095  0.00  0.00    -0.650 N 
ATOM      7  H   LIG    1       -7.896   5.570  -2.446  0.00  0.00    +0.420 HD
ATOM      8  C   LIG    1       -6.904   4.995  -0.736  0.00  0.00    +0.130 A 
ATOM      9  C   LIG    1       -8.023   4.800   0.057  0.00  0.00    +0.010 A 
ATOM     10  C   LIG    1       -7.873   4.506   1.401  0.00  0.00    +0.030 A 
ATOM     11  C   LIG    1       -6.611   4.407   1.957  0.00  0.00    +0.010 A 
ATOM     12  C   LIG    1       -5.487   4.599   1.172  0.00  0.00    +0.060 A 
ATOM     13  O   LIG    1       -6.101   5.523  -4.090  0.00  0.00    -0.510 OA
ATOM     14  C   LIG    1       -5.629   4.884  -0.171  0.00  0.00    +0.110 A 
ATOM     15  O   LIG    1       -3.276   5.850   0.682  0.00  0.00    -0.490 OA
ENDBRANCH   1   2
BRANCH   1  20
ATOM     16  C   LIG    1        1.639   8.600   1.249  0.00  0.00    +0.180 C 
ATOM     17  C   LIG    1        0.708   7.610   0.597  0.00  0.00    +0.060 A 
ATOM     18  N   LIG    1        0.830   6.329   0.670  0.00  0.00    -0.460 NA
ATOM     19  C   LIG    1       -0.074   5.599   0.032  0.00  0.00    +0.130 A 
ATOM     20  C   LIG    1       -1.017   6.323  -0.604  0.00  0.00    -0.210 A 
ATOM     21  S   LIG    1       -0.662   8.028  -0.336  0.00  0.00    +0.160 S 
BRANCH  19  22
ATOM     22  C   LIG    1       -0.054   4.116   0.025  0.00  0.00    -0.030 A 
ATOM     23  C   LIG    1        1.161   3.433   0.009  0.00  0.00    +0.090 A 
ATOM     24  C   LIG    1        1.175   2.054   0.002  0.00  0.00    -0.010 A 
ATOM     25  C   LIG    1       -0.016   1.347   0.009  0.00  0.00    +0.110 A 
ATOM     26  C   LIG    1       -1.226   2.021   0.019  0.00  0.00    -0.010 A 
ATOM     27  F   LIG    1        0.002  -0.004   0.002  0.00  0.00    -0.140 F 
ATOM     28  C   LIG    1       -1.250   3.401   0.032  0.00  0.00    +0.050 A 
ENDBRANCH  19  22
ENDBRANCH   1  20
TORSDOF 3
