REMARK  Name = ZINCrH000004sMoz.0
REMARK                            x       y       z     vdW  Elec       q    Type
REMARK                         _______ _______ _______ _____ _____    ______ ____
ROOT
ATOM      1  S   LIG    1        7.028   1.457   2.373  0.00  0.00    +0.080 S 
ENDROOT
BRANCH   1   6
ATOM      2  C   LIG    1       11.087   4.067   4.598  0.00  0.00    +0.200 C 
ATOM      3  C   LIG    1        9.787   3.750   3.905  0.00  0.00    +0.190 A 
ATOM      4  N   LIG    1        8.909   4.612   3.477  0.00  0.00    -0.280 NA
ATOM      5  N   LIG    1        7.918   4.001   2.934  0.00  0.00    -0.290 NA
ATOM      6  C   LIG    1        8.111   2.703   2.987  0.00  0.00    +0.140 A 
ATOM      7  N   LIG    1        9.307   2.502   3.613  0.00  0.00    -0.450 N 
BRANCH   7   8
ATOM      8  C   LIG    1        9.946   1.218   3.909  0.00  0.00    +0.370 C 
BRANCH   8   9
ATOM      9  C   LIG    1       10.830   0.819   2.755  0.00  0.00    -0.120 A 
ATOM     10  C   LIG    1       10.317   0.057   1.722  0.00  0.00    +0.040 A 
ATOM     11  C   LIG    1       11.126  -0.304   0.662  0.00  0.00    +0.010 A 
ATOM     12  C   LIG    1       12.452   0.087   0.639  0.00  0.00    +0.020 A 
ATOM     13  C   LIG    1       12.967   0.845   1.675  0.00  0.00    +0.010 A 
ATOM     14  C   LIG    1       12.156   1.211   2.733  0.00  0.00    +0.020 A 
ENDBRANCH   8   9
ENDBRANCH   7   8
ENDBRANCH   1   6
BRANCH   1  15
ATOM     15  C   LIG    1        5.698   2.493   1.713  0.00  0.00    +0.110 C 
BRANCH  15  16
ATOM     16  C   LIG    1        4.626   1.617   1.119  0.00  0.00    +0.540 C 
ATOM     17  N   LIG    1        3.531   2.173   0.565  0.00  0.00    -0.720 N 
ATOM     18  H   LIG    1        3.433   3.138   0.549  0.00  0.00    +0.400 HD
ATOM     19  O   LIG    1        4.749   0.410   1.138  0.00  0.00    -0.520 OA
BRANCH  17  20
ATOM     20  C   LIG    1        2.489   1.321  -0.014  0.00  0.00    +0.290 C 
ATOM     21  C   LIG    1        2.860   0.970  -1.456  0.00  0.00    +0.040 C 
BRANCH  20  22
ATOM     22  C   LIG    1        1.173   2.056   0.002  0.00  0.00    -0.130 A 
ATOM     23  C   LIG    1        1.153   3.438   0.009  0.00  0.00    +0.040 A 
ATOM     24  C   LIG    1       -0.054   4.112   0.024  0.00  0.00    +0.010 A 
ATOM     25  C   LIG    1       -1.242   3.405   0.032  0.00  0.00    +0.050 A 
ATOM     26  C   LIG    1       -1.224   2.023   0.019  0.00  0.00    -0.010 A 
ATOM     27  C   LIG    1       -0.016   1.347   0.009  0.00  0.00    +0.110 A 
ATOM     28  F   LIG    1        0.002  -0.004   0.002  0.00  0.00    -0.130 F 
ENDBRANCH  20  22
ENDBRANCH  17  20
ENDBRANCH  15  16
ENDBRANCH   1  15
TORSDOF 7
