REMARK  Name = ZINCqH00000388ZS.0
REMARK                            x       y       z     vdW  Elec       q    Type
REMARK                         _______ _______ _______ _____ _____    ______ ____
ROOT
ATOM      1  N   LIG    1        0.480  -0.338   0.500  0.00  0.00    -0.680 N 
ATOM      2  H   LIG    1        1.266  -0.854   0.264  0.00  0.00    +0.410 HD
ATOM      3  C   LIG    1       -0.716  -0.947   0.619  0.00  0.00    +0.720 C 
ATOM      4  N   LIG    1       -0.802  -2.288   0.514  0.00  0.00    -0.630 N 
ATOM      5  C   LIG    1        0.326  -3.205   0.272  0.00  0.00    +0.260 C 
ATOM      6  C   LIG    1       -0.315  -4.463  -0.366  0.00  0.00    +0.080 C 
ATOM      7  C   LIG    1       -1.655  -4.558   0.411  0.00  0.00    +0.160 C 
ATOM      8  C   LIG    1       -2.037  -3.079   0.628  0.00  0.00    +0.270 C 
ATOM      9  O   LIG    1       -1.717  -0.287   0.820  0.00  0.00    -0.560 OA
ENDROOT
BRANCH   1  14
ATOM     10  C   LIG    1        0.918   5.249   1.389  0.00  0.00    +0.100 C 
ATOM     11  C   LIG    1        0.801   3.766   1.153  0.00  0.00    -0.090 A 
ATOM     12  C   LIG    1       -0.116   3.022   1.872  0.00  0.00    +0.050 A 
ATOM     13  C   LIG    1       -0.224   1.662   1.658  0.00  0.00    +0.030 A 
ATOM     14  C   LIG    1        0.588   1.040   0.719  0.00  0.00    +0.170 A 
ATOM     15  C   LIG    1        1.512   1.788   0.001  0.00  0.00    +0.000 A 
ATOM     16  C   LIG    1        1.613   3.150   0.215  0.00  0.00    -0.020 A 
ATOM     17 CL   LIG    1        2.763   4.087  -0.686  0.00  0.00    -0.060 Cl
ENDBRANCH   1  14
BRANCH   7  18
ATOM     18  O   LIG    1       -2.644  -5.234  -0.368  0.00  0.00    -0.280 OA
BRANCH  18  19
ATOM     19  C   LIG    1       -3.661  -5.831   0.309  0.00  0.00    +0.060 A 
ATOM     20  C   LIG    1       -3.779  -5.676   1.682  0.00  0.00    +0.000 A 
ATOM     21  C   LIG    1       -4.834  -6.305   2.331  0.00  0.00    -0.020 A 
ATOM     22  C   LIG    1       -5.727  -7.059   1.597  0.00  0.00    +0.250 A 
ATOM     23  N   LIG    1       -5.592  -7.190   0.290  0.00  0.00    -0.490 NA
ATOM     24  C   LIG    1       -4.606  -6.604  -0.368  0.00  0.00    +0.290 A 
BRANCH  24  25
ATOM     25  N   LIG    1       -4.506  -6.764  -1.748  0.00  0.00    -0.480 N 
ATOM     26  C   LIG    1       -4.485  -5.463  -2.429  0.00  0.00    +0.220 C 
ATOM     27  C   LIG    1       -5.593  -7.610  -2.260  0.00  0.00    +0.220 C 
ENDBRANCH  24  25
ENDBRANCH  18  19
ENDBRANCH   7  18
TORSDOF 4
