REMARK  Name = ZINCtV000002zBQP.0
REMARK                            x       y       z     vdW  Elec       q    Type
REMARK                         _______ _______ _______ _____ _____    ______ ____
ROOT
ATOM      1  C   LIG    1       -0.051   1.501   0.007  0.00  0.00    +0.250 C 
ATOM      2  C   LIG    1       -0.033  -0.037  -0.038  0.00  0.00    +0.020 C 
ATOM      3  C   LIG    1        1.450  -0.460  -0.045  0.00  0.00    +0.020 C 
ATOM      4  C   LIG    1        2.191   0.740   0.596  0.00  0.00    +0.030 C 
ATOM      5  C   LIG    1        1.422   1.959   0.028  0.00  0.00    +0.040 C 
ENDROOT
BRANCH   5   6
ATOM      6  C   LIG    1        1.591   3.155   0.928  0.00  0.00    -0.030 A 
ATOM      7  C   LIG    1        0.829   4.290   0.719  0.00  0.00    +0.000 A 
ATOM      8  C   LIG    1        0.980   5.386   1.548  0.00  0.00    +0.070 A 
ATOM      9  C   LIG    1        1.900   5.351   2.580  0.00  0.00    -0.180 A 
ATOM     10  C   LIG    1        2.666   4.218   2.785  0.00  0.00    +0.070 A 
ATOM     11  C   LIG    1        2.511   3.120   1.959  0.00  0.00    +0.020 A 
BRANCH   9  12
ATOM     12  C   LIG    1        2.069   6.547   3.480  0.00  0.00    +0.510 C 
ATOM     13  F   LIG    1        2.463   6.121   4.753  0.00  0.00    -0.180 F 
ATOM     14  F   LIG    1        0.854   7.235   3.574  0.00  0.00    -0.180 F 
ATOM     15  F   LIG    1        3.046   7.396   2.950  0.00  0.00    -0.180 F 
ENDBRANCH   9  12
ENDBRANCH   5   6
BRANCH   1  17
ATOM     16  C   LIG    1       -0.291   1.488   2.534  0.00  0.00    +0.330 C 
ATOM     17  N   LIG    1       -0.735   1.959   1.219  0.00  0.00    -0.550 N 
BRANCH  17  18
ATOM     18  C   LIG    1       -1.793   2.831   1.123  0.00  0.00    +0.440 A 
ATOM     19  N   LIG    1       -2.499   3.324   2.124  0.00  0.00    -0.520 NA
ATOM     20  C   LIG    1       -3.423   4.126   1.552  0.00  0.00    +0.240 A 
ATOM     21  N   LIG    1       -3.233   4.078   0.259  0.00  0.00    -0.390 NA
ATOM     22  O   LIG    1       -2.302   3.348  -0.004  0.00  0.00    +0.040 OA
BRANCH  20  23
ATOM     23  C   LIG    1       -4.462   4.915   2.261  0.00  0.00    -0.010 A 
ATOM     24  C   LIG    1       -4.551   4.864   3.650  0.00  0.00    +0.070 A 
ATOM     25  C   LIG    1       -5.516   5.603   4.305  0.00  0.00    +0.030 A 
ATOM     26  C   LIG    1       -6.400   6.384   3.584  0.00  0.00    +0.050 A 
ATOM     27  C   LIG    1       -6.319   6.435   2.203  0.00  0.00    -0.040 A 
ATOM     28 CL   LIG    1       -7.433   7.418   1.304  0.00  0.00    -0.060 Cl
ATOM     29  C   LIG    1       -5.354   5.703   1.538  0.00  0.00    +0.060 A 
ENDBRANCH  20  23
ENDBRANCH  17  18
ENDBRANCH   1  17
TORSDOF 5
