REMARK  Name = ZINCpe00000ZAYCx.0
REMARK                            x       y       z     vdW  Elec       q    Type
REMARK                         _______ _______ _______ _____ _____    ______ ____
ROOT
ATOM      1  O   LIG    1        2.889   4.869  -0.144  0.00  0.00    -0.510 OA
ATOM      2  C   LIG    1        2.530   3.713  -0.076  0.00  0.00    +0.530 C 
ATOM      3  C   LIG    1        3.443   2.512   0.040  0.00  0.00    +0.080 C 
ATOM      4  C   LIG    1        2.483   1.313   0.089  0.00  0.00    +0.170 C 
ATOM      5  N   LIG    1        1.143   1.902   0.001  0.00  0.00    -0.390 N 
ATOM      6  C   LIG    1       -0.014   1.212   0.009  0.00  0.00    +0.580 C 
ATOM      7  O   LIG    1        0.001  -0.002   0.084  0.00  0.00    -0.450 OA
ATOM      8  C   LIG    1        2.738   0.386  -1.095  0.00  0.00    +0.030 C 
ATOM      9  C   LIG    1        1.758  -0.790  -1.043  0.00  0.00    +0.020 C 
ATOM     10  C   LIG    1        1.946  -1.551   0.271  0.00  0.00    +0.020 C 
ATOM     11  C   LIG    1        1.671  -0.616   1.449  0.00  0.00    +0.020 C 
ATOM     12  C   LIG    1        2.650   0.560   1.406  0.00  0.00    +0.030 C 
ATOM     13  N   LIG    1        1.258   3.288  -0.097  0.00  0.00    -0.510 N 
ATOM     14  H   LIG    1        0.496   3.884  -0.171  0.00  0.00    +0.440 HD
ENDROOT
BRANCH   6  15
ATOM     15  C   LIG    1       -1.300   1.928  -0.080  0.00  0.00    -0.070 A 
ATOM     16  C   LIG    1       -2.539   1.367  -0.095  0.00  0.00    +0.260 A 
ATOM     17  O   LIG    1       -3.424   2.373  -0.183  0.00  0.00    -0.190 OA
ATOM     18  C   LIG    1       -2.743   3.527  -0.230  0.00  0.00    +0.180 A 
ATOM     19  N   LIG    1       -1.470   3.276  -0.169  0.00  0.00    -0.460 NA
BRANCH  18  20
ATOM     20  C   LIG    1       -3.358   4.899  -0.336  0.00  0.00    +0.380 C 
BRANCH  20  21
ATOM     21  N   LIG    1       -3.509   5.259  -1.752  0.00  0.00    -0.490 NA
ATOM     22  C   LIG    1       -4.558   4.441  -2.398  0.00  0.00    +0.180 C 
ATOM     23  C   LIG    1       -4.113   4.204  -3.854  0.00  0.00    -0.010 C 
ATOM     24  C   LIG    1       -2.743   4.909  -3.977  0.00  0.00    +0.180 C 
ATOM     25  C   LIG    1       -2.259   4.985  -2.507  0.00  0.00    +0.200 C 
BRANCH  24  26
ATOM     26  O   LIG    1       -1.843   4.130  -4.769  0.00  0.00    -0.560 OA
ATOM     27  H   LIG    1       -2.141   3.989  -5.678  0.00  0.00    +0.380 HD
ENDBRANCH  24  26
ENDBRANCH  20  21
ENDBRANCH  18  20
ENDBRANCH   6  15
TORSDOF 4
