REMARK  Name = ZINCrH000004n3gM.1
REMARK                            x       y       z     vdW  Elec       q    Type
REMARK                         _______ _______ _______ _____ _____    ______ ____
ROOT
ATOM      1  C   LIG    1       -1.567   5.231   2.559  0.00  0.00    +0.170 C 
ENDROOT
BRANCH   1   5
ATOM      2  C   LIG    1       -2.943   6.709   6.326  0.00  0.00    +0.130 A 
ATOM      3  C   LIG    1       -3.808   6.655   5.243  0.00  0.00    -0.020 A 
ATOM      4  C   LIG    1       -3.361   6.177   4.026  0.00  0.00    +0.050 A 
ATOM      5  C   LIG    1       -2.052   5.752   3.888  0.00  0.00    -0.120 A 
ATOM      6  C   LIG    1       -1.190   5.800   4.967  0.00  0.00    +0.080 A 
ATOM      7  C   LIG    1       -1.630   6.282   6.184  0.00  0.00    -0.080 A 
BRANCH   2   9
ATOM      8  C   LIG    1       -2.434   7.205   8.595  0.00  0.00    +0.250 C 
ATOM      9  O   LIG    1       -3.380   7.178   7.524  0.00  0.00    -0.320 OA
ENDBRANCH   2   9
ENDBRANCH   1   5
BRANCH   1  10
ATOM     10  N   LIG    1       -0.205   5.721   2.309  0.00  0.00    -0.510 NA
ATOM     11  C   LIG    1        0.318   5.203   1.019  0.00  0.00    +0.170 C 
ATOM     12  C   LIG    1        1.461   6.191   0.677  0.00  0.00    +0.030 C 
ATOM     13  C   LIG    1        0.897   7.549   1.154  0.00  0.00    +0.010 C 
ATOM     14  C   LIG    1       -0.186   7.194   2.189  0.00  0.00    +0.170 C 
ENDBRANCH   1  10
BRANCH   1  15
ATOM     15  C   LIG    1       -1.563   3.701   2.583  0.00  0.00    +0.290 C 
BRANCH  15  16
ATOM     16  N   LIG    1       -2.938   3.210   2.704  0.00  0.00    -0.720 N 
ATOM     17  H   LIG    1       -3.668   3.838   2.823  0.00  0.00    +0.400 HD
ATOM     18  C   LIG    1       -3.189   1.887   2.649  0.00  0.00    +0.520 C 
ATOM     19  O   LIG    1       -2.276   1.103   2.500  0.00  0.00    -0.510 OA
BRANCH  18  20
ATOM     20  C   LIG    1       -4.604   1.383   2.774  0.00  0.00    +0.240 C 
BRANCH  20  21
ATOM     21  O   LIG    1       -4.610  -0.043   2.686  0.00  0.00    -0.280 OA
BRANCH  21  22
ATOM     22  C   LIG    1       -5.817  -0.662   2.781  0.00  0.00    +0.140 A 
ATOM     23  C   LIG    1       -6.970   0.088   2.960  0.00  0.00    -0.070 A 
ATOM     24  C   LIG    1       -8.195  -0.542   3.051  0.00  0.00    +0.090 A 
ATOM     25  C   LIG    1       -8.273  -1.921   2.974  0.00  0.00    -0.130 A 
ATOM     26  C   LIG    1       -7.123  -2.672   2.800  0.00  0.00    +0.090 A 
ATOM     27 BR   LIG    1       -9.951  -2.782   3.106  0.00  0.00    -0.050 Br
ATOM     28  C   LIG    1       -5.896  -2.045   2.704  0.00  0.00    +0.000 A 
ENDBRANCH  21  22
ENDBRANCH  20  21
ENDBRANCH  18  20
ENDBRANCH  15  16
ENDBRANCH   1  15
TORSDOF 8
