REMARK  Name = ZINCrD00000hQ4Aa.0
REMARK                            x       y       z     vdW  Elec       q    Type
REMARK                         _______ _______ _______ _____ _____    ______ ____
ROOT
ATOM      1  C   LIG    1        1.401  -0.461  -0.014  0.00  0.00    +0.270 C 
ATOM      2  C   LIG    1        2.209   0.852  -0.015  0.00  0.00    +0.100 C 
ATOM      3  C   LIG    1        1.151   1.931   0.001  0.00  0.00    +0.140 C 
ATOM      4  N   LIG    1       -0.017   1.389   0.010  0.00  0.00    -0.200 NA
ATOM      5  N   LIG    1        0.002  -0.004   0.002  0.00  0.00    -0.850 N 
ENDROOT
BRANCH   1   9
ATOM      6  C   LIG    1        2.272  -2.760   3.479  0.00  0.00    -0.070 A 
ATOM      7  C   LIG    1        2.803  -3.131   2.258  0.00  0.00    +0.020 A 
ATOM      8  C   LIG    1        2.521  -2.386   1.127  0.00  0.00    +0.040 A 
ATOM      9  C   LIG    1        1.708  -1.272   1.218  0.00  0.00    -0.120 A 
ATOM     10  C   LIG    1        1.181  -0.899   2.441  0.00  0.00    +0.000 A 
ATOM     11  C   LIG    1        1.459  -1.646   3.570  0.00  0.00    +0.010 A 
BRANCH   6  13
ATOM     12  C   LIG    1        3.840  -3.022   5.382  0.00  0.00    +0.030 C 
ATOM     13  C   LIG    1        2.579  -3.571   4.712  0.00  0.00    +0.050 C 
ENDBRANCH   6  13
ENDBRANCH   1   9
BRANCH   3  14
ATOM     14  C   LIG    1        1.416   3.383   0.006  0.00  0.00    +0.040 A 
ATOM     15  C   LIG    1        2.730   3.855   0.002  0.00  0.00    -0.020 A 
ATOM     16  C   LIG    1        2.973   5.218   0.001  0.00  0.00    +0.170 A 
ATOM     17  C   LIG    1        1.914   6.114   0.016  0.00  0.00    -0.140 A 
ATOM     18  C   LIG    1        0.607   5.650   0.026  0.00  0.00    +0.170 A 
ATOM     19  C   LIG    1        0.353   4.288   0.021  0.00  0.00    +0.000 A 
BRANCH  18  20
ATOM     20  O   LIG    1       -0.427   6.532   0.041  0.00  0.00    -0.310 OA
ATOM     21  C   LIG    1       -0.093   7.922   0.045  0.00  0.00    +0.250 C 
ENDBRANCH  18  20
BRANCH  16  22
ATOM     22  O   LIG    1        4.252   5.679  -0.009  0.00  0.00    -0.310 OA
ATOM     23  C   LIG    1        4.431   7.097  -0.003  0.00  0.00    +0.250 C 
ENDBRANCH  16  22
ENDBRANCH   3  14
BRANCH   5  24
ATOM     24  S   LIG    1       -1.332  -0.986   0.010  0.00  0.00    +2.630 S 
ATOM     25  O   LIG    1       -0.857  -2.226  -0.496  0.00  0.00    -0.930 OA
ATOM     26  O   LIG    1       -2.320  -0.240  -0.688  0.00  0.00    -0.930 OA
ATOM     27  C   LIG    1       -1.770  -1.139   1.764  0.00  0.00    -0.280 C 
ENDBRANCH   5  24
TORSDOF 6
