REMARK  Name = ZINCrD000000AxNo.0
REMARK                            x       y       z     vdW  Elec       q    Type
REMARK                         _______ _______ _______ _____ _____    ______ ____
ROOT
ATOM      1  O   LIG    1        0.020   2.753  -2.757  0.00  0.00    -0.530 OA
ATOM      2  C   LIG    1       -0.998   2.111  -2.611  0.00  0.00    +0.520 C 
ATOM      3  N   LIG    1       -1.241   1.489  -1.440  0.00  0.00    -0.620 N 
ATOM      4  C   LIG    1       -0.281   1.580  -0.331  0.00  0.00    +0.280 C 
ATOM      5  C   LIG    1       -1.013   2.074   0.920  0.00  0.00    +0.040 C 
ATOM      6  C   LIG    1       -2.212   1.157   1.196  0.00  0.00    -0.020 C 
ATOM      7  C   LIG    1       -3.181   1.210   0.013  0.00  0.00    +0.040 C 
ATOM      8  C   LIG    1       -2.470   0.708  -1.247  0.00  0.00    +0.270 C 
ENDROOT
BRANCH   6   9
ATOM      9  C   LIG    1       -2.918   1.619   2.445  0.00  0.00    +0.520 C 
ATOM     10  N   LIG    1       -2.572   1.106   3.643  0.00  0.00    -0.600 N 
ATOM     11  C   LIG    1       -3.340   1.488   4.807  0.00  0.00    +0.270 C 
ATOM     12  C   LIG    1       -2.739   2.760   5.440  0.00  0.00    +0.010 C 
ATOM     13  C   LIG    1       -1.454   2.450   6.086  0.00  0.00    +0.000 C 
ATOM     14  C   LIG    1       -0.373   1.954   5.130  0.00  0.00    +0.000 C 
ATOM     15  C   LIG    1       -0.526   0.466   4.932  0.00  0.00    +0.020 C 
ATOM     16  C   LIG    1       -1.422   0.184   3.713  0.00  0.00    +0.250 C 
ATOM     17  O   LIG    1       -3.797   2.451   2.372  0.00  0.00    -0.530 OA
ENDBRANCH   6   9
BRANCH   2  18
ATOM     18  C   LIG    1       -1.993   2.008  -3.738  0.00  0.00    +0.140 C 
BRANCH  18  19
ATOM     19  C   LIG    1       -1.488   2.787  -4.926  0.00  0.00    -0.160 A 
ATOM     20  C   LIG    1       -1.799   4.054  -5.240  0.00  0.00    +0.240 A 
ATOM     21  N   LIG    1       -1.151   4.423  -6.387  0.00  0.00    -0.590 N 
ATOM     22  H   LIG    1       -1.219   5.293  -6.811  0.00  0.00    +0.420 HD
ATOM     23  C   LIG    1       -0.387   3.375  -6.850  0.00  0.00    +0.090 A 
ATOM     24  C   LIG    1        0.452   3.213  -7.948  0.00  0.00    -0.010 A 
ATOM     25  C   LIG    1        1.096   2.011  -8.146  0.00  0.00    +0.020 A 
ATOM     26  C   LIG    1        0.917   0.958  -7.261  0.00  0.00    -0.030 A 
ATOM     27  C   LIG    1        0.098   1.095  -6.175  0.00  0.00    +0.050 A 
ATOM     28  C   LIG    1       -0.560   2.306  -5.952  0.00  0.00    -0.090 A 
ENDBRANCH  18  19
ENDBRANCH   2  18
TORSDOF 3
