REMARK  Name = ZINCrD0000074vZE.0
REMARK                            x       y       z     vdW  Elec       q    Type
REMARK                         _______ _______ _______ _____ _____    ______ ____
ROOT
ATOM      1  N   LIG    1        0.845  -1.952  -1.215  0.00  0.00    -0.700 N 
ATOM      2  H   LIG    1        1.623  -2.395  -0.842  0.00  0.00    +0.410 HD
ATOM      3  C   LIG    1       -0.169  -2.684  -1.720  0.00  0.00    +0.580 C 
ATOM      4  O   LIG    1       -1.143  -2.129  -2.188  0.00  0.00    -0.520 OA
ENDROOT
BRANCH   3   5
ATOM      5  C   LIG    1       -0.094  -4.165  -1.705  0.00  0.00    +0.130 A 
ATOM      6  N   LIG    1        0.972  -4.750  -1.194  0.00  0.00    -0.440 NA
ATOM      7  C   LIG    1        1.083  -6.078  -1.159  0.00  0.00    +0.130 A 
ATOM      8  C   LIG    1        2.223  -6.696  -0.612  0.00  0.00    +0.060 A 
ATOM      9  C   LIG    1        2.310  -8.053  -0.589  0.00  0.00    +0.050 A 
ATOM     10  C   LIG    1        1.286  -8.848  -1.100  0.00  0.00    +0.040 A 
ATOM     11  C   LIG    1        0.167  -8.288  -1.637  0.00  0.00    +0.040 A 
ATOM     12  C   LIG    1        0.042  -6.891  -1.679  0.00  0.00    -0.080 A 
ATOM     13  C   LIG    1       -1.100  -6.275  -2.228  0.00  0.00    +0.020 A 
ATOM     14 CL   LIG    1       -2.401  -7.224  -2.876  0.00  0.00    -0.030 Cl
ATOM     15  C   LIG    1       -1.160  -4.909  -2.230  0.00  0.00    +0.040 A 
ENDBRANCH   3   5
BRANCH   1  20
ATOM     16  N   LIG    1        2.112   1.560  -1.198  0.00  0.00    -0.470 N 
ATOM     17  C   LIG    1        1.419   2.052  -0.001  0.00  0.00    +0.190 C 
ATOM     18  C   LIG    1       -0.019   1.527   0.010  0.00  0.00    +0.050 C 
ATOM     19  C   LIG    1        0.002  -0.004   0.002  0.00  0.00    +0.020 C 
ATOM     20  C   LIG    1        0.771  -0.489  -1.230  0.00  0.00    +0.250 C 
ATOM     21  C   LIG    1        2.186   0.094  -1.205  0.00  0.00    +0.220 C 
BRANCH  16  26
ATOM     22  C   LIG    1        7.055   2.077  -1.628  0.00  0.00    +0.160 C 
ATOM     23  C   LIG    1        5.586   2.387  -1.500  0.00  0.00    +0.090 A 
ATOM     24  N   LIG    1        5.056   3.582  -1.454  0.00  0.00    -0.300 NA
ATOM     25  N   LIG    1        3.667   3.446  -1.338  0.00  0.00    -0.380 N 
ATOM     26  C   LIG    1        3.380   2.124  -1.308  0.00  0.00    +0.280 A 
ATOM     27  C   LIG    1        2.696   4.541  -1.260  0.00  0.00    +0.350 C 
ATOM     28  C   LIG    1        4.556   1.446  -1.410  0.00  0.00    -0.160 A 
ENDBRANCH  16  26
ENDBRANCH   1  20
TORSDOF 3
