REMARK  Name = ZINCpe00000VVGMI.0
REMARK                            x       y       z     vdW  Elec       q    Type
REMARK                         _______ _______ _______ _____ _____    ______ ____
ROOT
ATOM      1  C   LIG    1       -1.033   2.143   2.346  0.00  0.00    +0.370 C 
ATOM      2  O   LIG    1       -0.045   2.795   2.586  0.00  0.00    -0.380 OA
ENDROOT
BRANCH   1   8
ATOM      3  C   LIG    1       -3.114   4.888  -0.995  0.00  0.00    +0.530 C 
ATOM      4  N   LIG    1       -2.954   4.674   0.326  0.00  0.00    -0.610 N 
ATOM      5  C   LIG    1       -3.961   5.144   1.288  0.00  0.00    +0.270 C 
ATOM      6  C   LIG    1       -4.398   3.964   2.161  0.00  0.00    +0.040 C 
ATOM      7  C   LIG    1       -3.164   3.327   2.805  0.00  0.00    +0.040 C 
ATOM      8  C   LIG    1       -2.232   2.800   1.712  0.00  0.00    -0.030 C 
ATOM      9  C   LIG    1       -1.771   3.966   0.833  0.00  0.00    +0.300 C 
ATOM     10  O   LIG    1       -2.235   4.577  -1.770  0.00  0.00    -0.530 OA
BRANCH   3  12
ATOM     11  C   LIG    1       -4.329   5.602  -3.035  0.00  0.00    +0.050 C 
ATOM     12  C   LIG    1       -4.385   5.513  -1.509  0.00  0.00    -0.090 C 
ATOM     13  C   LIG    1       -4.536   6.918  -0.922  0.00  0.00    +0.040 C 
ATOM     14  C   LIG    1       -5.581   4.654  -1.092  0.00  0.00    +0.040 C 
ENDBRANCH   3  12
ENDBRANCH   1   8
BRANCH   1  15
ATOM     15  C   LIG    1       -1.065   0.673   2.676  0.00  0.00    +0.100 C 
BRANCH  15  16
ATOM     16  C   LIG    1        0.342   0.133   2.699  0.00  0.00    +0.530 C 
ATOM     17  N   LIG    1        0.559  -1.169   2.974  0.00  0.00    -0.610 N 
ATOM     18  C   LIG    1       -0.560  -2.079   3.261  0.00  0.00    +0.250 C 
ATOM     19  C   LIG    1       -0.408  -3.322   2.368  0.00  0.00    +0.220 C 
ATOM     20  O   LIG    1        0.906  -3.860   2.533  0.00  0.00    -0.380 OA
ATOM     21  C   LIG    1        1.955  -2.978   2.127  0.00  0.00    +0.220 C 
ATOM     22  C   LIG    1        1.923  -1.719   3.001  0.00  0.00    +0.270 C 
ATOM     23  O   LIG    1        1.278   0.869   2.470  0.00  0.00    -0.480 OA
ENDBRANCH  15  16
BRANCH  15  24
ATOM     24  C   LIG    1       -1.686   0.480   3.997  0.00  0.00    +0.200 C 
ATOM     25  N   LIG    1       -2.165   0.331   5.016  0.00  0.00    -0.370 NA
ENDBRANCH  15  24
ENDBRANCH   1  15
TORSDOF 5
