REMARK  Name = ZINCpe00000VSJCd.2
REMARK                            x       y       z     vdW  Elec       q    Type
REMARK                         _______ _______ _______ _____ _____    ______ ____
ROOT
ATOM      1  C   LIG    1       -0.156   2.415   4.586  0.00  0.00    +0.270 C 
ATOM      2  C   LIG    1       -1.151   1.787   3.610  0.00  0.00    +0.280 C 
ATOM      3  N   LIG    1       -0.410   1.287   2.441  0.00  0.00    -0.610 N 
ATOM      4  C   LIG    1        0.765   0.433   2.681  0.00  0.00    +0.260 C 
ATOM      5  C   LIG    1        1.669   1.131   3.703  0.00  0.00    +0.240 C 
ATOM      6  C   LIG    1       -0.792   1.605   1.189  0.00  0.00    +0.530 C 
ATOM      7  O   LIG    1       -1.763   2.310   1.012  0.00  0.00    -0.520 OA
ATOM      8  O   LIG    1        0.896   1.484   4.852  0.00  0.00    -0.380 OA
ENDROOT
BRANCH   1  13
ATOM      9  C   LIG    1       -1.913   3.873   7.397  0.00  0.00    +0.240 A 
ATOM     10  N   LIG    1       -1.760   2.668   7.880  0.00  0.00    -0.300 NA
ATOM     11  N   LIG    1       -1.081   1.923   6.901  0.00  0.00    -0.460 N 
ATOM     12  H   LIG    1       -0.822   0.990   6.957  0.00  0.00    +0.440 HD
ATOM     13  C   LIG    1       -0.860   2.760   5.873  0.00  0.00    +0.290 A 
ATOM     14  N   LIG    1       -1.367   3.926   6.183  0.00  0.00    -0.520 NA
BRANCH   9  16
ATOM     15  C   LIG    1       -4.047   4.640   8.402  0.00  0.00    +0.050 C 
ATOM     16  C   LIG    1       -2.595   5.018   8.101  0.00  0.00    +0.100 C 
ATOM     17  C   LIG    1       -1.865   5.318   9.412  0.00  0.00    +0.050 C 
ENDBRANCH   9  16
ENDBRANCH   1  13
BRANCH   6  18
ATOM     18  C   LIG    1       -0.013   1.086   0.008  0.00  0.00    +0.000 C 
ATOM     19  C   LIG    1        1.423   1.659  -0.003  0.00  0.00    +0.080 C 
ATOM     20  C   LIG    1        1.326   2.888  -0.879  0.00  0.00    +0.520 C 
ATOM     21  N   LIG    1        0.192   2.853  -1.600  0.00  0.00    -0.590 N 
ATOM     22  O   LIG    1        2.151   3.776  -0.925  0.00  0.00    -0.520 OA
ATOM     23  C   LIG    1       -0.582   1.638  -1.317  0.00  0.00    +0.310 C 
BRANCH  21  24
ATOM     24  C   LIG    1       -0.219   3.893  -2.546  0.00  0.00    +0.210 C 
ATOM     25  C   LIG    1        0.796   4.990  -2.875  0.00  0.00    +0.040 C 
ATOM     26  C   LIG    1       -0.417   5.308  -1.997  0.00  0.00    +0.000 C 
ENDBRANCH  21  24
ENDBRANCH   6  18
TORSDOF 4
