REMARK  Name = ZINCpe00000VSJCd.0
REMARK                            x       y       z     vdW  Elec       q    Type
REMARK                         _______ _______ _______ _____ _____    ______ ____
ROOT
ATOM      1  C   LIG    1        1.216  -1.781  -1.142  0.00  0.00    +0.270 C 
ATOM      2  C   LIG    1        1.274  -0.744  -0.014  0.00  0.00    +0.300 C 
ATOM      3  N   LIG    1        0.002  -0.004   0.002  0.00  0.00    -0.610 N 
ATOM      4  C   LIG    1       -1.249  -0.779   0.016  0.00  0.00    +0.250 C 
ATOM      5  C   LIG    1       -1.184  -1.814  -1.119  0.00  0.00    +0.240 C 
ATOM      6  C   LIG    1       -0.016   1.344   0.009  0.00  0.00    +0.530 C 
ATOM      7  O   LIG    1        1.026   1.964   0.003  0.00  0.00    -0.520 OA
ATOM      8  O   LIG    1        0.027  -2.563  -1.001  0.00  0.00    -0.380 OA
ENDROOT
BRANCH   1  12
ATOM      9  C   LIG    1        3.711  -4.414  -0.931  0.00  0.00    +0.190 A 
ATOM     10  N   LIG    1        4.437  -3.330  -0.977  0.00  0.00    -0.290 NA
ATOM     11  N   LIG    1        3.671  -2.300  -1.054  0.00  0.00    -0.270 NA
ATOM     12  C   LIG    1        2.422  -2.680  -1.062  0.00  0.00    +0.180 A 
ATOM     13  N   LIG    1        2.412  -4.032  -0.979  0.00  0.00    -0.560 N 
ATOM     14  H   LIG    1        1.633  -4.610  -0.960  0.00  0.00    +0.430 HD
BRANCH   9  16
ATOM     15  C   LIG    1        4.245  -6.267   0.628  0.00  0.00    +0.040 C 
ATOM     16  C   LIG    1        4.224  -5.828  -0.838  0.00  0.00    +0.100 C 
ATOM     17  C   LIG    1        3.306  -6.757  -1.635  0.00  0.00    +0.040 C 
ENDBRANCH   9  16
ENDBRANCH   1  12
BRANCH   6  18
ATOM     18  C   LIG    1       -1.331   2.079   0.020  0.00  0.00    +0.000 C 
ATOM     19  C   LIG    1       -2.089   1.877  -1.313  0.00  0.00    +0.070 C 
ATOM     20  C   LIG    1       -2.747   3.214  -1.573  0.00  0.00    +0.520 C 
ATOM     21  N   LIG    1       -2.183   4.163  -0.806  0.00  0.00    -0.590 N 
ATOM     22  O   LIG    1       -3.652   3.402  -2.358  0.00  0.00    -0.520 OA
ATOM     23  C   LIG    1       -1.110   3.608   0.027  0.00  0.00    +0.310 C 
BRANCH  21  24
ATOM     24  C   LIG    1       -2.588   5.571  -0.802  0.00  0.00    +0.210 C 
ATOM     25  C   LIG    1       -3.853   5.945  -1.577  0.00  0.00    +0.040 C 
ATOM     26  C   LIG    1       -2.478   6.341  -2.119  0.00  0.00    +0.000 C 
ENDBRANCH  21  24
ENDBRANCH   6  18
TORSDOF 4
