REMARK  Name = ZINCpe00000VSJCd.1
REMARK                            x       y       z     vdW  Elec       q    Type
REMARK                         _______ _______ _______ _____ _____    ______ ____
ROOT
ATOM      1  C   LIG    1       -4.209   2.394  -1.845  0.00  0.00    +0.270 C 
ATOM      2  C   LIG    1       -2.916   1.791  -2.407  0.00  0.00    +0.280 C 
ATOM      3  N   LIG    1       -2.113   1.284  -1.283  0.00  0.00    -0.610 N 
ATOM      4  C   LIG    1       -2.769   0.397  -0.309  0.00  0.00    +0.250 C 
ATOM      5  C   LIG    1       -4.070   1.072   0.154  0.00  0.00    +0.230 C 
ATOM      6  C   LIG    1       -0.814   1.618  -1.152  0.00  0.00    +0.530 C 
ATOM      7  O   LIG    1       -0.290   2.347  -1.968  0.00  0.00    -0.520 OA
ATOM      8  O   LIG    1       -4.843   1.437  -0.993  0.00  0.00    -0.360 OA
ENDROOT
BRANCH   1  11
ATOM      9  C   LIG    1       -6.224   3.936  -4.420  0.00  0.00    +0.300 A 
ATOM     10  N   LIG    1       -5.378   3.982  -3.423  0.00  0.00    -0.530 NA
ATOM     11  C   LIG    1       -5.134   2.749  -2.980  0.00  0.00    +0.230 A 
ATOM     12  N   LIG    1       -5.831   1.899  -3.686  0.00  0.00    -0.280 NA
ATOM     13  N   LIG    1       -6.550   2.649  -4.631  0.00  0.00    -0.480 N 
ATOM     14  H   LIG    1       -7.161   2.307  -5.302  0.00  0.00    +0.440 HD
BRANCH   9  16
ATOM     15  C   LIG    1       -6.949   4.725  -6.656  0.00  0.00    +0.040 C 
ATOM     16  C   LIG    1       -6.748   5.120  -5.192  0.00  0.00    +0.090 C 
ATOM     17  C   LIG    1       -8.084   5.566  -4.596  0.00  0.00    +0.060 C 
ENDBRANCH   9  16
ENDBRANCH   1  11
BRANCH   6  18
ATOM     18  C   LIG    1       -0.013   1.086   0.008  0.00  0.00    +0.000 C 
ATOM     19  C   LIG    1       -0.557   1.625   1.351  0.00  0.00    +0.080 C 
ATOM     20  C   LIG    1        0.681   1.849   2.190  0.00  0.00    +0.520 C 
ATOM     21  N   LIG    1        1.774   1.858   1.408  0.00  0.00    -0.590 N 
ATOM     22  O   LIG    1        0.688   1.998   3.394  0.00  0.00    -0.520 OA
ATOM     23  C   LIG    1        1.422   1.658  -0.003  0.00  0.00    +0.310 C 
BRANCH  21  24
ATOM     24  C   LIG    1        3.142   2.042   1.900  0.00  0.00    +0.210 C 
ATOM     25  C   LIG    1        3.354   2.035   3.416  0.00  0.00    +0.040 C 
ATOM     26  C   LIG    1        3.458   3.347   2.634  0.00  0.00    +0.000 C 
ENDBRANCH  21  24
ENDBRANCH   6  18
TORSDOF 4
