REMARK  Name = ZINCpe000000YT4v.0
REMARK                            x       y       z     vdW  Elec       q    Type
REMARK                         _______ _______ _______ _____ _____    ______ ____
ROOT
ATOM      1  O   LIG    1        4.911  -5.672   0.630  0.00  0.00    -0.530 OA
ATOM      2  C   LIG    1        4.452  -5.037   1.556  0.00  0.00    +0.500 C 
ATOM      3  N   LIG    1        3.800  -3.881   1.322  0.00  0.00    -0.720 N 
ATOM      4  H   LIG    1        3.433  -3.373   2.062  0.00  0.00    +0.400 HD
ENDROOT
BRANCH   3   5
ATOM      5  C   LIG    1        3.645  -3.391  -0.050  0.00  0.00    +0.390 C 
BRANCH   5   6
ATOM      6  C   LIG    1        2.885  -2.090  -0.037  0.00  0.00    +0.040 A 
ATOM      7  C   LIG    1        3.434  -0.856  -0.035  0.00  0.00    +0.120 A 
ATOM      8  N   LIG    1        2.405   0.045  -0.021  0.00  0.00    -0.360 N 
ATOM      9  C   LIG    1        2.372   1.409  -0.013  0.00  0.00    +0.220 A 
ATOM     10  C   LIG    1        1.194   2.068   0.002  0.00  0.00    +0.010 A 
ATOM     11  C   LIG    1       -0.016   1.356   0.009  0.00  0.00    +0.050 A 
ATOM     12  C   LIG    1        0.002  -0.004   0.002  0.00  0.00    +0.070 A 
ATOM     13  C   LIG    1        1.240  -0.678  -0.013  0.00  0.00    +0.230 A 
ATOM     14  N   LIG    1        1.556  -1.965  -0.023  0.00  0.00    -0.480 NA
ENDBRANCH   5   6
ENDBRANCH   3   5
BRANCH   2  15
ATOM     15  C   LIG    1        4.612  -5.540   2.967  0.00  0.00    +0.360 C 
BRANCH  15  16
ATOM     16  N   LIG    1        5.351  -6.805   2.954  0.00  0.00    -0.560 N 
ATOM     17  C   LIG    1        4.777  -8.011   2.862  0.00  0.00    +0.710 C 
ATOM     18  N   LIG    1        5.681  -9.012   2.867  0.00  0.00    -0.710 N 
ATOM     19  H   LIG    1        5.497  -9.963   2.808  0.00  0.00    +0.440 HD
ATOM     20  C   LIG    1        6.994  -8.376   2.986  0.00  0.00    +0.120 C 
ATOM     21  C   LIG    1        7.720  -8.837   4.257  0.00  0.00    +0.060 C 
ATOM     22  C   LIG    1        8.694  -9.935   3.755  0.00  0.00    +0.030 C 
ATOM     23  C   LIG    1        9.156  -9.384   2.382  0.00  0.00    +0.040 C 
ATOM     24  C   LIG    1        7.891  -8.719   1.794  0.00  0.00    +0.050 C 
ATOM     25  O   LIG    1        3.577  -8.185   2.780  0.00  0.00    -0.540 OA
ATOM     26  C   LIG    1        6.695  -6.899   3.039  0.00  0.00    +0.540 C 
ATOM     27  O   LIG    1        7.492  -5.991   3.136  0.00  0.00    -0.460 OA
ENDBRANCH  15  16
ENDBRANCH   2  15
TORSDOF 4
