REMARK  Name = ZINCpk00000xIdUc.0
REMARK                            x       y       z     vdW  Elec       q    Type
REMARK                         _______ _______ _______ _____ _____    ______ ____
ROOT
ATOM      1  N   LIG    1       -1.201  -0.723   0.009  0.00  0.00    -0.660 N 
ATOM      2  H   LIG    1       -2.045  -0.255   0.100  0.00  0.00    +0.420 HD
ATOM      3  C   LIG    1       -1.183  -2.066  -0.100  0.00  0.00    +0.520 C 
ATOM      4  O   LIG    1       -0.126  -2.660  -0.113  0.00  0.00    -0.520 OA
ENDROOT
BRANCH   1  11
ATOM      5  C   LIG    1        0.074   1.250   0.595  0.00  0.00    +0.090 A 
ATOM      6  C   LIG    1        1.265   1.957   0.573  0.00  0.00    -0.050 A 
ATOM      7  C   LIG    1        2.378   1.419  -0.046  0.00  0.00    +0.030 A 
ATOM      8  C   LIG    1        2.306   0.176  -0.646  0.00  0.00    -0.100 A 
ATOM      9  C   LIG    1        1.122  -0.536  -0.629  0.00  0.00    +0.050 A 
ATOM     10  C   LIG    1        3.523  -0.405  -1.321  0.00  0.00    +0.100 C 
ATOM     11  C   LIG    1        0.001  -0.003  -0.009  0.00  0.00    +0.120 A 
BRANCH   5  13
ATOM     12  C   LIG    1       -0.874   3.069   1.798  0.00  0.00    +0.250 C 
ATOM     13  O   LIG    1       -1.022   1.780   1.200  0.00  0.00    -0.320 OA
ENDBRANCH   5  13
ENDBRANCH   1  11
BRANCH   3  14
ATOM     14  C   LIG    1       -2.478  -2.830  -0.206  0.00  0.00    +0.100 C 
BRANCH  14  15
ATOM     15  C   LIG    1       -2.180  -4.327  -0.318  0.00  0.00    +0.080 C 
BRANCH  15  16
ATOM     16  C   LIG    1       -3.474  -5.091  -0.424  0.00  0.00    +0.520 C 
ATOM     17  N   LIG    1       -3.457  -6.434  -0.533  0.00  0.00    -0.620 N 
ATOM     18  C   LIG    1       -2.183  -7.166  -0.556  0.00  0.00    +0.270 C 
ATOM     19  C   LIG    1       -2.211  -8.224   0.560  0.00  0.00    +0.270 C 
ATOM     20  N   LIG    1       -3.465  -8.982   0.456  0.00  0.00    -0.620 N 
ATOM     21  C   LIG    1       -4.739  -8.249   0.474  0.00  0.00    +0.280 C 
ATOM     22  C   LIG    1       -3.448 -10.325   0.346  0.00  0.00    +0.510 C 
ATOM     23  O   LIG    1       -4.490 -10.940   0.261  0.00  0.00    -0.540 OA
ATOM     24  C   LIG    1       -2.134 -11.063   0.330  0.00  0.00    +0.090 C 
ATOM     25  C   LIG    1       -4.712  -7.192  -0.637  0.00  0.00    +0.280 C 
ATOM     26  O   LIG    1       -4.532  -4.497  -0.411  0.00  0.00    -0.540 OA
ENDBRANCH  15  16
ENDBRANCH  14  15
ENDBRANCH   3  14
TORSDOF 5
