REMARK  Name = ZINCvU0000000HdZ.0
REMARK                            x       y       z     vdW  Elec       q    Type
REMARK                         _______ _______ _______ _____ _____    ______ ____
ROOT
ATOM      1  C   LIG    1        1.407   3.555  -0.085  0.00  0.00    +0.470 C 
ATOM      2  O   LIG    1        0.355   4.149  -0.116  0.00  0.00    -0.500 OA
ENDROOT
BRANCH   1   3
ATOM      3  C   LIG    1        1.422   2.049  -0.038  0.00  0.00    +0.030 C 
ATOM      4  C   LIG    1       -0.016   1.523  -0.039  0.00  0.00    +0.070 C 
ATOM      5  C   LIG    1        0.006  -0.007  -0.053  0.00  0.00    +0.230 C 
ATOM      6  N   LIG    1        0.718  -0.477  -1.248  0.00  0.00    -0.480 N 
ATOM      7  C   LIG    1        2.115  -0.024  -1.245  0.00  0.00    +0.220 C 
ATOM      8  C   LIG    1        2.156   1.506  -1.267  0.00  0.00    +0.070 C 
BRANCH   6   9
ATOM      9  C   LIG    1        0.644  -1.861  -1.360  0.00  0.00    +0.340 A 
ATOM     10  C   LIG    1        1.260  -2.499  -2.431  0.00  0.00    -0.040 A 
ATOM     11  C   LIG    1        1.178  -3.876  -2.531  0.00  0.00    +0.150 A 
ATOM     12  C   LIG    1        0.481  -4.571  -1.552  0.00  0.00    -0.270 A 
ATOM     13  C   LIG    1       -0.106  -3.873  -0.516  0.00  0.00    +0.360 A 
ATOM     14  N   LIG    1       -0.008  -2.559  -0.444  0.00  0.00    -0.520 NA
BRANCH  12  15
ATOM     15  C   LIG    1        0.366  -6.072  -1.620  0.00  0.00    +0.520 C 
ATOM     16  F   LIG    1        0.391  -6.482  -2.957  0.00  0.00    -0.180 F 
ATOM     17  F   LIG    1       -0.837  -6.475  -1.031  0.00  0.00    -0.170 F 
ATOM     18  F   LIG    1        1.439  -6.653  -0.934  0.00  0.00    -0.180 F 
ENDBRANCH  12  15
ENDBRANCH   6   9
ENDBRANCH   1   3
BRANCH   1  19
ATOM     19  O   LIG    1        2.563   4.238  -0.093  0.00  0.00    -0.330 OA
BRANCH  19  20
ATOM     20  C   LIG    1        2.473   5.686  -0.139  0.00  0.00    +0.270 C 
BRANCH  20  22
ATOM     21  O   LIG    1        4.829   5.548  -0.106  0.00  0.00    -0.490 OA
ATOM     22  C   LIG    1        3.860   6.276  -0.141  0.00  0.00    +0.520 C 
ATOM     23  N   LIG    1        4.023   7.613  -0.180  0.00  0.00    -0.670 N 
ATOM     24  H   LIG    1        3.252   8.194  -0.273  0.00  0.00    +0.420 HD
BRANCH  23  25
ATOM     25  C   LIG    1        5.306   8.165  -0.087  0.00  0.00    +0.190 A 
ATOM     26  C   LIG    1        6.390   7.504  -0.650  0.00  0.00    +0.050 A 
ATOM     27  C   LIG    1        7.654   8.053  -0.562  0.00  0.00    +0.100 A 
ATOM     28  C   LIG    1        7.844   9.255   0.097  0.00  0.00    -0.100 A 
ATOM     29  C   LIG    1        6.767   9.913   0.664  0.00  0.00    +0.110 A 
ATOM     30 BR   LIG    1        9.578   9.999   0.221  0.00  0.00    -0.030 Br
ATOM     31  C   LIG    1        5.500   9.372   0.574  0.00  0.00    -0.120 A 
ATOM     32 BR   LIG    1        4.029  10.272   1.350  0.00  0.00    -0.030 Br
ENDBRANCH  23  25
ENDBRANCH  20  22
ENDBRANCH  19  20
ENDBRANCH   1  19
TORSDOF 7
