REMARK  Name = ZINCpe00000VVGa5.0
REMARK                            x       y       z     vdW  Elec       q    Type
REMARK                         _______ _______ _______ _____ _____    ______ ____
ROOT
ATOM      1  C   LIG    1        3.552   8.666  -2.987  0.00  0.00    +0.340 C 
ATOM      2  C   LIG    1        4.342   9.975  -2.777  0.00  0.00    +0.060 C 
ATOM      3  C   LIG    1        4.933   9.800  -1.353  0.00  0.00    +0.050 C 
ATOM      4  C   LIG    1        3.788   9.038  -0.635  0.00  0.00    +0.260 C 
ATOM      5  N   LIG    1        3.251   8.120  -1.656  0.00  0.00    -0.610 N 
ATOM      6  C   LIG    1        2.590   6.972  -1.409  0.00  0.00    +0.520 C 
ATOM      7  O   LIG    1        2.186   6.294  -2.330  0.00  0.00    -0.510 OA
ENDROOT
BRANCH   1  10
ATOM      8  C   LIG    1        0.783   9.080  -5.225  0.00  0.00    +0.180 A 
ATOM      9  N   LIG    1        2.003   8.652  -5.007  0.00  0.00    -0.470 NA
ATOM     10  C   LIG    1        2.269   8.955  -3.724  0.00  0.00    +0.170 A 
ATOM     11  N   LIG    1        1.219   9.547  -3.238  0.00  0.00    -0.370 NA
ATOM     12  O   LIG    1        0.354   9.628  -4.084  0.00  0.00    +0.080 OA
BRANCH   8  14
ATOM     13  C   LIG    1       -0.774   7.665  -6.538  0.00  0.00    +0.050 C 
ATOM     14  C   LIG    1        0.013   8.977  -6.516  0.00  0.00    +0.180 C 
ENDBRANCH   8  14
ENDBRANCH   1  10
BRANCH   6  15
ATOM     15  C   LIG    1        2.351   6.530   0.012  0.00  0.00    +0.410 C 
BRANCH  15  16
ATOM     16  N   LIG    1        1.617   5.262   0.013  0.00  0.00    -0.420 N 
ATOM     17  N   LIG    1        0.223   5.112   0.025  0.00  0.00    -0.280 NA
ATOM     18  C   LIG    1       -0.044   3.827   0.022  0.00  0.00    +0.300 A 
ATOM     19  C   LIG    1       -1.269   3.113   0.030  0.00  0.00    +0.040 A 
ATOM     20  C   LIG    1       -1.247   1.758   0.018  0.00  0.00    +0.110 A 
ATOM     21  C   LIG    1       -0.013   1.076   0.008  0.00  0.00    -0.020 A 
ATOM     22  C   LIG    1        1.146   1.758   0.001  0.00  0.00    +0.300 A 
ATOM     23  N   LIG    1        1.151   3.132   0.007  0.00  0.00    -0.480 N 
ATOM     24  C   LIG    1        2.159   4.027   0.002  0.00  0.00    +0.650 A 
ATOM     25  O   LIG    1        3.350   3.767  -0.011  0.00  0.00    -0.540 OA
ENDBRANCH  15  16
ENDBRANCH   6  15
TORSDOF 4
