REMARK  Name = ZINCpe000000SxAp.0
REMARK                            x       y       z     vdW  Elec       q    Type
REMARK                         _______ _______ _______ _____ _____    ______ ____
ROOT
ATOM      1  C   LIG    1        4.778   0.994  -0.036  0.00  0.00    +0.230 C 
ENDROOT
BRANCH   1   2
ATOM      2  O   LIG    1        4.806   0.259  -1.261  0.00  0.00    -0.540 OA
ATOM      3  H   LIG    1        4.856   0.813  -2.052  0.00  0.00    +0.380 HD
ENDBRANCH   1   2
BRANCH   1   4
ATOM      4  C   LIG    1        6.050   1.837   0.082  0.00  0.00    +0.330 C 
BRANCH   4   7
ATOM      5  C   LIG    1        9.124  -0.001  -0.166  0.00  0.00    -0.040 A 
ATOM      6  C   LIG    1        8.303   0.977  -0.615  0.00  0.00    +0.150 A 
ATOM      7  N   LIG    1        7.213   0.953   0.187  0.00  0.00    -0.280 N 
ATOM      8  N   LIG    1        7.377   0.023   1.062  0.00  0.00    -0.070 NA
ATOM      9  N   LIG    1        8.504  -0.569   0.875  0.00  0.00    -0.250 NA
BRANCH   5  10
ATOM     10  C   LIG    1       10.470  -0.377  -0.729  0.00  0.00    +0.250 C 
ATOM     11  C   LIG    1       10.999  -1.614  -0.001  0.00  0.00    +0.090 C 
BRANCH  10  13
ATOM     12  C   LIG    1       11.997   1.329  -1.577  0.00  0.00    +0.030 C 
ATOM     13  C   LIG    1       11.432   0.768  -0.537  0.00  0.00    -0.060 C 
ENDBRANCH  10  13
BRANCH  10  14
ATOM     14  O   LIG    1       10.341  -0.662  -2.123  0.00  0.00    -0.540 OA
ATOM     15  H   LIG    1       10.010   0.079  -2.647  0.00  0.00    +0.370 HD
ENDBRANCH  10  14
ENDBRANCH   5  10
ENDBRANCH   4   7
ENDBRANCH   1   4
BRANCH   1  16
ATOM     16  C   LIG    1        3.555   1.913  -0.021  0.00  0.00    +0.190 C 
BRANCH  16  17
ATOM     17  O   LIG    1        2.365   1.121  -0.014  0.00  0.00    -0.290 OA
BRANCH  17  18
ATOM     18  C   LIG    1        1.182   1.786   0.000  0.00  0.00    +0.170 A 
ATOM     19  C   LIG    1       -0.013   1.076   0.008  0.00  0.00    -0.020 A 
ATOM     20  C   LIG    1       -1.215   1.747   0.017  0.00  0.00    +0.130 A 
ATOM     21  C   LIG    1       -1.232   3.145   0.029  0.00  0.00    -0.170 A 
ATOM     22  C   LIG    1       -0.029   3.855   0.022  0.00  0.00    +0.130 A 
ATOM     23  C   LIG    1        1.169   3.176   0.007  0.00  0.00    -0.080 A 
BRANCH  21  24
ATOM     24  C   LIG    1       -2.518   3.868   0.044  0.00  0.00    +0.510 C 
ATOM     25  O   LIG    1       -2.531   5.083   0.050  0.00  0.00    -0.510 OA
BRANCH  24  26
ATOM     26  O   LIG    1       -3.677   3.181   0.051  0.00  0.00    -0.360 OA
ATOM     27  C   LIG    1       -4.903   3.958   0.066  0.00  0.00    +0.260 C 
ENDBRANCH  24  26
ENDBRANCH  21  24
ENDBRANCH  17  18
ENDBRANCH  16  17
ENDBRANCH   1  16
TORSDOF 11
