REMARK  Name = ZINCqH0000051dfh.0
REMARK                            x       y       z     vdW  Elec       q    Type
REMARK                         _______ _______ _______ _____ _____    ______ ____
ROOT
ATOM      1  O   LIG    1       -4.563   5.518   1.390  0.00  0.00    -0.500 OA
ATOM      2  C   LIG    1       -5.642   5.129   1.785  0.00  0.00    +0.510 C 
ATOM      3  N   LIG    1       -6.456   5.967   2.458  0.00  0.00    -0.670 N 
ATOM      4  H   LIG    1       -7.345   5.677   2.715  0.00  0.00    +0.420 HD
ENDROOT
BRANCH   3   5
ATOM      5  C   LIG    1       -6.017   7.256   2.786  0.00  0.00    +0.140 A 
ATOM      6  C   LIG    1       -6.417   7.844   3.978  0.00  0.00    +0.100 A 
ATOM      7  C   LIG    1       -5.979   9.113   4.302  0.00  0.00    +0.040 A 
ATOM      8  C   LIG    1       -5.151   9.803   3.434  0.00  0.00    +0.160 A 
ATOM      9  C   LIG    1       -4.755   9.221   2.241  0.00  0.00    -0.060 A 
ATOM     10  F   LIG    1       -4.727  11.047   3.750  0.00  0.00    -0.100 F 
ATOM     11  C   LIG    1       -5.186   7.950   1.916  0.00  0.00    +0.140 A 
BRANCH   9  12
ATOM     12  N   LIG    1       -3.869   9.961   1.315  0.00  0.00    +0.030 N 
ATOM     13  O   LIG    1       -3.489  11.082   1.601  0.00  0.00    -0.140 OA
ATOM     14  O   LIG    1       -3.521   9.449   0.266  0.00  0.00    -0.150 OA
ENDBRANCH   9  12
ENDBRANCH   3   5
BRANCH   2  15
ATOM     15  C   LIG    1       -6.073   3.709   1.523  0.00  0.00    +0.150 C 
BRANCH  15  16
ATOM     16  C   LIG    1       -4.992   2.989   0.760  0.00  0.00    -0.060 A 
ATOM     17  C   LIG    1       -4.999   3.002  -0.622  0.00  0.00    +0.050 A 
ATOM     18  C   LIG    1       -4.009   2.342  -1.331  0.00  0.00    -0.030 A 
ATOM     19  C   LIG    1       -3.010   1.668  -0.648  0.00  0.00    +0.080 A 
ATOM     20  O   LIG    1       -2.029   1.012  -1.333  0.00  0.00    -0.310 OA
ATOM     21  C   LIG    1       -0.716   1.568  -1.230  0.00  0.00    +0.230 C 
ATOM     22  C   LIG    1       -0.017   1.071   0.026  0.00  0.00    -0.010 C 
ATOM     23  C   LIG    1       -0.706   1.545   1.296  0.00  0.00    +0.230 C 
ATOM     24  O   LIG    1       -2.015   0.988   1.403  0.00  0.00    -0.310 OA
ATOM     25  C   LIG    1       -3.003   1.655   0.740  0.00  0.00    +0.080 A 
ATOM     26 CL   LIG    1       -4.020   2.359  -3.067  0.00  0.00    -0.040 Cl
ATOM     27  C   LIG    1       -3.995   2.316   1.444  0.00  0.00    +0.040 A 
ENDBRANCH  15  16
ENDBRANCH   2  15
TORSDOF 4
