REMARK  Name = ZINCvU0000000Ce2.0
REMARK                            x       y       z     vdW  Elec       q    Type
REMARK                         _______ _______ _______ _____ _____    ______ ____
ROOT
ATOM      1  N   LIG    1       -3.302  -5.082   0.255  0.00  0.00    -0.660 N 
ATOM      2  H   LIG    1       -4.163  -4.642   0.175  0.00  0.00    +0.410 HD
ATOM      3  C   LIG    1       -2.167  -4.356   0.203  0.00  0.00    +0.560 C 
ATOM      4  O   LIG    1       -1.087  -4.914   0.227  0.00  0.00    -0.510 OA
ENDROOT
BRANCH   1  12
ATOM      5  N   LIG    1       -3.280 -10.608   1.083  0.00  0.00    -0.540 N 
ATOM      6  C   LIG    1       -4.415 -10.708   1.824  0.00  0.00    +0.570 A 
ATOM      7  C   LIG    1       -4.977  -9.362   1.977  0.00  0.00    -0.160 A 
ATOM      8  C   LIG    1       -6.062  -8.744   2.575  0.00  0.00    +0.130 A 
ATOM      9  C   LIG    1       -6.218  -7.364   2.465  0.00  0.00    +0.010 A 
ATOM     10  C   LIG    1       -5.339  -6.563   1.782  0.00  0.00    +0.070 A 
ATOM     11  C   LIG    1       -4.227  -7.150   1.161  0.00  0.00    -0.040 A 
ATOM     12  C   LIG    1       -3.238  -6.464   0.424  0.00  0.00    +0.140 A 
ATOM     13  C   LIG    1       -2.204  -7.202  -0.132  0.00  0.00    +0.060 A 
ATOM     14  C   LIG    1       -2.095  -8.581   0.015  0.00  0.00    +0.050 A 
ATOM     15  C   LIG    1       -4.083  -8.533   1.280  0.00  0.00    -0.090 A 
ATOM     16  O   LIG    1       -4.883 -11.734   2.281  0.00  0.00    -0.490 OA
ATOM     17  C   LIG    1       -3.049  -9.282   0.732  0.00  0.00    +0.140 A 
BRANCH   5  19
ATOM     18  C   LIG    1       -2.897 -12.312  -0.628  0.00  0.00    +0.030 C 
ATOM     19  C   LIG    1       -2.424 -11.736   0.708  0.00  0.00    +0.290 C 
ENDBRANCH   5  19
ENDBRANCH   1  12
BRANCH   3  20
ATOM     20  C   LIG    1       -2.236  -2.882   0.117  0.00  0.00    -0.120 A 
ATOM     21  C   LIG    1       -3.474  -2.239   0.089  0.00  0.00    +0.050 A 
ATOM     22  C   LIG    1       -3.535  -0.863   0.009  0.00  0.00    +0.030 A 
ATOM     23  C   LIG    1       -2.372  -0.117  -0.045  0.00  0.00    +0.040 A 
ATOM     24  C   LIG    1       -1.135  -0.748  -0.018  0.00  0.00    +0.080 A 
ATOM     25  C   LIG    1       -1.063  -2.129   0.057  0.00  0.00    +0.090 A 
BRANCH  24  26
ATOM     26  O   LIG    1        0.005  -0.010  -0.071  0.00  0.00    -0.260 OA
BRANCH  26  27
ATOM     27  C   LIG    1        0.389   0.652   1.052  0.00  0.00    +0.120 A 
ATOM     28  C   LIG    1       -0.427   0.648   2.175  0.00  0.00    -0.070 A 
ATOM     29  C   LIG    1       -0.032   1.318   3.316  0.00  0.00    +0.050 A 
ATOM     30  C   LIG    1        1.171   2.001   3.338  0.00  0.00    -0.020 A 
ATOM     31  C   LIG    1        1.983   2.010   2.219  0.00  0.00    +0.050 A 
ATOM     32  C   LIG    1        1.595   1.337   1.077  0.00  0.00    -0.010 A 
ENDBRANCH  26  27
ENDBRANCH  24  26
ENDBRANCH   3  20
TORSDOF 5
