REMARK  Name = ZINCtV000002OWat.0
REMARK                            x       y       z     vdW  Elec       q    Type
REMARK                         _______ _______ _______ _____ _____    ______ ____
ROOT
ATOM      1  C   LIG    1        7.226  -3.713  -0.197  0.00  0.00    -0.100 A 
ATOM      2  C   LIG    1        7.769  -4.975  -0.437  0.00  0.00    +0.090 A 
ATOM      3  C   LIG    1        6.976  -6.099  -0.330  0.00  0.00    +0.030 A 
ATOM      4  C   LIG    1        5.641  -5.986   0.021  0.00  0.00    +0.060 A 
ATOM      5  C   LIG    1        5.084  -4.747   0.267  0.00  0.00    +0.060 A 
ATOM      6  C   LIG    1        5.868  -3.598   0.165  0.00  0.00    +0.050 A 
ENDROOT
BRANCH   6   7
ATOM      7  C   LIG    1        5.278  -2.272   0.427  0.00  0.00    +0.230 A 
ATOM      8  N   LIG    1        4.235  -1.763  -0.190  0.00  0.00    -0.460 NA
ATOM      9  C   LIG    1        3.986  -0.551   0.312  0.00  0.00    +0.170 A 
ATOM     10  C   LIG    1        4.919  -0.299   1.271  0.00  0.00    +0.010 A 
ATOM     11  O   LIG    1        5.720  -1.385   1.336  0.00  0.00    -0.170 OA
BRANCH  10  12
ATOM     12  C   LIG    1        5.031   0.926   2.089  0.00  0.00    -0.010 A 
ATOM     13  C   LIG    1        6.043   1.041   3.044  0.00  0.00    +0.030 A 
ATOM     14  C   LIG    1        6.142   2.188   3.804  0.00  0.00    +0.010 A 
ATOM     15  C   LIG    1        5.241   3.223   3.622  0.00  0.00    +0.020 A 
ATOM     16  C   LIG    1        4.236   3.115   2.677  0.00  0.00    +0.020 A 
ATOM     17  C   LIG    1        4.125   1.974   1.910  0.00  0.00    +0.030 A 
ENDBRANCH  10  12
ENDBRANCH   6   7
BRANCH   1  19
ATOM     18  O   LIG    1        7.566  -1.405  -0.215  0.00  0.00    -0.480 OA
ATOM     19  C   LIG    1        8.066  -2.507  -0.316  0.00  0.00    +0.510 C 
BRANCH  19  20
ATOM     20  O   LIG    1        9.390  -2.628  -0.537  0.00  0.00    -0.340 OA
BRANCH  20  21
ATOM     21  C   LIG    1       10.156  -1.399  -0.643  0.00  0.00    +0.290 C 
BRANCH  21  22
ATOM     22  C   LIG    1       11.606  -1.730  -0.888  0.00  0.00    -0.130 A 
ATOM     23  C   LIG    1       12.469  -1.896   0.182  0.00  0.00    +0.140 A 
ATOM     24  C   LIG    1       13.799  -2.205  -0.045  0.00  0.00    +0.000 A 
ATOM     25  C   LIG    1       14.268  -2.337  -1.338  0.00  0.00    +0.090 A 
ATOM     26  C   LIG    1       13.407  -2.166  -2.406  0.00  0.00    +0.030 A 
ATOM     27  F   LIG    1       12.011  -1.762   1.446  0.00  0.00    -0.120 F 
ATOM     28  C   LIG    1       12.076  -1.862  -2.182  0.00  0.00    +0.010 A 
ATOM     29 CL   LIG    1       10.997  -1.646  -3.524  0.00  0.00    -0.040 Cl
ENDBRANCH  21  22
ENDBRANCH  20  21
ENDBRANCH  19  20
ENDBRANCH   1  19
TORSDOF 6
