REMARK  Name = ZINCrg00000ba5L5.0
REMARK                            x       y       z     vdW  Elec       q    Type
REMARK                         _______ _______ _______ _____ _____    ______ ____
ROOT
ATOM      1  C   LIG    1       -4.964  -1.197  -3.553  0.00  0.00    +0.200 C 
ENDROOT
BRANCH   1   2
ATOM      2  O   LIG    1       -4.614  -2.565  -3.772  0.00  0.00    -0.550 OA
ATOM      3  H   LIG    1       -4.262  -2.745  -4.654  0.00  0.00    +0.380 HD
ENDBRANCH   1   2
BRANCH   1   4
ATOM      4  C   LIG    1       -3.723  -0.319  -3.731  0.00  0.00    +0.250 C 
BRANCH   4   6
ATOM      5  C   LIG    1       -1.511  -0.083  -2.737  0.00  0.00    +0.520 C 
ATOM      6  N   LIG    1       -2.697  -0.721  -2.765  0.00  0.00    -0.720 N 
ATOM      7  H   LIG    1       -2.872  -1.447  -2.146  0.00  0.00    +0.410 HD
ATOM      8  O   LIG    1       -1.292   0.825  -3.511  0.00  0.00    -0.530 OA
BRANCH   5  10
ATOM      9  C   LIG    1       -0.999  -0.330  -0.324  0.00  0.00    +0.070 C 
ATOM     10  C   LIG    1       -0.456  -0.497  -1.744  0.00  0.00    +0.040 C 
BRANCH  10  11
ATOM     11  C   LIG    1        0.766   0.368  -1.920  0.00  0.00    -0.110 A 
ATOM     12  C   LIG    1        0.673   1.737  -1.757  0.00  0.00    +0.070 A 
ATOM     13  C   LIG    1        1.794   2.530  -1.918  0.00  0.00    +0.000 A 
ATOM     14  C   LIG    1        3.008   1.956  -2.243  0.00  0.00    +0.040 A 
ATOM     15  C   LIG    1        3.104   0.587  -2.406  0.00  0.00    -0.020 A 
ATOM     16  C   LIG    1        1.982  -0.209  -2.245  0.00  0.00    +0.100 A 
ATOM     17  F   LIG    1        2.074  -1.548  -2.405  0.00  0.00    -0.140 F 
ENDBRANCH  10  11
ENDBRANCH   5  10
ENDBRANCH   4   6
ENDBRANCH   1   4
BRANCH   1  18
ATOM     18  C   LIG    1       -6.035  -0.776  -4.561  0.00  0.00    +0.260 C 
BRANCH  18  19
ATOM     19  N   LIG    1       -7.263  -1.535  -4.312  0.00  0.00    -0.710 N 
ATOM     20  H   LIG    1       -7.295  -2.184  -3.593  0.00  0.00    +0.410 HD
ATOM     21  C   LIG    1       -8.350  -1.330  -5.084  0.00  0.00    +0.490 C 
ATOM     22  O   LIG    1       -8.309  -0.518  -5.984  0.00  0.00    -0.480 OA
BRANCH  21  23
ATOM     23  C   LIG    1       -9.613  -2.110  -4.829  0.00  0.00    +0.260 C 
ATOM     24  F   LIG    1       -9.793  -2.268  -3.450  0.00  0.00    -0.190 F 
ATOM     25  F   LIG    1       -9.515  -3.368  -5.433  0.00  0.00    -0.170 F 
BRANCH  23  26
ATOM     26  C   LIG    1      -10.807  -1.353  -5.415  0.00  0.00    +0.080 C 
ATOM     27  C   LIG    1      -12.067  -2.220  -5.574  0.00  0.00    +0.020 C 
ATOM     28  C   LIG    1      -12.295  -1.503  -6.916  0.00  0.00    +0.040 C 
ATOM     29  C   LIG    1      -10.778  -1.252  -6.949  0.00  0.00    +0.080 C 
BRANCH  26  30
ATOM     30  O   LIG    1      -11.047  -0.105  -4.763  0.00  0.00    -0.510 OA
ATOM     31  H   LIG    1      -11.155  -0.176  -3.805  0.00  0.00    +0.380 HD
ENDBRANCH  26  30
ENDBRANCH  23  26
ENDBRANCH  21  23
ENDBRANCH  18  19
ENDBRANCH   1  18
TORSDOF 10
