REMARK  Name = ZINCkj000005hDde.1
REMARK                            x       y       z     vdW  Elec       q    Type
REMARK                         _______ _______ _______ _____ _____    ______ ____
ROOT
ATOM      1  N   LIG    1       -4.001  -1.344   0.052  0.00  0.00    -0.390 N 
ATOM      2  C   LIG    1       -3.887  -0.529  -1.164  0.00  0.00    +0.280 C 
ATOM      3  C   LIG    1       -2.535   0.187  -1.174  0.00  0.00    +0.220 C 
ATOM      4  N   LIG    1       -2.426   1.039   0.019  0.00  0.00    -0.480 N 
ATOM      5  C   LIG    1       -2.564   0.240   1.245  0.00  0.00    +0.210 C 
ATOM      6  C   LIG    1       -3.916  -0.476   1.234  0.00  0.00    +0.270 C 
ATOM      7  H   LIG    1       -3.252  -2.019   0.076  0.00  0.00    +0.420 HD
ENDROOT
BRANCH   4   8
ATOM      8  C   LIG    1       -1.223   1.753   0.017  0.00  0.00    +0.020 A 
ATOM      9  C   LIG    1       -0.013   1.076   0.008  0.00  0.00    +0.010 A 
ATOM     10  C   LIG    1        1.175   1.784   0.000  0.00  0.00    -0.020 A 
ATOM     11  C   LIG    1        1.160   3.166   0.008  0.00  0.00    +0.070 A 
ATOM     12  C   LIG    1       -0.043   3.848   0.024  0.00  0.00    -0.060 A 
ATOM     13  C   LIG    1       -1.237   3.147   0.031  0.00  0.00    +0.160 A 
BRANCH  13  14
ATOM     14  O   LIG    1       -2.421   3.816   0.046  0.00  0.00    -0.300 OA
ATOM     15  C   LIG    1       -2.359   5.244   0.053  0.00  0.00    +0.250 C 
ENDBRANCH  13  14
ENDBRANCH   4   8
BRANCH   1  16
ATOM     16  C   LIG    1       -5.292  -2.046   0.052  0.00  0.00    +0.280 C 
BRANCH  16  17
ATOM     17  C   LIG    1       -5.359  -2.989   1.255  0.00  0.00    +0.110 C 
BRANCH  17  18
ATOM     18  C   LIG    1       -6.683  -3.709   1.255  0.00  0.00    +0.470 C 
ATOM     19  O   LIG    1       -7.490  -3.490   0.383  0.00  0.00    -0.500 OA
BRANCH  18  21
ATOM     20  C   LIG    1       -8.260  -5.249   2.161  0.00  0.00    +0.280 C 
ATOM     21  O   LIG    1       -6.966  -4.594   2.224  0.00  0.00    -0.350 OA
ENDBRANCH  18  21
ENDBRANCH  17  18
ENDBRANCH  16  17
ENDBRANCH   1  16
TORSDOF 6
