REMARK  Name = ZINCrH000004ngZi.0
REMARK                            x       y       z     vdW  Elec       q    Type
REMARK                         _______ _______ _______ _____ _____    ______ ____
ROOT
ATOM      1  C   LIG    1       -1.261  -0.826   0.014  0.00  0.00    +0.180 C 
ENDROOT
BRANCH   1   4
ATOM      2  C   LIG    1        2.219   0.243  -0.026  0.00  0.00    +0.120 A 
ATOM      3  N   LIG    1        1.194  -0.559  -0.019  0.00  0.00    -0.430 NA
ATOM      4  C   LIG    1        0.003  -0.006   0.004  0.00  0.00    +0.080 A 
ATOM      5  C   LIG    1       -0.018   1.331   0.018  0.00  0.00    -0.060 A 
ATOM      6  S   LIG    1        1.647   1.909   0.000  0.00  0.00    +0.100 S 
BRANCH   2  11
ATOM      7  C   LIG    1        5.976   0.380  -0.079  0.00  0.00    +0.130 A 
ATOM      8  C   LIG    1        6.293  -0.972  -0.097  0.00  0.00    -0.060 A 
ATOM      9  C   LIG    1        5.289  -1.923  -0.092  0.00  0.00    +0.050 A 
ATOM     10  C   LIG    1        3.965  -1.534  -0.069  0.00  0.00    +0.040 A 
ATOM     11  C   LIG    1        3.637  -0.177  -0.051  0.00  0.00    +0.010 A 
ATOM     12  C   LIG    1        4.650   0.780  -0.061  0.00  0.00    +0.000 A 
BRANCH   7  14
ATOM     13  C   LIG    1        8.311   0.826  -0.109  0.00  0.00    +0.250 C 
ATOM     14  O   LIG    1        6.967   1.310  -0.084  0.00  0.00    -0.320 OA
ENDBRANCH   7  14
ENDBRANCH   2  11
ENDBRANCH   1   4
BRANCH   1  15
ATOM     15  C   LIG    1       -1.256  -1.771  -1.160  0.00  0.00    +0.520 C 
ATOM     16  N   LIG    1       -2.294  -2.609  -1.355  0.00  0.00    -0.670 N 
ATOM     17  H   LIG    1       -3.012  -2.652  -0.704  0.00  0.00    +0.410 HD
ATOM     18  O   LIG    1       -0.319  -1.778  -1.929  0.00  0.00    -0.490 OA
BRANCH  16  19
ATOM     19  C   LIG    1       -2.335  -3.418  -2.498  0.00  0.00    +0.150 A 
ATOM     20  C   LIG    1       -3.552  -3.704  -3.102  0.00  0.00    +0.000 A 
ATOM     21  C   LIG    1       -3.593  -4.498  -4.232  0.00  0.00    +0.050 A 
ATOM     22  C   LIG    1       -2.422  -5.022  -4.759  0.00  0.00    +0.030 A 
ATOM     23  O   LIG    1       -2.483  -5.811  -5.867  0.00  0.00    -0.310 OA
ATOM     24  C   LIG    1       -1.260  -6.009  -6.584  0.00  0.00    +0.220 C 
ATOM     25  C   LIG    1       -0.157  -6.339  -5.569  0.00  0.00    +0.220 C 
ATOM     26  O   LIG    1       -0.042  -5.241  -4.659  0.00  0.00    -0.300 OA
ATOM     27  C   LIG    1       -1.202  -4.740  -4.153  0.00  0.00    +0.070 A 
ATOM     28  C   LIG    1       -1.161  -3.939  -3.023  0.00  0.00    +0.030 A 
ENDBRANCH  16  19
ENDBRANCH   1  15
TORSDOF 5
