REMARK  Name = ZINCrD000000C1oT.0
REMARK                            x       y       z     vdW  Elec       q    Type
REMARK                         _______ _______ _______ _____ _____    ______ ____
ROOT
ATOM      1  O   LIG    1       -2.292   5.565  -0.053  0.00  0.00    -0.570 OA
ATOM      2  C   LIG    1       -1.246   6.184  -0.055  0.00  0.00    +0.710 C 
ATOM      3  N   LIG    1       -1.258   7.528  -0.149  0.00  0.00    -0.630 N 
ATOM      4  C   LIG    1       -0.004   8.289  -0.263  0.00  0.00    +0.270 C 
ATOM      5  C   LIG    1       -0.123   9.237  -1.466  0.00  0.00    +0.170 C 
ATOM      6  N   LIG    1       -1.334  10.056  -1.320  0.00  0.00    -0.530 NA
ATOM      7  C   LIG    1       -2.545   9.224  -1.338  0.00  0.00    +0.170 C 
ATOM      8  C   LIG    1       -2.526   8.274  -0.135  0.00  0.00    +0.310 C 
ATOM      9  N   LIG    1       -0.073   5.526   0.037  0.00  0.00    -0.690 N 
ATOM     10  H   LIG    1        0.757   6.022   0.112  0.00  0.00    +0.410 HD
ENDROOT
BRANCH   9  11
ATOM     11  C   LIG    1       -0.053   4.124   0.025  0.00  0.00    +0.150 A 
ATOM     12  C   LIG    1       -0.990   3.423  -0.723  0.00  0.00    +0.070 A 
ATOM     13  C   LIG    1       -0.969   2.042  -0.735  0.00  0.00    +0.040 A 
ATOM     14  C   LIG    1       -0.014   1.356  -0.000  0.00  0.00    +0.090 A 
ATOM     15  C   LIG    1        0.919   2.056   0.751  0.00  0.00    -0.030 A 
ATOM     16  C   LIG    1        0.903   3.437   0.759  0.00  0.00    +0.030 A 
BRANCH  14  17
ATOM     17  O   LIG    1        0.006  -0.004  -0.012  0.00  0.00    -0.310 OA
BRANCH  17  18
ATOM     18  C   LIG    1        1.017  -0.645   0.767  0.00  0.00    +0.600 C 
ATOM     19  F   LIG    1        2.279  -0.247   0.312  0.00  0.00    -0.170 F 
ATOM     20  F   LIG    1        0.892  -2.033   0.642  0.00  0.00    -0.130 F 
ATOM     21  F   LIG    1        0.871  -0.283   2.110  0.00  0.00    -0.160 F 
ENDBRANCH  17  18
ENDBRANCH  14  17
ENDBRANCH   9  11
BRANCH   6  22
ATOM     22  C   LIG    1       -1.395  11.096  -2.356  0.00  0.00    +0.240 C 
BRANCH  22  23
ATOM     23  C   LIG    1       -0.266  12.073  -2.153  0.00  0.00    -0.130 A 
ATOM     24  C   LIG    1        0.960  11.866  -2.765  0.00  0.00    +0.060 A 
ATOM     25  C   LIG    1        1.970  12.792  -2.550  0.00  0.00    -0.030 A 
ATOM     26  C   LIG    1        1.721  13.883  -1.739  0.00  0.00    +0.260 A 
ATOM     27  N   LIG    1        0.542  14.048  -1.173  0.00  0.00    -0.480 NA
ATOM     28  C   LIG    1       -0.443  13.191  -1.359  0.00  0.00    +0.280 A 
ENDBRANCH  22  23
ENDBRANCH   6  22
TORSDOF 5
