REMARK  Name = ZINCnE000004Rhkm.0
REMARK                            x       y       z     vdW  Elec       q    Type
REMARK                         _______ _______ _______ _____ _____    ______ ____
ROOT
ATOM      1  C   LIG    1        3.416   3.592  -0.011  0.00  0.00    +0.290 C 
ENDROOT
BRANCH   1   2
ATOM      2  C   LIG    1        4.843   4.143  -0.022  0.00  0.00    -0.070 C 
ATOM      3  C   LIG    1        5.590   3.648   1.218  0.00  0.00    +0.040 C 
ATOM      4  C   LIG    1        7.018   4.199   1.207  0.00  0.00    +0.050 C 
ATOM      5  C   LIG    1        7.221   5.062  -0.040  0.00  0.00    -0.100 C 
ATOM      6  C   LIG    1        6.994   4.213  -1.291  0.00  0.00    +0.050 C 
ATOM      7  C   LIG    1        6.226   6.224  -0.024  0.00  0.00    +0.050 C 
ATOM      8  C   LIG    1        5.567   3.661  -1.281  0.00  0.00    +0.040 C 
ATOM      9  C   LIG    1        4.799   5.673  -0.013  0.00  0.00    +0.040 C 
BRANCH   5  10
ATOM     10  C   LIG    1        8.648   5.614  -0.050  0.00  0.00    +0.460 C 
ATOM     11  F   LIG    1        8.835   6.403  -1.190  0.00  0.00    -0.180 F 
ATOM     12  F   LIG    1        9.559   4.552  -0.065  0.00  0.00    -0.180 F 
ATOM     13  F   LIG    1        8.857   6.391   1.094  0.00  0.00    -0.180 F 
ENDBRANCH   5  10
ENDBRANCH   1   2
BRANCH   1  14
ATOM     14  N   LIG    1        3.458   2.127  -0.019  0.00  0.00    -0.700 N 
ATOM     15  H   LIG    1        4.312   1.667  -0.030  0.00  0.00    +0.410 HD
BRANCH  14  19
ATOM     16  C   LIG    1        0.002  -0.004   0.002  0.00  0.00    -0.290 A 
ATOM     17  C   LIG    1       -0.017   1.399   0.010  0.00  0.00    +0.380 A 
ATOM     18  N   LIG    1        1.128   2.054   0.002  0.00  0.00    -0.580 NA
ATOM     19  C   LIG    1        2.285   1.404  -0.012  0.00  0.00    +0.540 A 
ATOM     20  N   LIG    1        2.346   0.078  -0.020  0.00  0.00    -0.580 NA
ATOM     21  C   LIG    1        1.247  -0.651  -0.013  0.00  0.00    +0.380 A 
BRANCH  16  23
ATOM     22  O   LIG    1       -2.327  -0.196   0.024  0.00  0.00    -0.690 OA
ATOM     23  C   LIG    1       -1.251  -0.777   0.010  0.00  0.00    +0.530 C 
ATOM     24  O   LIG    1       -1.215  -2.000   0.003  0.00  0.00    -0.690 OA
ENDBRANCH  16  23
ENDBRANCH  14  19
ENDBRANCH   1  14
TORSDOF 5
