REMARK  Name = ZINCvU00000007rh.0
REMARK                            x       y       z     vdW  Elec       q    Type
REMARK                         _______ _______ _______ _____ _____    ______ ____
ROOT
ATOM      1  C   LIG    1        0.642   3.499   0.027  0.00  0.00    -0.210 A 
ATOM      2  C   LIG    1        1.073   2.186   0.027  0.00  0.00    +0.280 A 
ATOM      3  N   LIG    1       -0.016   1.396   0.038  0.00  0.00    -0.310 N 
ATOM      4  N   LIG    1       -1.170   2.185   0.040  0.00  0.00    -0.270 NA
ATOM      5  C   LIG    1       -0.825   3.453   0.040  0.00  0.00    +0.150 A 
ENDROOT
BRANCH   5   6
ATOM      6  C   LIG    1       -1.743   4.616   0.044  0.00  0.00    -0.010 A 
ATOM      7  C   LIG    1       -1.398   5.777   0.735  0.00  0.00    +0.050 A 
ATOM      8  C   LIG    1       -2.254   6.860   0.731  0.00  0.00    +0.050 A 
ATOM      9  C   LIG    1       -3.459   6.790   0.053  0.00  0.00    -0.080 A 
ATOM     10  C   LIG    1       -3.809   5.637  -0.629  0.00  0.00    +0.050 A 
ATOM     11 BR   LIG    1       -4.630   8.274   0.059  0.00  0.00    -0.040 Br
ATOM     12  C   LIG    1       -2.958   4.552  -0.637  0.00  0.00    +0.060 A 
ENDBRANCH   5   6
BRANCH   3  13
ATOM     13  C   LIG    1        0.003  -0.005   0.041  0.00  0.00    +0.150 A 
ATOM     14  C   LIG    1        1.214  -0.684   0.026  0.00  0.00    -0.010 A 
ATOM     15  C   LIG    1        1.230  -2.065   0.036  0.00  0.00    +0.050 A 
ATOM     16  C   LIG    1        0.041  -2.771   0.047  0.00  0.00    +0.010 A 
ATOM     17  C   LIG    1       -1.167  -2.098   0.056  0.00  0.00    +0.050 A 
ATOM     18  C   LIG    1       -1.189  -0.717   0.053  0.00  0.00    +0.030 A 
ENDBRANCH   3  13
BRANCH   1  20
ATOM     19  C   LIG    1        2.831   4.583   0.006  0.00  0.00    -0.130 C 
ATOM     20  C   LIG    1        1.485   4.701   0.017  0.00  0.00    +0.190 C 
BRANCH  19  23
ATOM     21  N   LIG    1        4.987   5.626  -0.015  0.00  0.00    -0.670 N 
ATOM     22  H   LIG    1        5.397   4.749   0.051  0.00  0.00    +0.410 HD
ATOM     23  C   LIG    1        3.644   5.744  -0.004  0.00  0.00    +0.550 C 
ATOM     24  O   LIG    1        3.130   6.848  -0.002  0.00  0.00    -0.530 OA
BRANCH  21  28
ATOM     25  C   LIG    1        7.376   9.027  -0.332  0.00  0.00    +0.110 A 
ATOM     26  C   LIG    1        6.184   9.081   0.374  0.00  0.00    +0.000 A 
ATOM     27  C   LIG    1        5.392   7.955   0.480  0.00  0.00    +0.070 A 
ATOM     28  C   LIG    1        5.789   6.768  -0.122  0.00  0.00    +0.110 A 
ATOM     29  C   LIG    1        6.985   6.714  -0.825  0.00  0.00    +0.030 A 
ATOM     30  C   LIG    1        7.774   7.842  -0.933  0.00  0.00    -0.060 A 
BRANCH  25  32
ATOM     31  C   LIG    1        9.370  10.009  -1.178  0.00  0.00    +0.250 C 
ATOM     32  O   LIG    1        8.156  10.137  -0.435  0.00  0.00    -0.320 OA
ENDBRANCH  25  32
ENDBRANCH  21  28
ENDBRANCH  19  23
ENDBRANCH   1  20
TORSDOF 6
