REMARK  Name = ZINCvU00000004qi.0
REMARK                            x       y       z     vdW  Elec       q    Type
REMARK                         _______ _______ _______ _____ _____    ______ ____
ROOT
ATOM      1  C   LIG    1       -1.472   7.577  -0.410  0.00  0.00    +0.190 C 
ENDROOT
BRANCH   1   2
ATOM      2  C   LIG    1       -1.032   7.006  -1.733  0.00  0.00    -0.100 A 
ATOM      3  C   LIG    1       -1.308   5.687  -2.042  0.00  0.00    +0.060 A 
ATOM      4  C   LIG    1       -0.908   5.164  -3.258  0.00  0.00    +0.010 A 
ATOM      5  C   LIG    1       -0.224   5.957  -4.160  0.00  0.00    +0.010 A 
ATOM      6  C   LIG    1        0.057   7.274  -3.848  0.00  0.00    +0.010 A 
ATOM      7  C   LIG    1       -0.347   7.798  -2.634  0.00  0.00    +0.010 A 
ENDBRANCH   1   2
BRANCH   1  10
ATOM      8  N   LIG    1       -3.297   9.170  -0.912  0.00  0.00    -0.670 N 
ATOM      9  H   LIG    1       -2.627   9.788  -1.243  0.00  0.00    +0.410 HD
ATOM     10  C   LIG    1       -2.932   7.946  -0.482  0.00  0.00    +0.520 C 
ATOM     11  O   LIG    1       -3.778   7.141  -0.154  0.00  0.00    -0.490 OA
BRANCH   8  17
ATOM     12  C   LIG    1       -8.049   7.932  -1.163  0.00  0.00    +0.090 C 
ATOM     13  C   LIG    1       -6.968   8.970  -1.001  0.00  0.00    -0.070 A 
ATOM     14  C   LIG    1       -7.307  10.298  -0.822  0.00  0.00    -0.010 A 
ATOM     15  C   LIG    1       -6.318  11.253  -0.673  0.00  0.00    +0.030 A 
ATOM     16  C   LIG    1       -4.988  10.882  -0.703  0.00  0.00    -0.120 A 
ATOM     17  C   LIG    1       -4.644   9.549  -0.882  0.00  0.00    +0.150 A 
ATOM     18  C   LIG    1       -3.911  11.924  -0.540  0.00  0.00    +0.090 C 
ATOM     19  C   LIG    1       -5.639   8.593  -1.037  0.00  0.00    +0.030 A 
ENDBRANCH   8  17
ENDBRANCH   1  10
BRANCH   1  20
ATOM     20  N   LIG    1       -1.272   6.577   0.647  0.00  0.00    -0.500 NA
ATOM     21  C   LIG    1       -1.757   7.074   1.942  0.00  0.00    +0.200 C 
BRANCH  20  22
ATOM     22  C   LIG    1        0.139   6.176   0.732  0.00  0.00    +0.220 C 
BRANCH  22  23
ATOM     23  C   LIG    1        0.268   4.984   1.645  0.00  0.00    +0.520 C 
ATOM     24  N   LIG    1        1.479   4.439   1.875  0.00  0.00    -0.670 N 
ATOM     25  H   LIG    1        2.276   4.857   1.511  0.00  0.00    +0.410 HD
ATOM     26  O   LIG    1       -0.718   4.515   2.173  0.00  0.00    -0.490 OA
BRANCH  24  27
ATOM     27  C   LIG    1        1.588   3.271   2.638  0.00  0.00    +0.160 A 
ATOM     28  C   LIG    1        0.483   2.450   2.814  0.00  0.00    +0.030 A 
ATOM     29  C   LIG    1        0.593   1.297   3.567  0.00  0.00    +0.040 A 
ATOM     30  C   LIG    1        1.803   0.961   4.146  0.00  0.00    +0.000 A 
ATOM     31  C   LIG    1        2.906   1.776   3.973  0.00  0.00    +0.050 A 
ATOM     32  C   LIG    1        2.803   2.930   3.220  0.00  0.00    -0.070 A 
ATOM     33 CL   LIG    1        4.189   3.953   3.003  0.00  0.00    -0.070 Cl
ENDBRANCH  24  27
ENDBRANCH  22  23
ENDBRANCH  20  22
ENDBRANCH   1  20
TORSDOF 7
