REMARK  Name = ZINCvU0000000HOI.0
REMARK                            x       y       z     vdW  Elec       q    Type
REMARK                         _______ _______ _______ _____ _____    ______ ____
ROOT
ATOM      1  C   LIG    1       -5.071  -7.112  -0.090  0.00  0.00    -0.130 A 
ATOM      2  C   LIG    1       -3.763  -7.476  -0.043  0.00  0.00    +0.050 A 
ATOM      3  O   LIG    1       -2.777  -6.618   0.217  0.00  0.00    -0.190 OA
ATOM      4  C   LIG    1       -2.968  -5.288   0.142  0.00  0.00    +0.160 A 
ATOM      5  C   LIG    1       -1.883  -4.421   0.096  0.00  0.00    +0.030 A 
ATOM      6  C   LIG    1       -2.095  -3.054   0.039  0.00  0.00    +0.160 A 
ATOM      7  C   LIG    1       -3.388  -2.536   0.017  0.00  0.00    +0.010 A 
ATOM      8  C   LIG    1       -4.466  -3.374   0.051  0.00  0.00    +0.150 A 
ATOM      9  C   LIG    1       -4.268  -4.753   0.111  0.00  0.00    -0.210 A 
ATOM     10  C   LIG    1       -5.405  -5.693   0.140  0.00  0.00    +0.440 A 
ATOM     11  O   LIG    1       -6.548  -5.321   0.342  0.00  0.00    -0.420 OA
ENDROOT
BRANCH   1  17
ATOM     12  C   LIG    1       -6.752  -8.149  -1.619  0.00  0.00    +0.150 A 
ATOM     13  C   LIG    1       -7.741  -9.086  -1.868  0.00  0.00    -0.070 A 
ATOM     14  C   LIG    1       -8.115  -9.978  -0.880  0.00  0.00    +0.060 A 
ATOM     15  C   LIG    1       -7.504  -9.942   0.361  0.00  0.00    -0.020 A 
ATOM     16  C   LIG    1       -6.512  -9.017   0.621  0.00  0.00    +0.080 A 
ATOM     17  C   LIG    1       -6.132  -8.110  -0.366  0.00  0.00    -0.080 A 
BRANCH  12  19
ATOM     18  C   LIG    1       -7.060  -7.371  -3.844  0.00  0.00    +0.250 C 
ATOM     19  O   LIG    1       -6.384  -7.272  -2.589  0.00  0.00    -0.320 OA
ENDBRANCH  12  19
ENDBRANCH   1  17
BRANCH   2  20
ATOM     20  C   LIG    1       -3.411  -8.919  -0.298  0.00  0.00    +0.530 C 
ATOM     21  F   LIG    1       -2.765  -9.447   0.826  0.00  0.00    -0.160 F 
ATOM     22  F   LIG    1       -2.561  -9.004  -1.406  0.00  0.00    -0.160 F 
ATOM     23  F   LIG    1       -4.579  -9.647  -0.549  0.00  0.00    -0.140 F 
ENDBRANCH   2  20
BRANCH   6  24
ATOM     24  O   LIG    1       -1.032  -2.211   0.000  0.00  0.00    -0.290 OA
BRANCH  24  25
ATOM     25  C   LIG    1       -0.702  -1.554   1.132  0.00  0.00    +0.550 C 
ATOM     26  O   LIG    1       -1.403  -1.657   2.121  0.00  0.00    -0.470 OA
BRANCH  25  27
ATOM     27  C   LIG    1        0.498  -0.717   1.169  0.00  0.00    -0.280 A 
ATOM     28  C   LIG    1        0.936  -0.005   2.252  0.00  0.00    +0.130 A 
ATOM     29  C   LIG    1        2.093   0.696   2.009  0.00  0.00    -0.010 A 
ATOM     30  C   LIG    1        2.588   0.564   0.773  0.00  0.00    -0.040 A 
ATOM     31  S   LIG    1        1.609  -0.466  -0.171  0.00  0.00    +0.260 S 
ENDBRANCH  25  27
ENDBRANCH  24  25
ENDBRANCH   6  24
TORSDOF 6
