REMARK  Name = ZINCvU0000000D56.0
REMARK                            x       y       z     vdW  Elec       q    Type
REMARK                         _______ _______ _______ _____ _____    ______ ____
ROOT
ATOM      1  O   LIG    1       -6.922   9.442  -1.234  0.00  0.00    -0.450 OA
ATOM      2  C   LIG    1       -7.339   8.303  -1.219  0.00  0.00    +0.530 C 
ATOM      3  N   LIG    1       -8.579   8.045  -0.758  0.00  0.00    -0.540 N 
ATOM      4  C   LIG    1       -9.113   6.769  -0.953  0.00  0.00    +0.150 A 
ATOM      5  C   LIG    1       -8.527   5.957  -1.921  0.00  0.00    -0.030 A 
ATOM      6  C   LIG    1       -9.008   4.684  -2.152  0.00  0.00    +0.060 A 
ATOM      7  C   LIG    1      -10.080   4.204  -1.423  0.00  0.00    +0.010 A 
ATOM      8  C   LIG    1      -10.672   5.000  -0.463  0.00  0.00    +0.070 A 
ATOM      9  C   LIG    1      -10.195   6.284  -0.225  0.00  0.00    -0.110 A 
ATOM     10  S   LIG    1      -10.986   7.272   1.004  0.00  0.00    -0.100 S 
ATOM     11  C   LIG    1       -9.769   8.591   1.294  0.00  0.00    +0.110 C 
ATOM     12  C   LIG    1       -9.304   9.110  -0.070  0.00  0.00    +0.290 C 
ENDROOT
BRANCH  12  13
ATOM     13  C   LIG    1       -8.395  10.296   0.125  0.00  0.00    -0.050 A 
ATOM     14  C   LIG    1       -7.332  10.214   1.005  0.00  0.00    +0.010 A 
ATOM     15  C   LIG    1       -6.496  11.301   1.181  0.00  0.00    +0.010 A 
ATOM     16  C   LIG    1       -6.729  12.472   0.484  0.00  0.00    +0.000 A 
ATOM     17  C   LIG    1       -7.795  12.555  -0.391  0.00  0.00    +0.010 A 
ATOM     18  C   LIG    1       -8.629  11.467  -0.570  0.00  0.00    +0.020 A 
ENDBRANCH  12  13
BRANCH   2  19
ATOM     19  C   LIG    1       -6.471   7.176  -1.718  0.00  0.00    +0.120 C 
BRANCH  19  20
ATOM     20  S   LIG    1       -4.736   7.550  -1.365  0.00  0.00    +0.130 S 
BRANCH  20  21
ATOM     21  C   LIG    1       -3.971   6.111  -2.033  0.00  0.00    +0.130 A 
ATOM     22  N   LIG    1       -4.583   5.101  -2.608  0.00  0.00    -0.280 NA
ATOM     23  N   LIG    1       -3.713   4.230  -2.982  0.00  0.00    -0.260 NA
ATOM     24  C   LIG    1       -2.513   4.643  -2.652  0.00  0.00    +0.220 A 
ATOM     25  O   LIG    1       -2.651   5.844  -2.048  0.00  0.00    -0.200 OA
BRANCH  24  26
ATOM     26  C   LIG    1       -1.244   3.929  -2.902  0.00  0.00    -0.080 A 
ATOM     27  C   LIG    1       -1.240   2.687  -3.547  0.00  0.00    +0.130 A 
ATOM     28  C   LIG    1       -0.025   2.058  -3.752  0.00  0.00    -0.020 A 
ATOM     29  C   LIG    1        1.138   2.676  -3.327  0.00  0.00    +0.290 A 
ATOM     30  N   LIG    1        1.105   3.850  -2.726  0.00  0.00    -0.480 NA
ATOM     31  C   LIG    1       -0.027   4.486  -2.504  0.00  0.00    +0.310 A 
ENDBRANCH  24  26
ENDBRANCH  20  21
ENDBRANCH  19  20
ENDBRANCH   2  19
TORSDOF 5
