REMARK  Name = ZINCrD000000AfZH.0
REMARK                            x       y       z     vdW  Elec       q    Type
REMARK                         _______ _______ _______ _____ _____    ______ ____
ROOT
ATOM      1  N   LIG    1       -3.119   0.572   1.602  0.00  0.00    -1.120 NA
ATOM      2  H   LIG    1       -3.138  -0.331   1.955  0.00  0.00    +0.420 HD
ENDROOT
BRANCH   1   3
ATOM      3  S   LIG    1       -2.707   0.834   0.019  0.00  0.00    +2.700 S 
ATOM      4  O   LIG    1       -2.408  -0.441  -0.533  0.00  0.00    -0.950 OA
ATOM      5  O   LIG    1       -3.699   1.699  -0.516  0.00  0.00    -0.950 OA
BRANCH   3   6
ATOM      6  C   LIG    1       -1.198   1.744   0.017  0.00  0.00    -0.670 A 
ATOM      7  C   LIG    1       -0.013   1.076   0.008  0.00  0.00    +0.170 A 
ATOM      8  C   LIG    1        1.193   1.799   0.000  0.00  0.00    -0.080 A 
ATOM      9  C   LIG    1        2.436   1.145  -0.015  0.00  0.00    +0.040 A 
ATOM     10  C   LIG    1        3.583   1.878  -0.022  0.00  0.00    +0.010 A 
ATOM     11  C   LIG    1        3.544   3.271  -0.015  0.00  0.00    +0.040 A 
ATOM     12  C   LIG    1        2.358   3.938  -0.000  0.00  0.00    +0.010 A 
ATOM     13  C   LIG    1        1.153   3.216   0.008  0.00  0.00    -0.010 A 
ATOM     14  C   LIG    1       -0.090   3.870   0.023  0.00  0.00    +0.020 A 
ATOM     15  C   LIG    1       -1.237   3.137   0.030  0.00  0.00    +0.090 A 
ENDBRANCH   3   6
ENDBRANCH   1   3
BRANCH   1  16
ATOM     16  C   LIG    1       -3.456   1.704   2.468  0.00  0.00    +0.300 C 
BRANCH  16  17
ATOM     17  C   LIG    1       -4.148   1.191   3.732  0.00  0.00    +0.120 C 
BRANCH  17  19
ATOM     18  O   LIG    1       -4.217   3.481   4.282  0.00  0.00    -0.500 OA
ATOM     19  C   LIG    1       -4.495   2.356   4.623  0.00  0.00    +0.470 C 
BRANCH  19  20
ATOM     20  O   LIG    1       -5.112   2.143   5.796  0.00  0.00    -0.350 OA
BRANCH  20  21
ATOM     21  C   LIG    1       -5.415   3.312   6.603  0.00  0.00    +0.290 C 
BRANCH  21  22
ATOM     22  C   LIG    1       -6.102   2.881   7.873  0.00  0.00    -0.130 A 
ATOM     23  C   LIG    1       -6.344   1.541   8.107  0.00  0.00    +0.070 A 
ATOM     24  C   LIG    1       -6.974   1.145   9.273  0.00  0.00    +0.000 A 
ATOM     25  C   LIG    1       -7.363   2.090  10.205  0.00  0.00    +0.050 A 
ATOM     26  C   LIG    1       -7.121   3.431   9.972  0.00  0.00    -0.010 A 
ATOM     27  C   LIG    1       -6.485   3.827   8.809  0.00  0.00    +0.110 A 
ATOM     28  F   LIG    1       -6.243   5.137   8.584  0.00  0.00    -0.140 F 
ENDBRANCH  21  22
ENDBRANCH  20  21
ENDBRANCH  19  20
ENDBRANCH  17  19
ENDBRANCH  16  17
ENDBRANCH   1  16
TORSDOF 8
