REMARK  Name = ZINCtj00000nxB3v.0
REMARK                            x       y       z     vdW  Elec       q    Type
REMARK                         _______ _______ _______ _____ _____    ______ ____
ROOT
ATOM      1  C   LIG    1        4.068   2.966   0.084  0.00  0.00    +0.190 C 
ATOM      2  C   LIG    1        3.712   1.503   0.020  0.00  0.00    +0.140 A 
ATOM      3  C   LIG    1        2.454   0.970   0.016  0.00  0.00    -0.120 A 
ATOM      4  N   LIG    1        2.559  -0.369  -0.044  0.00  0.00    -0.210 NA
ATOM      5  N   LIG    1        3.802  -0.702  -0.088  0.00  0.00    -0.010 NA
ATOM      6  N   LIG    1        4.575   0.466  -0.045  0.00  0.00    -0.300 N 
ENDROOT
BRANCH   6   7
ATOM      7  C   LIG    1        5.973   0.544  -0.066  0.00  0.00    +0.130 A 
ATOM      8  C   LIG    1        6.637   1.343   0.837  0.00  0.00    +0.060 A 
ATOM      9  C   LIG    1        8.027   1.425   0.831  0.00  0.00    +0.040 A 
ATOM     10  C   LIG    1        8.766   0.726  -0.074  0.00  0.00    +0.090 A 
ATOM     11  C   LIG    1        8.125  -0.096  -1.016  0.00  0.00    -0.100 A 
ATOM     12  C   LIG    1        8.860  -0.831  -1.965  0.00  0.00    +0.100 A 
ATOM     13  C   LIG    1        8.171  -1.609  -2.851  0.00  0.00    -0.020 A 
ATOM     14  C   LIG    1        6.781  -1.659  -2.798  0.00  0.00    +0.320 A 
ATOM     15  N   LIG    1        6.100  -0.973  -1.912  0.00  0.00    -0.470 NA
ATOM     16  C   LIG    1        6.712  -0.193  -1.017  0.00  0.00    +0.140 A 
ENDBRANCH   6   7
BRANCH   3  17
ATOM     17  C   LIG    1        1.194   1.734   0.076  0.00  0.00    +0.620 C 
ATOM     18  N   LIG    1        0.012   1.086   0.065  0.00  0.00    -0.730 N 
ATOM     19  H   LIG    1       -0.010   0.118   0.019  0.00  0.00    +0.400 HD
ATOM     20  O   LIG    1        1.221   2.948   0.134  0.00  0.00    -0.520 OA
BRANCH  18  21
ATOM     21  C   LIG    1       -1.240   1.845   0.118  0.00  0.00    +0.280 C 
BRANCH  21  22
ATOM     22  C   LIG    1       -2.425   0.878   0.087  0.00  0.00    +0.120 C 
ATOM     23  C   LIG    1       -2.350  -0.064   1.290  0.00  0.00    +0.230 C 
ATOM     24  N   LIG    1       -3.546   0.088   2.122  0.00  0.00    -0.370 N 
ATOM     25  C   LIG    1       -3.643   1.455   2.640  0.00  0.00    +0.260 C 
ATOM     26  C   LIG    1       -3.761   2.448   1.481  0.00  0.00    +0.080 C 
ATOM     27  C   LIG    1       -4.749  -0.263   1.364  0.00  0.00    +0.250 C 
ATOM     28  C   LIG    1       -4.904   0.673   0.163  0.00  0.00    +0.080 C 
ATOM     29  H   LIG    1       -3.470  -0.539   2.909  0.00  0.00    +0.430 HD
ATOM     30  C   LIG    1       -3.737   1.669   0.159  0.00  0.00    +0.050 C 
BRANCH  22  31
ATOM     31  O   LIG    1       -2.388   0.115  -1.121  0.00  0.00    -0.530 OA
ATOM     32  H   LIG    1       -1.586  -0.414  -1.228  0.00  0.00    +0.390 HD
ENDBRANCH  22  31
ENDBRANCH  21  22
ENDBRANCH  18  21
ENDBRANCH   3  17
TORSDOF 5
