REMARK  Name = ZINCpe00000zgRam.0
REMARK                            x       y       z     vdW  Elec       q    Type
REMARK                         _______ _______ _______ _____ _____    ______ ____
ROOT
ATOM      1  C   LIG    1        2.356  -0.150  -0.720  0.00  0.00    +0.320 C 
ATOM      2  N   LIG    1        1.069  -0.724  -0.348  0.00  0.00    -0.700 N 
ATOM      3  H   LIG    1        0.982  -1.690  -0.356  0.00  0.00    +0.410 HD
ATOM      4  C   LIG    1        0.002  -0.004   0.002  0.00  0.00    +0.530 C 
ATOM      5  C   LIG    1       -0.018   1.498   0.010  0.00  0.00    +0.090 C 
ATOM      6  C   LIG    1        1.414   2.038  -0.001  0.00  0.00    +0.040 C 
ATOM      7  O   LIG    1       -1.005  -0.594   0.331  0.00  0.00    -0.540 OA
ATOM      8  C   LIG    1        2.195   1.320  -1.108  0.00  0.00    +0.260 C 
ENDROOT
BRANCH   1  14
ATOM      9  C   LIG    1        5.277  -1.135  -1.032  0.00  0.00    +0.320 C 
ATOM     10  N   LIG    1        4.201  -1.336  -2.006  0.00  0.00    -0.450 N 
ATOM     11  C   LIG    1        4.303  -1.986  -3.206  0.00  0.00    +0.140 A 
ATOM     12  C   LIG    1        3.085  -1.940  -3.779  0.00  0.00    +0.150 A 
ATOM     13  N   LIG    1        2.261  -1.283  -2.950  0.00  0.00    -0.460 NA
ATOM     14  C   LIG    1        2.924  -0.914  -1.888  0.00  0.00    +0.170 A 
ENDBRANCH   1  14
BRANCH   8  15
ATOM     15  N   LIG    1        3.515   1.937  -1.257  0.00  0.00    -0.720 N 
ATOM     16  H   LIG    1        4.279   1.568  -0.786  0.00  0.00    +0.390 HD
ATOM     17  C   LIG    1        3.669   3.016  -2.050  0.00  0.00    +0.570 C 
ATOM     18  O   LIG    1        2.712   3.478  -2.641  0.00  0.00    -0.520 OA
BRANCH  17  19
ATOM     19  C   LIG    1        5.000   3.637  -2.200  0.00  0.00    -0.130 A 
ATOM     20  C   LIG    1        6.100   3.108  -1.522  0.00  0.00    +0.070 A 
ATOM     21  C   LIG    1        7.341   3.689  -1.664  0.00  0.00    +0.040 A 
ATOM     22  C   LIG    1        7.504   4.800  -2.481  0.00  0.00    +0.060 A 
ATOM     23  O   LIG    1        8.606   5.543  -2.783  0.00  0.00    -0.300 OA
ATOM     24  C   LIG    1        8.103   6.778  -3.326  0.00  0.00    +0.440 C 
ATOM     25  O   LIG    1        6.829   6.411  -3.887  0.00  0.00    -0.300 OA
ATOM     26  C   LIG    1        6.408   5.334  -3.161  0.00  0.00    +0.030 A 
ATOM     27  C   LIG    1        5.162   4.753  -3.026  0.00  0.00    +0.110 A 
ENDBRANCH  17  19
ENDBRANCH   8  15
TORSDOF 3
