REMARK  Name = ZINCnE000004Rexj.0
REMARK                            x       y       z     vdW  Elec       q    Type
REMARK                         _______ _______ _______ _____ _____    ______ ____
ROOT
ATOM      1  C   LIG    1        4.981   5.553   0.511  0.00  0.00    -0.100 A 
ATOM      2  C   LIG    1        4.027   6.077  -0.364  0.00  0.00    +0.110 A 
ATOM      3  C   LIG    1        2.927   5.326  -0.713  0.00  0.00    -0.080 A 
ATOM      4  C   LIG    1        2.765   4.045  -0.193  0.00  0.00    +0.250 A 
ATOM      5  C   LIG    1        3.710   3.522   0.683  0.00  0.00    -0.070 A 
ATOM      6  C   LIG    1        4.816   4.267   1.030  0.00  0.00    +0.100 A 
ENDROOT
BRANCH   1  11
ATOM      7  C   LIG    1        8.254   9.306   0.805  0.00  0.00    +0.140 C 
ATOM      8  C   LIG    1        7.583   7.973   1.020  0.00  0.00    -0.010 A 
ATOM      9  C   LIG    1        8.035   6.976   1.800  0.00  0.00    -0.060 A 
ATOM     10  O   LIG    1        7.146   5.966   1.716  0.00  0.00    -0.200 OA
ATOM     11  C   LIG    1        6.162   6.356   0.886  0.00  0.00    +0.260 A 
ATOM     12  C   LIG    1        9.301   6.986   2.618  0.00  0.00    +0.200 C 
ATOM     13  N   LIG    1        6.431   7.569   0.462  0.00  0.00    -0.480 NA
ENDBRANCH   1  11
BRANCH   4  14
ATOM     14  N   LIG    1        1.650   3.287  -0.548  0.00  0.00    -0.730 N 
ATOM     15  H   LIG    1        0.988   3.652  -1.156  0.00  0.00    +0.400 HD
BRANCH  14  16
ATOM     16  C   LIG    1        1.477   1.939  -0.002  0.00  0.00    +0.230 C 
ATOM     17  C   LIG    1        2.107   0.881  -0.942  0.00  0.00    +0.030 C 
ATOM     18  C   LIG    1        1.353  -0.422  -0.604  0.00  0.00    -0.040 C 
ATOM     19  C   LIG    1        0.002  -0.004   0.002  0.00  0.00    -0.040 C 
ATOM     20  C   LIG    1        0.051  -0.719  -1.350  0.00  0.00    -0.080 C 
ATOM     21  C   LIG    1       -0.019   1.538   0.011  0.00  0.00    +0.040 C 
BRANCH  20  22
ATOM     22  C   LIG    1       -0.413  -2.152  -1.395  0.00  0.00    +0.520 C 
ATOM     23  O   LIG    1       -0.127  -2.914  -0.487  0.00  0.00    -0.690 OA
ATOM     24  O   LIG    1       -1.074  -2.550  -2.339  0.00  0.00    -0.690 OA
ENDBRANCH  20  22
ENDBRANCH  14  16
ENDBRANCH   4  14
TORSDOF 4
