REMARK  Name = ZINCvU0000000IoX.0
REMARK                            x       y       z     vdW  Elec       q    Type
REMARK                         _______ _______ _______ _____ _____    ______ ____
ROOT
ATOM      1  C   LIG    1       -2.511   1.512  -1.119  0.00  0.00    +0.170 A 
ATOM      2  N   LIG    1       -2.877   0.815  -0.067  0.00  0.00    -0.280 NA
ATOM      3  N   LIG    1       -4.129   0.533  -0.136  0.00  0.00    -0.260 NA
ATOM      4  C   LIG    1       -4.640   1.024  -1.242  0.00  0.00    +0.240 A 
ATOM      5  N   LIG    1       -3.619   1.668  -1.907  0.00  0.00    -0.410 N 
ENDROOT
BRANCH   4   6
ATOM      6  C   LIG    1       -6.044   0.908  -1.688  0.00  0.00    -0.080 A 
ATOM      7  C   LIG    1       -6.905  -0.021  -1.094  0.00  0.00    +0.120 A 
ATOM      8  C   LIG    1       -8.211  -0.089  -1.548  0.00  0.00    -0.020 A 
ATOM      9  C   LIG    1       -8.619   0.754  -2.566  0.00  0.00    +0.270 A 
ATOM     10  N   LIG    1       -7.784   1.621  -3.108  0.00  0.00    -0.480 NA
ATOM     11  C   LIG    1       -6.535   1.728  -2.706  0.00  0.00    +0.280 A 
ENDBRANCH   4   6
BRANCH   5  12
ATOM     12  C   LIG    1       -3.699   2.341  -3.134  0.00  0.00    +0.080 A 
ATOM     13  C   LIG    1       -3.466   1.656  -4.319  0.00  0.00    +0.040 A 
ATOM     14  C   LIG    1       -3.551   2.321  -5.527  0.00  0.00    +0.030 A 
ATOM     15  C   LIG    1       -3.855   3.669  -5.556  0.00  0.00    +0.050 A 
ATOM     16  C   LIG    1       -4.082   4.355  -4.377  0.00  0.00    +0.040 A 
ATOM     17  C   LIG    1       -4.005   3.695  -3.166  0.00  0.00    -0.050 A 
BRANCH  17  18
ATOM     18  C   LIG    1       -4.252   4.443  -1.881  0.00  0.00    +0.010 C 
ATOM     19  C   LIG    1       -5.667   5.025  -1.894  0.00  0.00    +0.030 C 
ATOM     20  C   LIG    1       -3.235   5.578  -1.749  0.00  0.00    +0.040 C 
ENDBRANCH  17  18
ENDBRANCH   5  12
BRANCH   1  21
ATOM     21  S   LIG    1       -0.894   2.125  -1.456  0.00  0.00    +0.060 S 
BRANCH  21  22
ATOM     22  C   LIG    1       -0.019   1.526   0.010  0.00  0.00    +0.160 C 
ATOM     23  C   LIG    1        0.002  -0.004   0.002  0.00  0.00    +0.110 C 
BRANCH  22  27
ATOM     24  C   LIG    1        3.260   2.889   0.540  0.00  0.00    +0.180 A 
ATOM     25  N   LIG    1        3.290   2.553  -0.715  0.00  0.00    -0.370 NA
ATOM     26  O   LIG    1        2.230   2.062  -1.044  0.00  0.00    +0.090 OA
ATOM     27  C   LIG    1        1.395   2.047  -0.000  0.00  0.00    +0.190 A 
ATOM     28  N   LIG    1        2.043   2.568   1.014  0.00  0.00    -0.460 NA
BRANCH  24  29
ATOM     29  C   LIG    1        4.383   3.521   1.321  0.00  0.00    +0.160 C 
BRANCH  29  31
ATOM     30  C   LIG    1        6.390   3.067   2.739  0.00  0.00    +0.030 C 
ATOM     31  C   LIG    1        5.249   2.425   1.946  0.00  0.00    +0.020 C 
ENDBRANCH  29  31
ENDBRANCH  24  29
ENDBRANCH  22  27
ENDBRANCH  21  22
ENDBRANCH   1  21
TORSDOF 8
