REMARK  Name = ZINCpe000000XQSF.0
REMARK                            x       y       z     vdW  Elec       q    Type
REMARK                         _______ _______ _______ _____ _____    ______ ____
ROOT
ATOM      1  C   LIG    1        1.467  -0.394  -0.014  0.00  0.00    +0.170 C 
ATOM      2  N   LIG    1        2.170   0.901  -0.014  0.00  0.00    -0.710 N 
ATOM      3  H   LIG    1        3.130   1.039  -0.022  0.00  0.00    +0.440 HD
ATOM      4  C   LIG    1        1.220   1.854   0.000  0.00  0.00    +0.710 C 
ATOM      5  N   LIG    1       -0.016   1.343   0.009  0.00  0.00    -0.560 N 
ATOM      6  O   LIG    1        1.460   3.045   0.005  0.00  0.00    -0.540 OA
ATOM      7  C   LIG    1        1.798  -1.190  -1.278  0.00  0.00    +0.100 C 
ATOM      8  C   LIG    1        0.002  -0.004   0.002  0.00  0.00    +0.540 C 
ATOM      9  O   LIG    1       -0.954  -0.749   0.006  0.00  0.00    -0.460 OA
ENDROOT
BRANCH   1  14
ATOM     10  C   LIG    1        2.812  -3.439   4.709  0.00  0.00    +0.090 C 
ATOM     11  C   LIG    1        2.461  -2.644   3.478  0.00  0.00    -0.070 A 
ATOM     12  C   LIG    1        3.418  -1.853   2.870  0.00  0.00    +0.010 A 
ATOM     13  C   LIG    1        3.096  -1.125   1.740  0.00  0.00    +0.030 A 
ATOM     14  C   LIG    1        1.818  -1.188   1.218  0.00  0.00    -0.100 A 
ATOM     15  C   LIG    1        0.860  -1.975   1.829  0.00  0.00    +0.040 A 
ATOM     16  C   LIG    1        1.183  -2.707   2.956  0.00  0.00    +0.010 A 
ENDBRANCH   1  14
BRANCH   5  17
ATOM     17  C   LIG    1       -1.239   2.150   0.020  0.00  0.00    +0.360 C 
BRANCH  17  18
ATOM     18  C   LIG    1       -1.652   2.419   1.444  0.00  0.00    +0.500 C 
ATOM     19  N   LIG    1       -2.757   3.147   1.700  0.00  0.00    -0.720 N 
ATOM     20  H   LIG    1       -3.287   3.498   0.967  0.00  0.00    +0.400 HD
ATOM     21  O   LIG    1       -0.989   1.980   2.360  0.00  0.00    -0.520 OA
BRANCH  19  22
ATOM     22  C   LIG    1       -3.158   3.408   3.084  0.00  0.00    +0.240 C 
ATOM     23  C   LIG    1       -2.407   4.633   3.610  0.00  0.00    +0.020 C 
BRANCH  22  24
ATOM     24  C   LIG    1       -4.664   3.671   3.138  0.00  0.00    -0.010 C 
ATOM     25  C   LIG    1       -5.001   4.886   2.272  0.00  0.00    +0.030 C 
BRANCH  24  26
ATOM     26  C   LIG    1       -5.083   3.944   4.584  0.00  0.00    +0.180 C 
BRANCH  26  27
ATOM     27  O   LIG    1       -6.504   4.074   4.652  0.00  0.00    -0.570 OA
ATOM     28  H   LIG    1       -6.841   4.248   5.541  0.00  0.00    +0.380 HD
ENDBRANCH  26  27
ENDBRANCH  24  26
ENDBRANCH  22  24
ENDBRANCH  19  22
ENDBRANCH  17  18
ENDBRANCH   5  17
TORSDOF 7
