REMARK  Name = ZINCrH000004v8FJ.0
REMARK                            x       y       z     vdW  Elec       q    Type
REMARK                         _______ _______ _______ _____ _____    ______ ____
ROOT
ATOM      1  O   LIG    1       -2.109   3.545   1.150  0.00  0.00    -0.500 OA
ATOM      2  C   LIG    1       -1.125   3.079   0.609  0.00  0.00    +0.560 C 
ATOM      3  N   LIG    1       -1.191   1.869   0.018  0.00  0.00    -0.670 N 
ATOM      4  H   LIG    1       -0.426   1.527  -0.471  0.00  0.00    +0.420 HD
ENDROOT
BRANCH   2   5
ATOM      5  C   LIG    1        0.144   3.836   0.606  0.00  0.00    -0.110 A 
ATOM      6  C   LIG    1        1.277   3.301  -0.009  0.00  0.00    +0.050 A 
ATOM      7  C   LIG    1        2.458   4.015  -0.013  0.00  0.00    +0.080 A 
ATOM      8  C   LIG    1        2.523   5.254   0.600  0.00  0.00    -0.150 A 
ATOM      9  C   LIG    1        1.405   5.787   1.216  0.00  0.00    +0.080 A 
ATOM     10  C   LIG    1        0.216   5.086   1.222  0.00  0.00    +0.090 A 
BRANCH   8  11
ATOM     11  C   LIG    1        3.817   6.025   0.597  0.00  0.00    +0.510 C 
ATOM     12  F   LIG    1        3.542   7.397   0.614  0.00  0.00    -0.170 F 
ATOM     13  F   LIG    1        4.545   5.710  -0.556  0.00  0.00    -0.170 F 
ATOM     14  F   LIG    1        4.566   5.685   1.729  0.00  0.00    -0.170 F 
ENDBRANCH   8  11
ENDBRANCH   2   5
BRANCH   3  15
ATOM     15  C   LIG    1       -2.360   1.108   0.110  0.00  0.00    +0.200 A 
ATOM     16  C   LIG    1       -2.285  -0.276   0.192  0.00  0.00    -0.020 A 
ATOM     17  C   LIG    1       -3.442  -1.024   0.288  0.00  0.00    +0.150 A 
ATOM     18  C   LIG    1       -4.674  -0.398   0.291  0.00  0.00    -0.690 A 
ATOM     19  C   LIG    1       -4.753   0.980   0.204  0.00  0.00    +0.140 A 
ATOM     20  C   LIG    1       -3.600   1.735   0.113  0.00  0.00    +0.010 A 
BRANCH  18  21
ATOM     21  S   LIG    1       -6.148  -1.357   0.407  0.00  0.00    +2.710 S 
ATOM     22  O   LIG    1       -7.148  -0.494   0.932  0.00  0.00    -0.950 OA
ATOM     23  O   LIG    1       -5.781  -2.584   1.021  0.00  0.00    -0.950 OA
BRANCH  21  24
ATOM     24  N   LIG    1       -6.614  -1.727  -1.138  0.00  0.00    -1.010 NA
ATOM     25  C   LIG    1       -7.514  -0.923  -1.978  0.00  0.00    +0.270 C 
ATOM     26  C   LIG    1       -7.678  -1.668  -3.319  0.00  0.00    +0.030 C 
ATOM     27  C   LIG    1       -7.321  -3.132  -2.946  0.00  0.00    +0.030 C 
ATOM     28  C   LIG    1       -6.201  -2.921  -1.897  0.00  0.00    +0.270 C 
ENDBRANCH  21  24
ENDBRANCH  18  21
ENDBRANCH   3  15
TORSDOF 5
