REMARK  Name = ZINCvU00000009oJ.0
REMARK                            x       y       z     vdW  Elec       q    Type
REMARK                         _______ _______ _______ _____ _____    ______ ____
ROOT
ATOM      1  C   LIG    1        1.160   1.957   0.501  0.00  0.00    +0.360 A 
ATOM      2  N   LIG    1        0.057   1.251   0.539  0.00  0.00    -0.530 NA
ATOM      3  C   LIG    1        0.011  -0.016   0.065  0.00  0.00    +0.180 A 
ATOM      4  C   LIG    1       -1.165  -0.769   0.105  0.00  0.00    +0.040 A 
ATOM      5  C   LIG    1       -1.165  -2.056  -0.389  0.00  0.00    +0.020 A 
ATOM      6  C   LIG    1       -0.009  -2.611  -0.927  0.00  0.00    +0.020 A 
ATOM      7  C   LIG    1        1.153  -1.893  -0.977  0.00  0.00    +0.130 A 
ATOM      8 CL   LIG    1       -2.625  -2.994  -0.341  0.00  0.00    -0.050 Cl
ATOM      9  C   LIG    1        1.181  -0.590  -0.483  0.00  0.00    -0.200 A 
ATOM     10  C   LIG    1        2.404   0.224  -0.514  0.00  0.00    +0.560 A 
ATOM     11  O   LIG    1        3.442  -0.215  -0.973  0.00  0.00    -0.490 OA
ATOM     12  N   LIG    1        2.334   1.478  -0.012  0.00  0.00    -0.490 N 
ENDROOT
BRANCH  12  13
ATOM     13  C   LIG    1        3.473   2.294  -0.019  0.00  0.00    +0.090 A 
ATOM     14  C   LIG    1        3.736   3.113  -1.109  0.00  0.00    +0.070 A 
ATOM     15  C   LIG    1        4.857   3.920  -1.110  0.00  0.00    +0.050 A 
ATOM     16  C   LIG    1        5.724   3.904  -0.032  0.00  0.00    -0.010 A 
ATOM     17  C   LIG    1        5.467   3.084   1.053  0.00  0.00    +0.050 A 
ATOM     18 CL   LIG    1        7.136   4.914  -0.040  0.00  0.00    -0.050 Cl
ATOM     19  C   LIG    1        4.345   2.280   1.062  0.00  0.00    +0.070 A 
ENDBRANCH  12  13
BRANCH   1  20
ATOM     20  S   LIG    1        1.130   3.599   1.140  0.00  0.00    +0.100 S 
BRANCH  20  21
ATOM     21  C   LIG    1       -0.600   3.701   1.663  0.00  0.00    +0.110 C 
BRANCH  21  28
ATOM     22  C   LIG    1       -2.749   3.598   4.983  0.00  0.00    +0.020 C 
ATOM     23  C   LIG    1       -3.790   4.216   4.047  0.00  0.00    -0.020 C 
ATOM     24  C   LIG    1       -4.211   5.586   4.584  0.00  0.00    +0.030 C 
ATOM     25  C   LIG    1       -2.982   6.492   4.694  0.00  0.00    -0.030 C 
ATOM     26  C   LIG    1       -2.368   6.685   3.304  0.00  0.00    +0.290 C 
ATOM     27  N   LIG    1       -2.094   5.364   2.721  0.00  0.00    -0.600 N 
ATOM     28  C   LIG    1       -0.865   5.059   2.259  0.00  0.00    +0.530 C 
ATOM     29  O   LIG    1        0.027   5.878   2.323  0.00  0.00    -0.520 OA
ATOM     30  C   LIG    1       -3.398   7.850   5.262  0.00  0.00    +0.030 C 
ATOM     31  C   LIG    1       -3.187   4.385   2.644  0.00  0.00    +0.270 C 
ENDBRANCH  21  28
ENDBRANCH  20  21
ENDBRANCH   1  20
TORSDOF 4
