REMARK  Name = ZINC9p0000006kvT.0
REMARK                            x       y       z     vdW  Elec       q    Type
REMARK                         _______ _______ _______ _____ _____    ______ ____
ROOT
ATOM      1  C   LIG    1       -1.250   0.414   2.091  0.00  0.00    +0.040 C 
ATOM      2  C   LIG    1       -0.761   1.596   1.252  0.00  0.00    -0.060 C 
ATOM      3  C   LIG    1       -1.965   2.413   0.737  0.00  0.00    +0.050 C 
ATOM      4  C   LIG    1       -1.544   2.853  -0.688  0.00  0.00    +0.050 C 
ATOM      5  C   LIG    1       -0.786   1.611  -1.219  0.00  0.00    +0.050 C 
ATOM      6  C   LIG    1       -1.774   0.555  -1.721  0.00  0.00    +0.100 C 
ATOM      7  C   LIG    1        0.159   2.488   2.088  0.00  0.00    +0.040 C 
ATOM      8  C   LIG    1       -0.013   1.086   0.008  0.00  0.00    +0.060 C 
ENDROOT
BRANCH   5   9
ATOM      9  N   LIG    1        0.144   1.992  -2.289  0.00  0.00    -0.630 N 
ATOM     10  H   LIG    1        0.761   2.717  -1.956  0.00  0.00    +0.430 HD
ATOM     11  H   LIG    1       -0.377   2.332  -3.083  0.00  0.00    +0.430 HD
ATOM     12  H   LIG    1        0.689   1.188  -2.564  0.00  0.00    +0.430 HD
ENDBRANCH   5   9
TORSDOF 1
