REMARK  Name = ZINCrD00000F5Lv2.0
REMARK                            x       y       z     vdW  Elec       q    Type
REMARK                         _______ _______ _______ _____ _____    ______ ____
ROOT
ATOM      1  N   LIG    1       -6.345   1.917   0.452  0.00  0.00    -0.990 NA
ENDROOT
BRANCH   1   2
ATOM      2  S   LIG    1       -7.817   2.310   1.100  0.00  0.00    +2.670 S 
ATOM      3  O   LIG    1       -7.638   2.349   2.509  0.00  0.00    -0.950 OA
ATOM      4  O   LIG    1       -8.773   1.474   0.461  0.00  0.00    -0.950 OA
BRANCH   2   6
ATOM      5  C   LIG    1       -8.394   4.886   1.500  0.00  0.00    +0.240 C 
ATOM      6  C   LIG    1       -8.184   3.959   0.599  0.00  0.00    -0.590 C 
ENDBRANCH   2   6
ENDBRANCH   1   2
BRANCH   1   7
ATOM      7  C   LIG    1       -5.117   2.187   1.205  0.00  0.00    +0.310 C 
BRANCH   7   8
ATOM      8  C   LIG    1       -4.805   0.998   2.116  0.00  0.00    -0.010 C 
ATOM      9  C   LIG    1       -4.447  -0.256   1.284  0.00  0.00    +0.060 C 
ATOM     10  C   LIG    1       -2.938  -0.213   1.181  0.00  0.00    +0.520 C 
ATOM     11  N   LIG    1       -2.435   0.632   2.097  0.00  0.00    -0.610 N 
ATOM     12  O   LIG    1       -2.278  -0.850   0.387  0.00  0.00    -0.530 OA
ATOM     13  C   LIG    1       -3.500   1.230   2.912  0.00  0.00    +0.270 C 
BRANCH  11  14
ATOM     14  C   LIG    1       -1.008   0.917   2.265  0.00  0.00    +0.170 C 
ATOM     15  C   LIG    1       -0.756   2.410   2.045  0.00  0.00    +0.030 C 
ATOM     16  C   LIG    1       -0.574   0.529   3.679  0.00  0.00    +0.030 C 
ATOM     17  C   LIG    1       -0.204   0.108   1.245  0.00  0.00    +0.060 C 
ENDBRANCH  11  14
ENDBRANCH   7   8
ENDBRANCH   1   7
BRANCH   1  18
ATOM     18  C   LIG    1       -6.269   1.299  -0.874  0.00  0.00    +0.360 C 
BRANCH  18  19
ATOM     19  C   LIG    1       -6.083   2.370  -1.917  0.00  0.00    -0.060 A 
ATOM     20  C   LIG    1       -4.815   2.836  -2.210  0.00  0.00    +0.000 A 
ATOM     21  C   LIG    1       -4.641   3.819  -3.167  0.00  0.00    +0.090 A 
ATOM     22  C   LIG    1       -5.735   4.337  -3.834  0.00  0.00    -0.120 A 
ATOM     23  C   LIG    1       -7.009   3.870  -3.542  0.00  0.00    +0.160 A 
ATOM     24 BR   LIG    1       -5.496   5.680  -5.144  0.00  0.00    -0.030 Br
ATOM     25  C   LIG    1       -7.180   2.881  -2.585  0.00  0.00    -0.060 A 
BRANCH  23  26
ATOM     26  O   LIG    1       -8.087   4.378  -4.196  0.00  0.00    -0.300 OA
ATOM     27  C   LIG    1       -9.375   3.926  -3.773  0.00  0.00    +0.250 C 
ENDBRANCH  23  26
ENDBRANCH  18  19
ENDBRANCH   1  18
TORSDOF 8
