REMARK  Name = ZINCvU00000008CR.0
REMARK                            x       y       z     vdW  Elec       q    Type
REMARK                         _______ _______ _______ _____ _____    ______ ____
ROOT
ATOM      1  C   LIG    1       -3.720   3.062   0.045  0.00  0.00    +0.300 C 
ENDROOT
BRANCH   1   2
ATOM      2  C   LIG    1       -4.072   2.681   1.460  0.00  0.00    -0.110 A 
ATOM      3  C   LIG    1       -3.865   3.579   2.490  0.00  0.00    +0.030 A 
ATOM      4  C   LIG    1       -4.193   3.231   3.787  0.00  0.00    +0.000 A 
ATOM      5  C   LIG    1       -4.718   1.981   4.056  0.00  0.00    +0.010 A 
ATOM      6  C   LIG    1       -4.920   1.081   3.026  0.00  0.00    +0.020 A 
ATOM      7  C   LIG    1       -4.598   1.431   1.729  0.00  0.00    +0.020 A 
ENDBRANCH   1   2
BRANCH   1  10
ATOM      8  N   LIG    1       -6.072   3.423  -0.631  0.00  0.00    -0.660 N 
ATOM      9  H   LIG    1       -6.252   2.501  -0.391  0.00  0.00    +0.420 HD
ATOM     10  C   LIG    1       -4.821   3.914  -0.534  0.00  0.00    +0.520 C 
ATOM     11  O   LIG    1       -4.580   5.040  -0.913  0.00  0.00    -0.510 OA
BRANCH   8  16
ATOM     12  C   LIG    1      -10.295   6.752  -2.443  0.00  0.00    +0.100 C 
ATOM     13  C   LIG    1       -9.173   5.869  -1.962  0.00  0.00    -0.090 A 
ATOM     14  C   LIG    1       -9.415   4.912  -0.993  0.00  0.00    +0.050 A 
ATOM     15  C   LIG    1       -8.390   4.097  -0.553  0.00  0.00    +0.000 A 
ATOM     16  C   LIG    1       -7.113   4.245  -1.078  0.00  0.00    +0.150 A 
ATOM     17  C   LIG    1       -6.872   5.206  -2.051  0.00  0.00    +0.040 A 
ATOM     18  C   LIG    1       -7.902   6.016  -2.490  0.00  0.00    -0.020 A 
ATOM     19 CL   LIG    1       -7.602   7.218  -3.706  0.00  0.00    -0.060 Cl
ENDBRANCH   8  16
ENDBRANCH   1  10
BRANCH   1  20
ATOM     20  N   LIG    1       -2.465   3.817   0.041  0.00  0.00    -0.720 N 
ATOM     21  H   LIG    1       -2.482   4.787   0.053  0.00  0.00    +0.410 HD
BRANCH  20  22
ATOM     22  C   LIG    1       -1.241   3.139   0.021  0.00  0.00    +0.230 A 
ATOM     23  C   LIG    1       -1.217   1.751  -0.002  0.00  0.00    -0.060 A 
ATOM     24  C   LIG    1       -0.009   1.077  -0.017  0.00  0.00    +0.080 A 
ATOM     25  C   LIG    1        1.178   1.786  -0.022  0.00  0.00    +0.020 A 
ATOM     26  O   LIG    1        2.374   1.136  -0.044  0.00  0.00    -0.300 OA
ATOM     27  C   LIG    1        3.443   1.780  -0.740  0.00  0.00    +0.230 C 
ATOM     28  C   LIG    1        3.505   3.233  -0.342  0.00  0.00    +0.500 C 
ATOM     29  N   LIG    1        2.370   3.885  -0.007  0.00  0.00    -0.660 N 
ATOM     30  H   LIG    1        2.394   4.825   0.228  0.00  0.00    +0.420 HD
ATOM     31  O   LIG    1        4.569   3.814  -0.322  0.00  0.00    -0.510 OA
ATOM     32  C   LIG    1        3.205   1.676  -2.248  0.00  0.00    +0.060 C 
ATOM     33  C   LIG    1        1.157   3.181  -0.004  0.00  0.00    +0.140 A 
ATOM     34  C   LIG    1       -0.051   3.856   0.017  0.00  0.00    -0.060 A 
ENDBRANCH  20  22
ENDBRANCH   1  20
TORSDOF 5
