REMARK  Name = ZINCrD00000bGMOk.0
REMARK                            x       y       z     vdW  Elec       q    Type
REMARK                         _______ _______ _______ _____ _____    ______ ____
ROOT
ATOM      1  C   LIG    1        5.279   8.433  -0.003  0.00  0.00    +0.230 C 
ATOM      2  C   LIG    1        5.134   9.834  -0.604  0.00  0.00    +0.040 C 
ATOM      3  C   LIG    1        6.527  10.433  -0.832  0.00  0.00    +0.170 C 
ATOM      4  C   LIG    1        7.331  10.256   0.435  0.00  0.00    +0.210 A 
ATOM      5  N   LIG    1        8.433  10.864   0.757  0.00  0.00    -0.470 NA
ATOM      6  C   LIG    1        8.839  10.433   1.970  0.00  0.00    +0.040 A 
ATOM      7  C   LIG    1        7.936   9.514   2.407  0.00  0.00    +0.150 A 
ATOM      8  N   LIG    1        6.989   9.407   1.435  0.00  0.00    -0.450 N 
ATOM      9  C   LIG    1        5.805   8.545   1.432  0.00  0.00    +0.280 C 
ENDROOT
BRANCH   6  10
ATOM     10  C   LIG    1       10.053  10.880   2.697  0.00  0.00    -0.000 A 
ATOM     11  C   LIG    1       10.351  10.353   3.952  0.00  0.00    +0.010 A 
ATOM     12  C   LIG    1       11.485  10.769   4.620  0.00  0.00    +0.000 A 
ATOM     13  C   LIG    1       12.318  11.715   4.052  0.00  0.00    +0.000 A 
ATOM     14  C   LIG    1       12.024  12.246   2.809  0.00  0.00    +0.000 A 
ATOM     15  C   LIG    1       10.896  11.834   2.129  0.00  0.00    +0.030 A 
ENDBRANCH   6  10
BRANCH   1  17
ATOM     16  C   LIG    1        3.902   6.423  -0.001  0.00  0.00    +0.520 C 
ATOM     17  N   LIG    1        3.973   7.768   0.006  0.00  0.00    -0.730 N 
ATOM     18  H   LIG    1        3.160   8.297   0.016  0.00  0.00    +0.410 HD
ATOM     19  O   LIG    1        4.920   5.762  -0.014  0.00  0.00    -0.530 OA
BRANCH  16  20
ATOM     20  C   LIG    1        2.560   5.739   0.008  0.00  0.00    +0.040 C 
BRANCH  20  21
ATOM     21  C   LIG    1        2.760   4.222  -0.002  0.00  0.00    +0.130 C 
BRANCH  21  22
ATOM     22  C   LIG    1        1.397   3.527   0.008  0.00  0.00    +0.040 C 
ATOM     23  N   LIG    1        0.267   4.210   0.643  0.00  0.00    -0.120 NA
ATOM     24  N   LIG    1        0.255   4.216  -0.599  0.00  0.00    -0.120 NA
BRANCH  22  25
ATOM     25  C   LIG    1        1.417   1.997  -0.001  0.00  0.00    +0.120 C 
BRANCH  25  26
ATOM     26  C   LIG    1       -0.018   1.468   0.010  0.00  0.00    +0.160 C 
BRANCH  26  28
ATOM     27  C   LIG    1        0.018  -1.178  -0.004  0.00  0.00    +0.030 C 
ATOM     28  C   LIG    1        0.002  -0.004   0.002  0.00  0.00    -0.200 C 
ENDBRANCH  26  28
ENDBRANCH  25  26
ENDBRANCH  22  25
ENDBRANCH  21  22
ENDBRANCH  20  21
ENDBRANCH  16  20
ENDBRANCH   1  17
TORSDOF 8
