REMARK  Name = ZINCpk00000RLMMM.0
REMARK                            x       y       z     vdW  Elec       q    Type
REMARK                         _______ _______ _______ _____ _____    ______ ____
ROOT
ATOM      1  N   LIG    1       -2.509   5.278   0.951  0.00  0.00    -0.740 N 
ATOM      2  H   LIG    1       -1.649   5.690   1.132  0.00  0.00    +0.400 HD
ATOM      3  C   LIG    1       -3.625   5.768   1.525  0.00  0.00    +0.710 C 
ATOM      4  N   LIG    1       -3.548   6.832   2.350  0.00  0.00    -0.740 N 
ATOM      5  H   LIG    1       -2.689   7.244   2.530  0.00  0.00    +0.400 HD
ATOM      6  O   LIG    1       -4.702   5.251   1.299  0.00  0.00    -0.580 OA
ENDROOT
BRANCH   4   7
ATOM      7  C   LIG    1       -4.762   7.364   2.973  0.00  0.00    +0.260 C 
ATOM      8  C   LIG    1       -4.552   8.842   3.318  0.00  0.00    +0.040 C 
ATOM      9  C   LIG    1       -5.889   9.454   3.756  0.00  0.00    +0.180 C 
ATOM     10  C   LIG    1       -6.513   8.539   4.780  0.00  0.00    +0.270 A 
ATOM     11  N   LIG    1       -7.485   8.807   5.607  0.00  0.00    -0.540 NA
ATOM     12  C   LIG    1       -7.750   7.733   6.354  0.00  0.00    +0.420 A 
ATOM     13  N   LIG    1       -6.942   6.762   6.007  0.00  0.00    -0.310 NA
ATOM     14  N   LIG    1       -6.131   7.264   4.986  0.00  0.00    -0.370 N 
ATOM     15  C   LIG    1       -5.065   6.579   4.254  0.00  0.00    +0.310 C 
ENDBRANCH   4   7
BRANCH   1  17
ATOM     16  C   LIG    1       -2.934   4.596  -1.359  0.00  0.00    +0.040 C 
ATOM     17  C   LIG    1       -2.592   4.122   0.055  0.00  0.00    +0.310 C 
BRANCH  17  18
ATOM     18  C   LIG    1       -1.268   3.403   0.037  0.00  0.00    -0.090 A 
ATOM     19  C   LIG    1       -0.090   4.126   0.032  0.00  0.00    +0.020 A 
ATOM     20  C   LIG    1        1.126   3.470   0.015  0.00  0.00    +0.030 A 
ATOM     21  C   LIG    1        1.168   2.084   0.002  0.00  0.00    +0.050 A 
ATOM     22  O   LIG    1        2.373   1.453  -0.019  0.00  0.00    -0.310 OA
ATOM     23  C   LIG    1        2.381   0.069   0.347  0.00  0.00    +0.220 C 
ATOM     24  C   LIG    1        1.229  -0.629  -0.390  0.00  0.00    +0.220 C 
ATOM     25  O   LIG    1        0.002  -0.004   0.002  0.00  0.00    -0.310 OA
ATOM     26  C   LIG    1       -0.016   1.357   0.009  0.00  0.00    +0.060 A 
ATOM     27  C   LIG    1       -1.233   2.021   0.030  0.00  0.00    +0.040 A 
ENDBRANCH  17  18
ENDBRANCH   1  17
TORSDOF 3
