REMARK  Name = ZINCrm000010JV9x.0
REMARK                            x       y       z     vdW  Elec       q    Type
REMARK                         _______ _______ _______ _____ _____    ______ ____
ROOT
ATOM      1  C   LIG    1        2.079  -0.051  -0.138  0.00  0.00    +0.080 C 
ATOM      2  C   LIG    1        2.350   1.177   0.733  0.00  0.00    +0.140 C 
ENDROOT
BRANCH   2   3
ATOM      3  O   LIG    1        2.400   0.785   2.107  0.00  0.00    -0.550 OA
ATOM      4  H   LIG    1        2.394   1.526   2.728  0.00  0.00    +0.380 HD
ENDBRANCH   2   3
BRANCH   2   5
ATOM      5  C   LIG    1        3.688   1.802   0.333  0.00  0.00    +0.070 C 
BRANCH   5   6
ATOM      6  C   LIG    1        4.768   0.753   0.386  0.00  0.00    -0.080 A 
ATOM      7  C   LIG    1        4.905  -0.042   1.508  0.00  0.00    +0.030 A 
ATOM      8  C   LIG    1        5.893  -1.008   1.555  0.00  0.00    +0.000 A 
ATOM      9  C   LIG    1        6.751  -1.171   0.483  0.00  0.00    +0.010 A 
ATOM     10  C   LIG    1        6.618  -0.372  -0.637  0.00  0.00    +0.010 A 
ATOM     11  C   LIG    1        5.627   0.590  -0.685  0.00  0.00    +0.010 A 
ENDBRANCH   5   6
BRANCH   5  12
ATOM     12  C   LIG    1        4.025   2.920   1.286  0.00  0.00    -0.090 A 
ATOM     13  C   LIG    1        4.010   4.231   0.847  0.00  0.00    +0.000 A 
ATOM     14  C   LIG    1        4.314   5.256   1.722  0.00  0.00    +0.020 A 
ATOM     15  C   LIG    1        4.645   4.970   3.034  0.00  0.00    +0.020 A 
ATOM     16  C   LIG    1        4.666   3.659   3.471  0.00  0.00    +0.020 A 
ATOM     17  C   LIG    1        4.356   2.634   2.597  0.00  0.00    +0.010 A 
ENDBRANCH   5  12
ENDBRANCH   2   5
BRANCH   2  18
ATOM     18  C   LIG    1        1.229   2.200   0.535  0.00  0.00    +0.260 C 
BRANCH  18  19
ATOM     19  N   LIG    1       -0.052   1.601   0.919  0.00  0.00    -0.700 N 
ATOM     20  H   LIG    1       -0.083   0.686   1.239  0.00  0.00    +0.410 HD
ATOM     21  C   LIG    1       -1.188   2.320   0.822  0.00  0.00    +0.480 C 
ATOM     22  O   LIG    1       -1.140   3.489   0.501  0.00  0.00    -0.510 OA
BRANCH  21  23
ATOM     23  C   LIG    1       -2.517   1.672   1.111  0.00  0.00    -0.140 C 
ATOM     24  C   LIG    1       -2.603   1.238   2.592  0.00  0.00    +0.120 C 
ATOM     25  C   LIG    1       -3.345   2.385   3.304  0.00  0.00    +0.290 C 
ATOM     26  N   LIG    1       -3.630   3.417   2.283  0.00  0.00    -0.510 N 
ATOM     27  H   LIG    1       -2.897   4.111   2.277  0.00  0.00    +0.440 HD
ATOM     28  H   LIG    1       -4.521   3.852   2.468  0.00  0.00    +0.450 HD
ATOM     29  C   LIG    1       -3.668   2.701   0.983  0.00  0.00    +0.310 C 
BRANCH  23  30
ATOM     30  C   LIG    1       -2.747   0.477   0.183  0.00  0.00    +0.340 C 
BRANCH  30  31
ATOM     31  N   LIG    1       -2.665   0.920  -1.215  0.00  0.00    -0.640 N 
ATOM     32  H   LIG    1       -1.726   1.232  -1.415  0.00  0.00    +0.440 HD
ATOM     33  H   LIG    1       -3.311   1.681  -1.366  0.00  0.00    +0.440 HD
ATOM     34  H   LIG    1       -2.901   0.152  -1.826  0.00  0.00    +0.460 HD
ENDBRANCH  30  31
ENDBRANCH  23  30
ENDBRANCH  21  23
ENDBRANCH  18  19
ENDBRANCH   2  18
TORSDOF 9
