REMARK  Name = ZINCvU0000000HoZ.1
REMARK                            x       y       z     vdW  Elec       q    Type
REMARK                         _______ _______ _______ _____ _____    ______ ____
ROOT
ATOM      1  C   LIG    1        2.252   1.529   0.144  0.00  0.00    -0.170 A 
ATOM      2  C   LIG    1        1.309   2.531  -0.097  0.00  0.00    +0.070 A 
ATOM      3  C   LIG    1       -0.035   2.228  -0.080  0.00  0.00    -0.010 A 
ATOM      4  C   LIG    1       -0.458   0.933   0.175  0.00  0.00    +0.090 A 
ATOM      5  C   LIG    1        0.461  -0.067   0.416  0.00  0.00    -0.020 A 
ATOM      6  C   LIG    1        1.820   0.218   0.403  0.00  0.00    +0.220 A 
ENDROOT
BRANCH   1   9
ATOM      7  N   LIG    1        4.101   3.106  -0.122  0.00  0.00    -0.660 N 
ATOM      8  H   LIG    1        3.450   3.819  -0.212  0.00  0.00    +0.410 HD
ATOM      9  C   LIG    1        3.691   1.846   0.127  0.00  0.00    +0.560 C 
ATOM     10  O   LIG    1        4.509   0.971   0.338  0.00  0.00    -0.520 OA
BRANCH   7  14
ATOM     11  C   LIG    1        8.169   3.938  -0.509  0.00  0.00    +0.210 A 
ATOM     12  C   LIG    1        7.667   2.713  -0.932  0.00  0.00    -0.050 A 
ATOM     13  C   LIG    1        6.321   2.438  -0.803  0.00  0.00    +0.060 A 
ATOM     14  C   LIG    1        5.468   3.385  -0.252  0.00  0.00    +0.080 A 
ATOM     15  C   LIG    1        5.968   4.611   0.166  0.00  0.00    +0.030 A 
ATOM     16  C   LIG    1        7.316   4.885   0.043  0.00  0.00    -0.050 A 
BRANCH  11  17
ATOM     17  N   LIG    1        9.534   4.217  -0.640  0.00  0.00    -0.630 N 
BRANCH  17  19
ATOM     18  C   LIG    1       10.485   5.408   1.273  0.00  0.00    +0.010 C 
ATOM     19  C   LIG    1       10.063   5.508  -0.194  0.00  0.00    +0.260 C 
ENDBRANCH  17  19
BRANCH  17  20
ATOM     20  C   LIG    1       10.434   3.218  -1.222  0.00  0.00    +0.270 C 
ATOM     21  C   LIG    1       10.508   3.421  -2.737  0.00  0.00    +0.010 C 
ENDBRANCH  17  20
ENDBRANCH  11  17
ENDBRANCH   7  14
ENDBRANCH   1   9
BRANCH   6  22
ATOM     22  N   LIG    1        2.748  -0.787   0.645  0.00  0.00    -1.040 N 
ATOM     23  H   LIG    1        3.563  -0.588   1.131  0.00  0.00    +0.440 HD
BRANCH  22  24
ATOM     24  S   LIG    1        2.461  -2.325   0.102  0.00  0.00    +2.690 S 
ATOM     25  O   LIG    1        1.179  -2.692   0.593  0.00  0.00    -0.940 OA
ATOM     26  O   LIG    1        3.640  -3.072   0.371  0.00  0.00    -0.940 OA
BRANCH  24  27
ATOM     27  C   LIG    1        2.317  -2.240  -1.653  0.00  0.00    -0.670 A 
ATOM     28  C   LIG    1        1.080  -2.031  -2.235  0.00  0.00    +0.140 A 
ATOM     29  C   LIG    1        0.967  -1.959  -3.610  0.00  0.00    +0.040 A 
ATOM     30  C   LIG    1        2.089  -2.107  -4.405  0.00  0.00    -0.040 A 
ATOM     31  C   LIG    1        3.325  -2.322  -3.822  0.00  0.00    +0.040 A 
ATOM     32 BR   LIG    1        1.934  -2.017  -6.287  0.00  0.00    -0.030 Br
ATOM     33  C   LIG    1        3.438  -2.389  -2.446  0.00  0.00    +0.140 A 
ENDBRANCH  24  27
ENDBRANCH  22  24
ENDBRANCH   6  22
TORSDOF 8
