REMARK  Name = ZINCvU0000000HOZ.0
REMARK                            x       y       z     vdW  Elec       q    Type
REMARK                         _______ _______ _______ _____ _____    ______ ____
ROOT
ATOM      1  C   LIG    1        5.898   6.137   0.957  0.00  0.00    +0.280 A 
ATOM      2  N   LIG    1        4.965   5.247   1.092  0.00  0.00    -0.460 NA
ATOM      3  C   LIG    1        4.438   4.761  -0.015  0.00  0.00    +0.100 A 
ATOM      4  C   LIG    1        4.954   5.260  -1.141  0.00  0.00    -0.080 A 
ATOM      5  S   LIG    1        6.189   6.436  -0.701  0.00  0.00    +0.150 S 
ENDROOT
BRANCH   1   6
ATOM      6  N   LIG    1        6.566   6.758   2.008  0.00  0.00    -0.470 N 
ATOM      7  C   LIG    1        6.256   6.445   3.281  0.00  0.00    +0.520 C 
ATOM      8  O   LIG    1        5.395   5.622   3.512  0.00  0.00    -0.470 OA
ATOM      9  C   LIG    1        6.979   7.117   4.420  0.00  0.00    +0.110 C 
BRANCH   6  15
ATOM     10  C   LIG    1        8.888   7.310   1.597  0.00  0.00    +0.150 A 
ATOM     11  C   LIG    1        9.867   8.254   1.333  0.00  0.00    -0.060 A 
ATOM     12  C   LIG    1        9.526   9.589   1.216  0.00  0.00    +0.080 A 
ATOM     13  C   LIG    1        8.210   9.986   1.359  0.00  0.00    -0.010 A 
ATOM     14  C   LIG    1        7.226   9.049   1.616  0.00  0.00    +0.080 A 
ATOM     15  C   LIG    1        7.561   7.709   1.742  0.00  0.00    +0.060 A 
BRANCH  10  17
ATOM     16  C   LIG    1       10.601   5.661   1.552  0.00  0.00    +0.240 C 
ATOM     17  O   LIG    1        9.221   5.997   1.713  0.00  0.00    -0.310 OA
ENDBRANCH  10  17
ENDBRANCH   6  15
ENDBRANCH   1   6
BRANCH   3  18
ATOM     18  C   LIG    1        3.348   3.721  -0.010  0.00  0.00    +0.200 C 
BRANCH  18  19
ATOM     19  S   LIG    1        1.734   4.539   0.009  0.00  0.00    -0.000 S 
BRANCH  19  20
ATOM     20  C   LIG    1        0.676   3.130   0.012  0.00  0.00    +0.190 A 
ATOM     21  N   LIG    1        1.066   1.877   0.002  0.00  0.00    -0.490 NA
ATOM     22  C   LIG    1       -0.013   1.076   0.008  0.00  0.00    +0.150 A 
ATOM     23  C   LIG    1       -1.113   1.848   0.017  0.00  0.00    +0.140 A 
ATOM     24  N   LIG    1       -0.685   3.156   0.025  0.00  0.00    -0.440 N 
BRANCH  24  25
ATOM     25  C   LIG    1       -1.534   4.350   0.039  0.00  0.00    +0.350 C 
BRANCH  25  26
ATOM     26  C   LIG    1       -1.737   4.839  -1.372  0.00  0.00    -0.120 A 
ATOM     27  C   LIG    1       -0.861   5.757  -1.919  0.00  0.00    +0.040 A 
ATOM     28  C   LIG    1       -1.044   6.202  -3.215  0.00  0.00    +0.010 A 
ATOM     29  C   LIG    1       -2.111   5.735  -3.961  0.00  0.00    +0.010 A 
ATOM     30  C   LIG    1       -2.990   4.820  -3.413  0.00  0.00    +0.010 A 
ATOM     31  C   LIG    1       -2.803   4.372  -2.118  0.00  0.00    +0.020 A 
ENDBRANCH  25  26
ENDBRANCH  24  25
ENDBRANCH  19  20
ENDBRANCH  18  19
ENDBRANCH   3  18
TORSDOF 8
