REMARK  Name = ZINCpk000000oBSe.0
REMARK                            x       y       z     vdW  Elec       q    Type
REMARK                         _______ _______ _______ _____ _____    ______ ____
ROOT
ATOM      1  N   LIG    1        3.854  -1.401  -1.778  0.00  0.00    -1.010 NA
ATOM      2  C   LIG    1        3.299  -1.627  -0.435  0.00  0.00    +0.310 C 
ATOM      3  C   LIG    1        1.924  -0.954  -0.357  0.00  0.00    +0.180 C 
ATOM      4  N   LIG    1        2.049   0.456  -0.748  0.00  0.00    -0.520 NA
ATOM      5  C   LIG    1        2.488   0.585  -2.144  0.00  0.00    +0.180 C 
ATOM      6  C   LIG    1        3.886  -0.024  -2.295  0.00  0.00    +0.310 C 
ENDROOT
BRANCH   1   7
ATOM      7  S   LIG    1        4.429  -2.662  -2.683  0.00  0.00    +2.780 S 
ATOM      8  O   LIG    1        4.685  -3.724  -1.775  0.00  0.00    -0.970 OA
ATOM      9  O   LIG    1        5.421  -2.119  -3.544  0.00  0.00    -0.970 OA
BRANCH   7  10
ATOM     10  N   LIG    1        3.190  -3.170  -3.658  0.00  0.00    -1.010 NA
BRANCH  10  12
ATOM     11  C   LIG    1        3.632  -3.205  -6.064  0.00  0.00    +0.020 C 
ATOM     12  C   LIG    1        2.921  -2.477  -4.921  0.00  0.00    +0.270 C 
ENDBRANCH  10  12
BRANCH  10  13
ATOM     13  C   LIG    1        2.364  -4.311  -3.259  0.00  0.00    +0.280 C 
ATOM     14  C   LIG    1        1.117  -3.808  -2.528  0.00  0.00    +0.010 C 
ENDBRANCH  10  13
ENDBRANCH   7  10
ENDBRANCH   1   7
BRANCH   4  15
ATOM     15  C   LIG    1        0.790   1.179  -0.523  0.00  0.00    +0.220 C 
BRANCH  15  16
ATOM     16  C   LIG    1        1.022   2.658  -0.698  0.00  0.00    +0.510 C 
ATOM     17  N   LIG    1       -0.001   3.522  -0.545  0.00  0.00    -0.680 N 
ATOM     18  H   LIG    1       -0.899   3.190  -0.395  0.00  0.00    +0.410 HD
ATOM     19  O   LIG    1        2.127   3.069  -0.983  0.00  0.00    -0.490 OA
BRANCH  17  20
ATOM     20  C   LIG    1        0.235   4.901  -0.602  0.00  0.00    +0.150 A 
ATOM     21  C   LIG    1        1.435   5.422  -0.135  0.00  0.00    +0.030 A 
ATOM     22  C   LIG    1        1.666   6.782  -0.196  0.00  0.00    +0.050 A 
ATOM     23  C   LIG    1        0.699   7.627  -0.713  0.00  0.00    -0.050 A 
ATOM     24  C   LIG    1       -0.499   7.111  -1.174  0.00  0.00    +0.050 A 
ATOM     25 CL   LIG    1        0.991   9.337  -0.783  0.00  0.00    -0.070 Cl
ATOM     26  C   LIG    1       -0.734   5.751  -1.119  0.00  0.00    +0.010 A 
ENDBRANCH  17  20
ENDBRANCH  15  16
ENDBRANCH   4  15
TORSDOF 7
