REMARK  Name = ZINCvU0000000DXf.0
REMARK                            x       y       z     vdW  Elec       q    Type
REMARK                         _______ _______ _______ _____ _____    ______ ____
ROOT
ATOM      1  C   LIG    1        1.231   2.102  -0.162  0.00  0.00    -0.270 A 
ATOM      2  C   LIG    1        2.507   1.598  -0.018  0.00  0.00    +0.300 A 
ATOM      3  N   LIG    1        3.367   2.630  -0.082  0.00  0.00    -0.300 N 
ATOM      4  N   LIG    1        2.659   3.821  -0.268  0.00  0.00    -0.270 NA
ATOM      5  C   LIG    1        1.374   3.552  -0.327  0.00  0.00    +0.190 A 
ENDROOT
BRANCH   3   6
ATOM      6  C   LIG    1        4.760   2.527   0.022  0.00  0.00    +0.150 A 
ATOM      7  C   LIG    1        5.354   1.287   0.212  0.00  0.00    -0.010 A 
ATOM      8  C   LIG    1        6.729   1.188   0.307  0.00  0.00    +0.050 A 
ATOM      9  C   LIG    1        7.512   2.325   0.227  0.00  0.00    +0.010 A 
ATOM     10  C   LIG    1        6.923   3.562   0.044  0.00  0.00    +0.050 A 
ATOM     11  C   LIG    1        5.550   3.667  -0.059  0.00  0.00    +0.030 A 
ENDBRANCH   3   6
BRANCH   5  12
ATOM     12  C   LIG    1        0.276   4.529  -0.521  0.00  0.00    -0.090 A 
ATOM     13  C   LIG    1        0.363   5.812   0.027  0.00  0.00    +0.100 A 
ATOM     14  C   LIG    1       -0.689   6.688  -0.183  0.00  0.00    -0.050 A 
ATOM     15  C   LIG    1       -1.781   6.270  -0.921  0.00  0.00    +0.270 A 
ATOM     16  N   LIG    1       -1.834   5.052  -1.426  0.00  0.00    -0.490 NA
ATOM     17  C   LIG    1       -0.856   4.186  -1.258  0.00  0.00    +0.340 A 
ENDBRANCH   5  12
BRANCH   1  20
ATOM     18  N   LIG    1        0.002  -0.004   0.002  0.00  0.00    -0.670 N 
ATOM     19  H   LIG    1        0.852  -0.470   0.037  0.00  0.00    +0.400 HD
ATOM     20  C   LIG    1       -0.026   1.334  -0.156  0.00  0.00    +0.590 C 
ATOM     21  O   LIG    1       -1.089   1.907  -0.299  0.00  0.00    -0.510 OA
BRANCH  18  25
ATOM     22  C   LIG    1       -3.564  -2.140   0.339  0.00  0.00    +0.210 A 
ATOM     23  C   LIG    1       -2.464  -2.718  -0.281  0.00  0.00    -0.050 A 
ATOM     24  C   LIG    1       -1.284  -2.011  -0.392  0.00  0.00    +0.030 A 
ATOM     25  C   LIG    1       -1.196  -0.722   0.115  0.00  0.00    +0.090 A 
ATOM     26  C   LIG    1       -2.294  -0.145   0.740  0.00  0.00    +0.060 A 
ATOM     27  C   LIG    1       -3.476  -0.850   0.847  0.00  0.00    -0.060 A 
BRANCH  22  28
ATOM     28  N   LIG    1       -4.760  -2.856   0.453  0.00  0.00    -0.630 N 
BRANCH  28  30
ATOM     29  C   LIG    1       -6.761  -1.505   0.066  0.00  0.00    +0.010 C 
ATOM     30  C   LIG    1       -5.920  -2.246   1.107  0.00  0.00    +0.270 C 
ENDBRANCH  28  30
BRANCH  28  31
ATOM     31  C   LIG    1       -4.853  -4.217  -0.082  0.00  0.00    +0.260 C 
ATOM     32  C   LIG    1       -4.448  -5.219   1.001  0.00  0.00    +0.010 C 
ENDBRANCH  28  31
ENDBRANCH  22  28
ENDBRANCH  18  25
ENDBRANCH   1  20
TORSDOF 7
