REMARK  Name = ZINCrD00000kdSRm.0
REMARK                            x       y       z     vdW  Elec       q    Type
REMARK                         _______ _______ _______ _____ _____    ______ ____
ROOT
ATOM      1  C   LIG    1       -1.169   1.932   0.009  0.00  0.00    +0.010 A 
ATOM      2  N   LIG    1       -1.363   3.238   0.040  0.00  0.00    -0.320 NA
ATOM      3  C   LIG    1       -0.314   4.059   0.043  0.00  0.00    +0.010 A 
ATOM      4  C   LIG    1       -0.468   5.458   0.069  0.00  0.00    +0.100 A 
ATOM      5  C   LIG    1        0.636   6.253   0.070  0.00  0.00    +0.010 A 
ATOM      6  C   LIG    1        1.921   5.719   0.046  0.00  0.00    +0.080 A 
ATOM      7  C   LIG    1        2.136   4.375   0.019  0.00  0.00    +0.020 A 
ATOM      8  C   LIG    1        1.039   3.498   0.017  0.00  0.00    +0.180 A 
ATOM      9  N   LIG    1        1.199   2.171  -0.009  0.00  0.00    -0.500 NA
ATOM     10  C   LIG    1        0.136   1.389  -0.011  0.00  0.00    +0.420 A 
ENDROOT
BRANCH   1  11
ATOM     11  C   LIG    1       -2.336   1.023   0.001  0.00  0.00    +0.540 C 
ATOM     12  O   LIG    1       -2.171  -0.177   0.080  0.00  0.00    -0.510 OA
BRANCH  11  13
ATOM     13  O   LIG    1       -3.581   1.527  -0.096  0.00  0.00    -0.330 OA
BRANCH  13  15
ATOM     14  C   LIG    1       -6.006   1.329  -0.213  0.00  0.00    +0.070 C 
ATOM     15  C   LIG    1       -4.679   0.576  -0.098  0.00  0.00    +0.220 C 
ENDBRANCH  13  15
ENDBRANCH  11  13
ENDBRANCH   1  11
BRANCH  10  16
ATOM     16  N   LIG    1        0.301   0.016  -0.037  0.00  0.00    -0.680 N 
ATOM     17  H   LIG    1       -0.471  -0.567   0.036  0.00  0.00    +0.430 HD
BRANCH  16  18
ATOM     18  C   LIG    1        1.642  -0.557  -0.177  0.00  0.00    +0.220 C 
ATOM     19  C   LIG    1        2.298  -0.681   1.204  0.00  0.00    +0.240 C 
ATOM     20  O   LIG    1        3.637  -1.144   1.027  0.00  0.00    -0.300 OA
ATOM     21  C   LIG    1        3.834  -2.228   0.231  0.00  0.00    +0.160 A 
ATOM     22  C   LIG    1        5.044  -2.907   0.323  0.00  0.00    -0.030 A 
ATOM     23  C   LIG    1        5.286  -4.009  -0.476  0.00  0.00    +0.140 A 
ATOM     24  C   LIG    1        4.320  -4.438  -1.370  0.00  0.00    -0.040 A 
ATOM     25  C   LIG    1        3.117  -3.765  -1.462  0.00  0.00    +0.090 A 
ATOM     26  F   LIG    1        6.463  -4.666  -0.384  0.00  0.00    -0.130 F 
ATOM     27  C   LIG    1        2.870  -2.661  -0.663  0.00  0.00    -0.170 A 
ATOM     28  C   LIG    1        1.543  -1.956  -0.790  0.00  0.00    +0.100 C 
ENDBRANCH  16  18
ENDBRANCH  10  16
TORSDOF 5
