REMARK  Name = ZINCrH00000tj1ju.0
REMARK                            x       y       z     vdW  Elec       q    Type
REMARK                         _______ _______ _______ _____ _____    ______ ____
ROOT
ATOM      1  C   LIG    1        5.257   0.466   0.062  0.00  0.00    -0.070 A 
ATOM      2  C   LIG    1        6.614   0.144   0.028  0.00  0.00    +0.070 A 
ATOM      3  C   LIG    1        7.558   1.145  -0.081  0.00  0.00    +0.040 A 
ATOM      4  C   LIG    1        7.168   2.471  -0.155  0.00  0.00    +0.050 A 
ATOM      5  C   LIG    1        5.830   2.810  -0.128  0.00  0.00    +0.040 A 
ATOM      6  C   LIG    1        4.862   1.815  -0.014  0.00  0.00    +0.010 A 
ENDROOT
BRANCH   6   7
ATOM      7  C   LIG    1        3.428   2.173   0.021  0.00  0.00    +0.140 A 
ATOM      8  N   LIG    1        2.456   1.325   0.003  0.00  0.00    -0.440 NA
ATOM      9  C   LIG    1        1.206   1.799   0.040  0.00  0.00    +0.090 A 
ATOM     10  C   LIG    1       -0.013   1.084   0.031  0.00  0.00    +0.070 A 
ATOM     11  C   LIG    1       -1.202   1.744   0.070  0.00  0.00    +0.030 A 
ATOM     12  C   LIG    1       -1.245   3.130   0.131  0.00  0.00    +0.050 A 
ATOM     13  C   LIG    1       -0.075   3.855   0.141  0.00  0.00    +0.060 A 
ATOM     14  C   LIG    1        1.153   3.198   0.096  0.00  0.00    -0.170 A 
ATOM     15  S   LIG    1        2.804   3.815   0.095  0.00  0.00    +0.080 S 
ENDBRANCH   6   7
BRANCH   1  16
ATOM     16  C   LIG    1        4.244  -0.600   0.177  0.00  0.00    +0.520 C 
ATOM     17  O   LIG    1        3.414  -0.556   1.064  0.00  0.00    -0.460 OA
BRANCH  16  18
ATOM     18  O   LIG    1        4.238  -1.622  -0.701  0.00  0.00    -0.330 OA
BRANCH  18  19
ATOM     19  C   LIG    1        3.212  -2.635  -0.527  0.00  0.00    +0.270 C 
BRANCH  19  21
ATOM     20  O   LIG    1        4.246  -3.598  -2.417  0.00  0.00    -0.500 OA
ATOM     21  C   LIG    1        3.362  -3.690  -1.592  0.00  0.00    +0.530 C 
ATOM     22  N   LIG    1        2.513  -4.736  -1.629  0.00  0.00    -0.730 N 
ATOM     23  H   LIG    1        1.806  -4.810  -0.969  0.00  0.00    +0.410 HD
BRANCH  22  24
ATOM     24  C   LIG    1        2.659  -5.762  -2.665  0.00  0.00    +0.320 C 
BRANCH  24  25
ATOM     25  C   LIG    1        1.578  -6.829  -2.482  0.00  0.00    +0.450 C 
ATOM     26  F   LIG    1        1.713  -7.418  -1.220  0.00  0.00    -0.180 F 
ATOM     27  F   LIG    1        1.717  -7.808  -3.471  0.00  0.00    -0.170 F 
ATOM     28  F   LIG    1        0.315  -6.236  -2.587  0.00  0.00    -0.180 F 
ENDBRANCH  24  25
ENDBRANCH  22  24
ENDBRANCH  19  21
ENDBRANCH  18  19
ENDBRANCH  16  18
ENDBRANCH   1  16
TORSDOF 7
