REMARK  Name = ZINCkj000005jKjF.0
REMARK                            x       y       z     vdW  Elec       q    Type
REMARK                         _______ _______ _______ _____ _____    ______ ____
ROOT
ATOM      1  C   LIG    1        0.142  -5.604   1.154  0.00  0.00    +0.210 C 
ENDROOT
BRANCH   1   2
ATOM      2  N   LIG    1       -0.384  -6.975   1.152  0.00  0.00    -0.680 NA
ATOM      3  H   LIG    1       -0.837  -7.187   0.276  0.00  0.00    +0.360 HD
BRANCH   2   5
ATOM      4  C   LIG    1       -2.701  -6.722   1.901  0.00  0.00    +0.020 C 
ATOM      5  C   LIG    1       -1.296  -7.191   2.283  0.00  0.00    +0.170 C 
BRANCH   5   6
ATOM      6  C   LIG    1       -1.333  -8.681   2.631  0.00  0.00    +0.180 C 
ATOM      7  C   LIG    1       -1.761  -9.499   1.395  0.00  0.00    +0.080 C 
ATOM      8  C   LIG    1       -2.667 -10.602   2.002  0.00  0.00    +0.080 C 
ATOM      9  C   LIG    1       -3.370  -9.834   3.149  0.00  0.00    +0.260 C 
ATOM     10  N   LIG    1       -2.334  -8.925   3.685  0.00  0.00    -0.510 N 
ATOM     11  H   LIG    1       -2.760  -8.051   3.958  0.00  0.00    +0.430 HD
ATOM     12  H   LIG    1       -1.890  -9.351   4.484  0.00  0.00    +0.430 HD
ENDBRANCH   5   6
ENDBRANCH   2   5
ENDBRANCH   1   2
BRANCH   1  13
ATOM     13  C   LIG    1        1.086  -5.417  -0.036  0.00  0.00    +0.160 C 
BRANCH  13  14
ATOM     14  C   LIG    1        1.625  -4.010  -0.033  0.00  0.00    +0.290 A 
ATOM     15  N   LIG    1        0.910  -2.917  -0.021  0.00  0.00    -0.520 NA
ATOM     16  C   LIG    1        1.718  -1.846  -0.024  0.00  0.00    +0.310 A 
ATOM     17  N   LIG    1        2.967  -2.261  -0.043  0.00  0.00    -0.280 NA
ATOM     18  N   LIG    1        2.925  -3.665  -0.044  0.00  0.00    -0.470 N 
ATOM     19  H   LIG    1        3.685  -4.268  -0.053  0.00  0.00    +0.450 HD
BRANCH  16  20
ATOM     20  C   LIG    1        1.278  -0.434  -0.013  0.00  0.00    +0.040 A 
ATOM     21  C   LIG    1        2.092   0.654  -0.014  0.00  0.00    +0.020 A 
ATOM     22  C   LIG    1        1.254   1.787  -0.000  0.00  0.00    -0.060 A 
ATOM     23  C   LIG    1       -0.016   1.339   0.009  0.00  0.00    +0.200 A 
ATOM     24  O   LIG    1        0.002  -0.004   0.002  0.00  0.00    -0.160 OA
ENDBRANCH  16  20
ENDBRANCH  13  14
ENDBRANCH   1  13
TORSDOF 6
