REMARK  Name = ZINCrH000004rMdG.0
REMARK                            x       y       z     vdW  Elec       q    Type
REMARK                         _______ _______ _______ _____ _____    ______ ____
ROOT
ATOM      1  N   LIG    1        4.304  -3.099   2.450  0.00  0.00    -0.720 N 
ATOM      2  H   LIG    1        4.326  -3.957   1.998  0.00  0.00    +0.410 HD
ATOM      3  C   LIG    1        4.294  -1.959   1.732  0.00  0.00    +0.490 C 
ATOM      4  O   LIG    1        4.267  -0.886   2.297  0.00  0.00    -0.540 OA
ENDROOT
BRANCH   3   5
ATOM      5  C   LIG    1        4.317  -2.017   0.226  0.00  0.00    +0.180 C 
ATOM      6  C   LIG    1        5.586  -2.735  -0.238  0.00  0.00    +0.060 C 
BRANCH   5   7
ATOM      7  N   LIG    1        4.300  -0.653  -0.317  0.00  0.00    -0.660 NA
ATOM      8  H   LIG    1        4.820  -0.022   0.275  0.00  0.00    +0.360 HD
BRANCH   7   9
ATOM      9  C   LIG    1        2.923  -0.179  -0.510  0.00  0.00    +0.180 C 
ATOM     10  C   LIG    1        2.392  -0.687  -1.852  0.00  0.00    +0.050 C 
BRANCH   9  11
ATOM     11  C   LIG    1        2.903   1.327  -0.500  0.00  0.00    -0.070 A 
ATOM     12  C   LIG    1        4.039   2.036  -0.842  0.00  0.00    +0.040 A 
ATOM     13  C   LIG    1        4.022   3.418  -0.833  0.00  0.00    +0.020 A 
ATOM     14  C   LIG    1        2.868   4.093  -0.481  0.00  0.00    +0.020 A 
ATOM     15  C   LIG    1        1.731   3.385  -0.137  0.00  0.00    +0.020 A 
ATOM     16  C   LIG    1        1.746   2.002  -0.153  0.00  0.00    -0.030 A 
ATOM     17 CL   LIG    1        0.316   1.113   0.270  0.00  0.00    -0.070 Cl
ENDBRANCH   9  11
ENDBRANCH   7   9
ENDBRANCH   5   7
ENDBRANCH   3   5
BRANCH   1  18
ATOM     18  C   LIG    1        4.282  -3.043   3.914  0.00  0.00    +0.300 C 
BRANCH  18  21
ATOM     19  N   LIG    1        4.284  -4.638   5.805  0.00  0.00    -0.670 N 
ATOM     20  H   LIG    1        4.219  -3.879   6.405  0.00  0.00    +0.410 HD
ATOM     21  C   LIG    1        4.300  -4.443   4.471  0.00  0.00    +0.510 C 
ATOM     22  O   LIG    1        4.327  -5.394   3.720  0.00  0.00    -0.510 OA
BRANCH  19  30
ATOM     23  C   LIG    1        2.314  -6.527   5.001  0.00  0.00    +0.090 C 
ATOM     24  C   LIG    1        3.421  -6.888   5.957  0.00  0.00    -0.070 A 
ATOM     25  C   LIG    1        3.503  -8.169   6.468  0.00  0.00    +0.010 A 
ATOM     26  C   LIG    1        4.516  -8.500   7.349  0.00  0.00    +0.020 A 
ATOM     27  C   LIG    1        5.452  -7.552   7.719  0.00  0.00    +0.010 A 
ATOM     28  C   LIG    1        5.378  -6.271   7.209  0.00  0.00    -0.090 A 
ATOM     29  C   LIG    1        6.398  -5.237   7.613  0.00  0.00    +0.080 C 
ATOM     30  C   LIG    1        4.362  -5.935   6.323  0.00  0.00    +0.130 A 
ENDBRANCH  19  30
ENDBRANCH  18  21
ENDBRANCH   1  18
TORSDOF 7
