REMARK  Name = ZINCpk000005XMr7.0
REMARK                            x       y       z     vdW  Elec       q    Type
REMARK                         _______ _______ _______ _____ _____    ______ ____
ROOT
ATOM      1  C   LIG    1       -1.003   1.636   1.025  0.00  0.00    +0.280 C 
ENDROOT
BRANCH   1   2
ATOM      2  C   LIG    1       -0.034   1.074  -0.017  0.00  0.00    +0.220 C 
ATOM      3  C   LIG    1       -0.149   1.751  -1.390  0.00  0.00    +0.040 C 
ATOM      4  C   LIG    1        1.380   1.620  -1.384  0.00  0.00    +0.280 C 
ATOM      5  N   LIG    1        1.324   1.630   0.085  0.00  0.00    -0.640 N 
ATOM      6  C   LIG    1        2.152   1.990   1.085  0.00  0.00    +0.540 C 
ATOM      7  O   LIG    1        1.835   1.786   2.238  0.00  0.00    -0.530 OA
BRANCH   6   8
ATOM      8  C   LIG    1        3.473   2.645   0.772  0.00  0.00    +0.080 C 
BRANCH   8   9
ATOM      9  C   LIG    1        4.213   2.949   2.075  0.00  0.00    +0.170 C 
BRANCH   9  10
ATOM     10  C   LIG    1        5.534   3.605   1.761  0.00  0.00    +0.210 A 
ATOM     11  N   LIG    1        6.455   3.120   0.975  0.00  0.00    -0.490 NA
ATOM     12  C   LIG    1        7.491   3.971   0.931  0.00  0.00    +0.140 A 
ATOM     13  C   LIG    1        7.201   5.022   1.721  0.00  0.00    +0.120 A 
ATOM     14  N   LIG    1        5.957   4.793   2.243  0.00  0.00    -0.570 N 
ATOM     15  H   LIG    1        5.470   5.375   2.848  0.00  0.00    +0.420 HD
ENDBRANCH   9  10
ENDBRANCH   8   9
ENDBRANCH   6   8
ENDBRANCH   1   2
BRANCH   1  18
ATOM     16  O   LIG    1       -3.207   2.284   2.438  0.00  0.00    -0.510 OA
ATOM     17  C   LIG    1       -3.338   1.356   1.661  0.00  0.00    +0.590 C 
ATOM     18  N   LIG    1       -2.294   0.955   0.909  0.00  0.00    -0.730 N 
ATOM     19  H   LIG    1       -2.398   0.215   0.290  0.00  0.00    +0.400 HD
BRANCH  17  20
ATOM     20  C   LIG    1       -4.630   0.674   1.545  0.00  0.00    -0.000 A 
ATOM     21  C   LIG    1       -5.771   0.982   2.252  0.00  0.00    +0.090 A 
ATOM     22  C   LIG    1       -6.776   0.097   1.845  0.00  0.00    -0.040 A 
ATOM     23  C   LIG    1       -6.223  -0.746   0.886  0.00  0.00    +0.020 A 
ATOM     24  C   LIG    1       -7.255  -1.629   0.492  0.00  0.00    -0.050 A 
ATOM     25  C   LIG    1       -8.351  -1.301   1.200  0.00  0.00    +0.230 A 
ATOM     26  O   LIG    1       -8.066  -0.268   2.010  0.00  0.00    -0.170 OA
ATOM     27  N   LIG    1       -4.913  -0.384   0.704  0.00  0.00    -0.530 N 
ATOM     28  H   LIG    1       -4.290  -0.802   0.089  0.00  0.00    +0.420 HD
ENDBRANCH  17  20
ENDBRANCH   1  18
TORSDOF 6
