REMARK  Name = ZINCrD0000074vQX.0
REMARK                            x       y       z     vdW  Elec       q    Type
REMARK                         _______ _______ _______ _____ _____    ______ ____
ROOT
ATOM      1  N   LIG    1       -0.364   1.213  -1.192  0.00  0.00    -0.730 N 
ATOM      2  H   LIG    1       -1.192   1.709  -1.291  0.00  0.00    +0.400 HD
ATOM      3  C   LIG    1       -0.350  -0.120  -1.387  0.00  0.00    +0.520 C 
ATOM      4  O   LIG    1        0.686  -0.740  -1.267  0.00  0.00    -0.530 OA
ENDROOT
BRANCH   1   9
ATOM      5  N   LIG    1        2.000   4.088  -0.888  0.00  0.00    -0.490 N 
ATOM      6  C   LIG    1        2.194   4.077   0.568  0.00  0.00    +0.200 C 
ATOM      7  C   LIG    1        2.337   2.633   1.054  0.00  0.00    +0.050 C 
ATOM      8  C   LIG    1        1.077   1.847   0.682  0.00  0.00    +0.000 C 
ATOM      9  C   LIG    1        0.871   1.915  -0.834  0.00  0.00    +0.250 C 
ATOM     10  C   LIG    1        0.770   3.379  -1.265  0.00  0.00    +0.190 C 
BRANCH   5  15
ATOM     11  C   LIG    1        0.756   8.849  -1.709  0.00  0.00    +0.160 C 
ATOM     12  C   LIG    1        1.465   7.520  -1.768  0.00  0.00    +0.080 A 
ATOM     13  N   LIG    1        2.515   7.244  -2.498  0.00  0.00    -0.290 NA
ATOM     14  N   LIG    1        2.871   5.908  -2.273  0.00  0.00    -0.350 N 
ATOM     15  C   LIG    1        1.997   5.390  -1.381  0.00  0.00    +0.260 A 
ATOM     16  C   LIG    1        3.991   5.198  -2.895  0.00  0.00    +0.350 C 
ATOM     17  C   LIG    1        1.110   6.371  -1.056  0.00  0.00    -0.150 A 
ENDBRANCH   5  15
ENDBRANCH   1   9
BRANCH   3  18
ATOM     18  C   LIG    1       -1.621  -0.842  -1.755  0.00  0.00    +0.060 C 
BRANCH  18  19
ATOM     19  C   LIG    1       -1.330  -2.335  -1.919  0.00  0.00    +0.010 C 
ATOM     20  C   LIG    1       -0.875  -2.723  -3.335  0.00  0.00    +0.030 C 
ATOM     21  C   LIG    1       -1.747  -3.981  -3.186  0.00  0.00    +0.020 C 
ATOM     22  C   LIG    1       -2.587  -3.183  -2.176  0.00  0.00    +0.020 C 
BRANCH  21  23
ATOM     23  C   LIG    1       -2.498  -4.348  -4.440  0.00  0.00    -0.070 A 
ATOM     24  C   LIG    1       -3.029  -3.357  -5.244  0.00  0.00    +0.000 A 
ATOM     25  C   LIG    1       -3.714  -3.693  -6.396  0.00  0.00    +0.000 A 
ATOM     26  C   LIG    1       -3.878  -5.023  -6.739  0.00  0.00    -0.010 A 
ATOM     27  C   LIG    1       -3.353  -6.014  -5.932  0.00  0.00    +0.000 A 
ATOM     28  C   LIG    1       -2.663  -5.677  -4.782  0.00  0.00    +0.000 A 
ENDBRANCH  21  23
ENDBRANCH  18  19
ENDBRANCH   3  18
TORSDOF 5
