REMARK  Name = ZINCtV00001bB3EB.0
REMARK                            x       y       z     vdW  Elec       q    Type
REMARK                         _______ _______ _______ _____ _____    ______ ____
ROOT
ATOM      1  C   LIG    1       -8.727   0.124   0.046  0.00  0.00    +0.000 A 
ATOM      2  C   LIG    1       -8.411  -1.252   0.039  0.00  0.00    +0.030 A 
ATOM      3  C   LIG    1       -7.056  -1.362   0.025  0.00  0.00    +0.040 A 
ATOM      4  C   LIG    1       -6.531   0.008   0.035  0.00  0.00    -0.020 A 
ATOM      5  O   LIG    1       -7.592   0.844   0.044  0.00  0.00    -0.120 OA
ENDROOT
BRANCH   1   9
ATOM      6  C   LIG    1      -12.644   1.735   0.071  0.00  0.00    +0.010 A 
ATOM      7  C   LIG    1      -11.708   2.184   0.991  0.00  0.00    +0.140 A 
ATOM      8  C   LIG    1      -10.433   1.667   0.992  0.00  0.00    +0.080 A 
ATOM      9  C   LIG    1      -10.079   0.680   0.055  0.00  0.00    +0.060 A 
ATOM     10  C   LIG    1      -11.034   0.235  -0.879  0.00  0.00    -0.080 A 
ATOM     11 BR   LIG    1      -10.575  -1.086  -2.151  0.00  0.00    +0.010 Br
ATOM     12  C   LIG    1      -12.307   0.762  -0.857  0.00  0.00    +0.150 A 
BRANCH   6  14
ATOM     13  O   LIG    1      -14.338   3.223   0.960  0.00  0.00    -0.150 OA
ATOM     14  N   LIG    1      -14.012   2.299   0.080  0.00  0.00    -0.030 N 
ATOM     15  O   LIG    1      -14.905   1.876  -0.791  0.00  0.00    -0.150 OA
ENDBRANCH   6  14
ENDBRANCH   1   9
BRANCH   4  16
ATOM     16  C   LIG    1       -5.193   0.377   0.030  0.00  0.00    +0.200 C 
ATOM     17  C   LIG    1       -4.841   1.728   0.035  0.00  0.00    +0.010 C 
BRANCH  17  18
ATOM     18  C   LIG    1       -3.485   2.102   0.030  0.00  0.00    +0.180 A 
ATOM     19  N   LIG    1       -2.481   1.269   0.021  0.00  0.00    -0.480 NA
ATOM     20  C   LIG    1       -1.257   1.766   0.018  0.00  0.00    +0.160 A 
ATOM     21  C   LIG    1       -0.013   1.076   0.008  0.00  0.00    +0.090 A 
ATOM     22  C   LIG    1        1.155   1.766   0.001  0.00  0.00    +0.120 A 
ATOM     23  C   LIG    1        1.165   3.159   0.007  0.00  0.00    -0.000 A 
ATOM     24  C   LIG    1       -0.018   3.861   0.021  0.00  0.00    +0.190 A 
ATOM     25  C   LIG    1       -1.234   3.179   0.030  0.00  0.00    -0.220 A 
ATOM     26  S   LIG    1       -2.897   3.760   0.050  0.00  0.00    +0.140 S 
BRANCH  23  27
ATOM     27  N   LIG    1        2.454   3.887  -0.002  0.00  0.00    -0.020 N 
ATOM     28  O   LIG    1        2.467   5.204   0.004  0.00  0.00    -0.170 OA
ATOM     29  O   LIG    1        3.588   3.218  -0.016  0.00  0.00    -0.160 OA
ENDBRANCH  23  27
ENDBRANCH  17  18
ENDBRANCH   4  16
TORSDOF 5
