REMARK  Name = ZINCrH000004kZLK.0
REMARK                            x       y       z     vdW  Elec       q    Type
REMARK                         _______ _______ _______ _____ _____    ______ ____
ROOT
ATOM      1  C   LIG    1       -1.221   1.777   0.003  0.00  0.00    -0.150 A 
ATOM      2  C   LIG    1       -1.231   3.179   0.017  0.00  0.00    +0.090 A 
ATOM      3  C   LIG    1       -0.063   3.882   0.015  0.00  0.00    -0.010 A 
ATOM      4  C   LIG    1        1.159   3.214   0.004  0.00  0.00    +0.130 A 
ATOM      5  N   LIG    1        2.465   3.643  -0.001  0.00  0.00    -0.580 N 
ATOM      6  H   LIG    1        2.745   4.572   0.007  0.00  0.00    +0.420 HD
ATOM      7  C   LIG    1        3.313   2.570  -0.016  0.00  0.00    +0.100 A 
ATOM      8  C   LIG    1        2.595   1.431  -0.020  0.00  0.00    -0.180 A 
ATOM      9  C   LIG    1        3.191   0.046  -0.030  0.00  0.00    +0.360 C 
ATOM     10  N   LIG    1        4.633   0.191  -0.300  0.00  0.00    -0.630 N 
ATOM     11  C   LIG    1        5.368   1.252   0.406  0.00  0.00    +0.330 C 
ATOM     12  C   LIG    1        5.261  -0.625  -1.171  0.00  0.00    +0.710 C 
ATOM     13  N   LIG    1        4.595  -1.655  -1.728  0.00  0.00    -0.740 N 
ATOM     14  H   LIG    1        3.646  -1.768  -1.560  0.00  0.00    +0.390 HD
ATOM     15  O   LIG    1        6.427  -0.430  -1.453  0.00  0.00    -0.580 OA
ATOM     16  C   LIG    1        4.823   2.616  -0.030  0.00  0.00    +0.100 C 
ATOM     17  C   LIG    1        1.184   1.803  -0.007  0.00  0.00    -0.110 A 
ATOM     18  C   LIG    1       -0.011   1.088  -0.004  0.00  0.00    +0.150 A 
ENDROOT
BRANCH  13  19
ATOM     19  C   LIG    1        5.304  -2.605  -2.589  0.00  0.00    +0.250 C 
ATOM     20  C   LIG    1        5.381  -2.025  -4.016  0.00  0.00    +0.020 C 
ATOM     21  C   LIG    1        6.505  -2.708  -4.749  0.00  0.00    +0.000 C 
ATOM     22  C   LIG    1        6.020  -3.914  -5.575  0.00  0.00    +0.000 C 
ATOM     23  C   LIG    1        4.980  -4.771  -4.829  0.00  0.00    +0.000 C 
ATOM     24  C   LIG    1        5.330  -4.968  -3.379  0.00  0.00    +0.030 C 
ATOM     25  C   LIG    1        4.612  -3.885  -2.549  0.00  0.00    +0.010 C 
ENDBRANCH  13  19
BRANCH   1  26
ATOM     26  C   LIG    1       -2.494   1.030  -0.000  0.00  0.00    +0.510 C 
ATOM     27  O   LIG    1       -2.486  -0.184  -0.009  0.00  0.00    -0.510 OA
BRANCH  26  29
ATOM     28  C   LIG    1       -4.878   0.897   0.003  0.00  0.00    +0.260 C 
ATOM     29  O   LIG    1       -3.665   1.696   0.007  0.00  0.00    -0.360 OA
ENDBRANCH  26  29
ENDBRANCH   1  26
TORSDOF 3
