REMARK  Name = ZINCrD000000C42y.0
REMARK                            x       y       z     vdW  Elec       q    Type
REMARK                         _______ _______ _______ _____ _____    ______ ____
ROOT
ATOM      1  O   LIG    1        3.933  -1.192   2.898  0.00  0.00    -0.560 OA
ATOM      2  C   LIG    1        4.721  -0.725   2.099  0.00  0.00    +0.710 C 
ATOM      3  N   LIG    1        4.371   0.341   1.351  0.00  0.00    -0.630 N 
ATOM      4  C   LIG    1        5.342   0.990   0.456  0.00  0.00    +0.250 C 
ATOM      5  C   LIG    1        4.706   1.124  -0.932  0.00  0.00    +0.220 C 
ATOM      6  O   LIG    1        3.433   1.761  -0.807  0.00  0.00    -0.370 OA
ATOM      7  C   LIG    1        2.484   1.026  -0.030  0.00  0.00    +0.200 C 
ATOM      8  C   LIG    1        3.006   0.888   1.404  0.00  0.00    +0.300 C 
ATOM      9  N   LIG    1        5.945  -1.272   1.960  0.00  0.00    -0.680 N 
ATOM     10  H   LIG    1        6.601  -0.853   1.381  0.00  0.00    +0.410 HD
ENDROOT
BRANCH   9  11
ATOM     11  C   LIG    1        6.270  -2.446   2.653  0.00  0.00    +0.170 A 
ATOM     12  C   LIG    1        5.301  -3.416   2.868  0.00  0.00    +0.030 A 
ATOM     13  C   LIG    1        5.621  -4.574   3.552  0.00  0.00    +0.050 A 
ATOM     14  C   LIG    1        6.909  -4.770   4.026  0.00  0.00    +0.040 A 
ATOM     15  O   LIG    1        7.204  -5.915   4.701  0.00  0.00    -0.310 OA
ATOM     16  C   LIG    1        8.591  -6.243   4.836  0.00  0.00    +0.220 C 
ATOM     17  C   LIG    1        9.345  -4.978   5.270  0.00  0.00    +0.220 C 
ATOM     18  O   LIG    1        9.153  -3.977   4.265  0.00  0.00    -0.310 OA
ATOM     19  C   LIG    1        7.882  -3.800   3.811  0.00  0.00    +0.070 A 
ATOM     20  C   LIG    1        7.562  -2.642   3.120  0.00  0.00    +0.000 A 
ENDBRANCH   9  11
BRANCH   7  21
ATOM     21  C   LIG    1        1.168   1.760  -0.018  0.00  0.00    -0.070 A 
ATOM     22  C   LIG    1        1.147   3.142  -0.019  0.00  0.00    +0.080 A 
ATOM     23  C   LIG    1       -0.060   3.816  -0.008  0.00  0.00    +0.020 A 
ATOM     24  C   LIG    1       -1.248   3.108   0.004  0.00  0.00    +0.080 A 
ATOM     25  C   LIG    1       -1.228   1.721  -0.001  0.00  0.00    +0.070 A 
ATOM     26  F   LIG    1       -2.387   1.028   0.004  0.00  0.00    -0.120 F 
ATOM     27  F   LIG    1       -2.428   3.767   0.015  0.00  0.00    -0.130 F 
ATOM     28  C   LIG    1       -0.018   1.049  -0.007  0.00  0.00    +0.040 A 
ENDBRANCH   7  21
TORSDOF 2
