REMARK  Name = ZINCqH0000050DyN.0
REMARK                            x       y       z     vdW  Elec       q    Type
REMARK                         _______ _______ _______ _____ _____    ______ ____
ROOT
ATOM      1  C   LIG    1       -4.432  -3.925   0.008  0.00  0.00    +0.190 C 
ATOM      2  C   LIG    1       -4.871  -4.196  -1.432  0.00  0.00    +0.070 C 
ENDROOT
BRANCH   1   3
ATOM      3  C   LIG    1       -4.151  -5.233   0.703  0.00  0.00    +0.520 C 
ATOM      4  N   LIG    1       -5.128  -6.153   0.827  0.00  0.00    -0.660 N 
ATOM      5  H   LIG    1       -6.028  -5.947   0.531  0.00  0.00    +0.410 HD
ATOM      6  O   LIG    1       -3.046  -5.457   1.149  0.00  0.00    -0.500 OA
BRANCH   4   7
ATOM      7  C   LIG    1       -4.843  -7.406   1.386  0.00  0.00    +0.080 A 
ATOM      8  C   LIG    1       -5.494  -8.540   0.917  0.00  0.00    +0.040 A 
ATOM      9  C   LIG    1       -5.209  -9.775   1.463  0.00  0.00    -0.050 A 
ATOM     10  C   LIG    1       -4.280  -9.883   2.489  0.00  0.00    +0.210 A 
ATOM     11  C   LIG    1       -3.632  -8.749   2.962  0.00  0.00    -0.050 A 
ATOM     12  C   LIG    1       -3.913  -7.514   2.412  0.00  0.00    +0.070 A 
BRANCH  10  13
ATOM     13  N   LIG    1       -3.996 -11.134   3.047  0.00  0.00    -0.640 N 
ATOM     14  C   LIG    1       -4.594 -12.344   2.477  0.00  0.00    +0.280 C 
ATOM     15  C   LIG    1       -3.100 -11.235   4.202  0.00  0.00    +0.280 C 
ENDBRANCH  10  13
ENDBRANCH   4   7
ENDBRANCH   1   3
BRANCH   1  16
ATOM     16  O   LIG    1       -3.229  -3.112   0.003  0.00  0.00    -0.320 OA
BRANCH  16  17
ATOM     17  C   LIG    1       -3.394  -1.780   0.018  0.00  0.00    +0.490 C 
ATOM     18  O   LIG    1       -4.506  -1.309   0.036  0.00  0.00    -0.480 OA
BRANCH  17  19
ATOM     19  C   LIG    1       -2.191  -0.871   0.014  0.00  0.00    +0.130 C 
BRANCH  19  20
ATOM     20  S   LIG    1       -2.739   0.858   0.037  0.00  0.00    -0.020 S 
BRANCH  20  27
ATOM     21  C   LIG    1       -2.546   3.887   0.078  0.00  0.00    +0.100 C 
ATOM     22  C   LIG    1       -1.235   3.144   0.050  0.00  0.00    -0.060 A 
ATOM     23  C   LIG    1       -0.044   3.843   0.038  0.00  0.00    +0.030 A 
ATOM     24  C   LIG    1        1.159   3.163   0.011  0.00  0.00    +0.010 A 
ATOM     25  C   LIG    1        1.175   1.780  -0.003  0.00  0.00    +0.020 A 
ATOM     26  C   LIG    1       -0.011   1.074   0.009  0.00  0.00    -0.010 A 
ATOM     27  C   LIG    1       -1.223   1.754   0.029  0.00  0.00    -0.110 A 
ENDBRANCH  20  27
ENDBRANCH  19  20
ENDBRANCH  17  19
ENDBRANCH  16  17
ENDBRANCH   1  16
TORSDOF 8
