REMARK  Name = ZINCkj000005lC0K.0
REMARK                            x       y       z     vdW  Elec       q    Type
REMARK                         _______ _______ _______ _____ _____    ______ ____
ROOT
ATOM      1  O   LIG    1       -2.470   0.199   0.468  0.00  0.00    -0.530 OA
ATOM      2  C   LIG    1       -2.103   0.961   1.337  0.00  0.00    +0.520 C 
ATOM      3  N   LIG    1       -2.921   1.253   2.367  0.00  0.00    -0.720 N 
ATOM      4  H   LIG    1       -2.628   1.863   3.062  0.00  0.00    +0.410 HD
ENDROOT
BRANCH   3   5
ATOM      5  C   LIG    1       -4.255   0.651   2.436  0.00  0.00    +0.310 C 
BRANCH   5   6
ATOM      6  C   LIG    1       -4.973   1.145   3.693  0.00  0.00    +0.200 C 
BRANCH   6   7
ATOM      7  O   LIG    1       -5.199   2.553   3.591  0.00  0.00    -0.310 OA
BRANCH   7   8
ATOM      8  C   LIG    1       -5.831   3.154   4.633  0.00  0.00    +0.140 A 
ATOM      9  C   LIG    1       -6.231   2.403   5.729  0.00  0.00    -0.060 A 
ATOM     10  C   LIG    1       -6.869   3.017   6.790  0.00  0.00    +0.090 A 
ATOM     11  C   LIG    1       -7.118   4.377   6.755  0.00  0.00    -0.130 A 
ATOM     12  C   LIG    1       -6.725   5.127   5.660  0.00  0.00    +0.090 A 
ATOM     13 BR   LIG    1       -7.997   5.214   8.205  0.00  0.00    -0.040 Br
ATOM     14  C   LIG    1       -6.082   4.518   4.600  0.00  0.00    +0.000 A 
ENDBRANCH   7   8
ENDBRANCH   6   7
ENDBRANCH   5   6
ENDBRANCH   3   5
BRANCH   2  15
ATOM     15  C   LIG    1       -0.731   1.580   1.265  0.00  0.00    +0.100 C 
BRANCH  15  16
ATOM     16  C   LIG    1       -0.013   1.086   0.008  0.00  0.00    +0.180 C 
ATOM     17  C   LIG    1        1.423   1.617  -0.003  0.00  0.00    +0.250 C 
ATOM     18  N   LIG    1        2.092   1.188  -1.239  0.00  0.00    -0.510 N 
ATOM     19  C   LIG    1        1.363   1.719  -2.399  0.00  0.00    +0.240 C 
ATOM     20  C   LIG    1       -0.072   1.188  -2.384  0.00  0.00    +0.260 C 
ATOM     21  H   LIG    1        2.104   0.180  -1.282  0.00  0.00    +0.430 HD
ATOM     22  H   LIG    1        3.039   1.537  -1.248  0.00  0.00    +0.440 HD
ATOM     23  O   LIG    1       -0.700   1.561  -1.153  0.00  0.00    -0.340 OA
ENDBRANCH  15  16
ENDBRANCH   2  15
TORSDOF 6
