REMARK  Name = ZINCpe00000VVGaV.0
REMARK                            x       y       z     vdW  Elec       q    Type
REMARK                         _______ _______ _______ _____ _____    ______ ____
ROOT
ATOM      1  C   LIG    1       -2.443   0.928   0.032  0.00  0.00    -0.090 A 
ATOM      2  C   LIG    1       -3.082   0.618  -1.155  0.00  0.00    +0.040 A 
ATOM      3  C   LIG    1       -4.123  -0.290  -1.164  0.00  0.00    -0.030 A 
ATOM      4  C   LIG    1       -4.534  -0.884   0.023  0.00  0.00    +0.160 A 
ATOM      5  C   LIG    1       -3.893  -0.566   1.214  0.00  0.00    +0.030 A 
ATOM      6  C   LIG    1       -2.850   0.339   1.215  0.00  0.00    +0.040 A 
ENDROOT
BRANCH   4   7
ATOM      7  N   LIG    1       -5.590  -1.799   0.019  0.00  0.00    -0.630 N 
ATOM      8  H   LIG    1       -5.728  -2.377  -0.748  0.00  0.00    +0.430 HD
BRANCH   7   9
ATOM      9  C   LIG    1       -6.441  -1.882   1.113  0.00  0.00    +0.330 A 
ATOM     10  N   LIG    1       -6.330  -1.032   2.111  0.00  0.00    -0.480 NA
ATOM     11  C   LIG    1       -7.143  -1.107   3.164  0.00  0.00    +0.180 A 
ATOM     12  C   LIG    1       -8.107  -2.047   3.251  0.00  0.00    +0.190 A 
ATOM     13  N   LIG    1       -8.284  -2.963   2.256  0.00  0.00    -0.480 N 
ATOM     14  C   LIG    1       -9.333  -3.979   2.360  0.00  0.00    +0.320 C 
ATOM     15  C   LIG    1       -7.481  -2.916   1.169  0.00  0.00    +0.480 A 
ATOM     16  O   LIG    1       -7.616  -3.716   0.258  0.00  0.00    -0.530 OA
ENDBRANCH   7   9
ENDBRANCH   4   7
BRANCH   1  17
ATOM     17  C   LIG    1       -1.304   1.915   0.036  0.00  0.00    +0.100 C 
BRANCH  17  24
ATOM     18  C   LIG    1        4.549   3.531   1.615  0.00  0.00    +0.190 C 
ATOM     19  N   LIG    1        3.497   3.077   0.696  0.00  0.00    -0.540 NA
ATOM     20  C   LIG    1        3.412   1.610   0.675  0.00  0.00    +0.170 C 
ATOM     21  C   LIG    1        2.436   1.173  -0.422  0.00  0.00    +0.300 C 
ATOM     22  N   LIG    1        1.156   1.868  -0.212  0.00  0.00    -0.620 N 
ATOM     23  C   LIG    1        1.176   3.330  -0.051  0.00  0.00    +0.280 C 
ATOM     24  C   LIG    1       -0.004   1.183  -0.174  0.00  0.00    +0.520 C 
ATOM     25  O   LIG    1       -0.002  -0.022  -0.313  0.00  0.00    -0.530 OA
ATOM     26  C   LIG    1        2.203   3.681   1.038  0.00  0.00    +0.170 C 
ENDBRANCH  17  24
ENDBRANCH   1  17
TORSDOF 4
