REMARK  Name = ZINCpe000000TWsP.0
REMARK                            x       y       z     vdW  Elec       q    Type
REMARK                         _______ _______ _______ _____ _____    ______ ____
ROOT
ATOM      1  N   LIG    1        2.449   1.319   6.911  0.00  0.00    -1.110 NA
ATOM      2  H   LIG    1        3.413   1.421   6.856  0.00  0.00    +0.420 HD
ENDROOT
BRANCH   1   3
ATOM      3  C   LIG    1        1.629   2.402   7.460  0.00  0.00    +0.240 C 
ATOM      4  C   LIG    1        1.343   3.433   6.364  0.00  0.00    +0.020 C 
ATOM      5  C   LIG    1        0.538   4.591   6.958  0.00  0.00    +0.180 C 
ATOM      6  N   LIG    1        1.299   5.209   8.051  0.00  0.00    -0.520 NA
ATOM      7  C   LIG    1        1.545   4.251   9.136  0.00  0.00    +0.180 C 
ATOM      8  C   LIG    1        2.380   3.083   8.607  0.00  0.00    +0.040 C 
BRANCH   6   9
ATOM      9  C   LIG    1        0.619   6.410   8.553  0.00  0.00    +0.220 C 
BRANCH   9  10
ATOM     10  C   LIG    1        0.603   7.466   7.477  0.00  0.00    +0.510 C 
ATOM     11  N   LIG    1        0.027   8.661   7.714  0.00  0.00    -0.740 N 
ATOM     12  H   LIG    1       -0.378   8.841   8.577  0.00  0.00    +0.400 HD
ATOM     13  C   LIG    1        0.011   9.687   6.669  0.00  0.00    +0.290 C 
ATOM     14  O   LIG    1        1.109   7.240   6.399  0.00  0.00    -0.520 OA
ENDBRANCH   9  10
ENDBRANCH   6   9
ENDBRANCH   1   3
BRANCH   1  15
ATOM     15  S   LIG    1        1.733  -0.077   6.385  0.00  0.00    +2.700 S 
ATOM     16  O   LIG    1        2.779  -0.906   5.896  0.00  0.00    -0.960 OA
ATOM     17  O   LIG    1        0.837  -0.481   7.412  0.00  0.00    -0.960 OA
BRANCH  15  21
ATOM     18  C   LIG    1       -0.826   0.996   2.806  0.00  0.00    +0.190 A 
ATOM     19  C   LIG    1       -1.420   0.526   3.968  0.00  0.00    -0.100 A 
ATOM     20  C   LIG    1       -0.637   0.199   5.059  0.00  0.00    +0.170 A 
ATOM     21  C   LIG    1        0.737   0.340   4.992  0.00  0.00    -0.720 A 
ATOM     22  C   LIG    1        1.331   0.808   3.834  0.00  0.00    +0.060 A 
ATOM     23  C   LIG    1        2.829   0.959   3.764  0.00  0.00    +0.110 C 
ATOM     24  C   LIG    1        0.553   1.131   2.739  0.00  0.00    -0.040 A 
BRANCH  18  25
ATOM     25  O   LIG    1       -1.594   1.318   1.732  0.00  0.00    -0.310 OA
BRANCH  25  27
ATOM     26  C   LIG    1       -3.699   1.558   0.569  0.00  0.00    +0.070 C 
ATOM     27  C   LIG    1       -3.006   1.148   1.870  0.00  0.00    +0.190 C 
ENDBRANCH  25  27
ENDBRANCH  18  25
ENDBRANCH  15  21
ENDBRANCH   1  15
TORSDOF 7
