REMARK  Name = ZINCtV000002PuoP.0
REMARK                            x       y       z     vdW  Elec       q    Type
REMARK                         _______ _______ _______ _____ _____    ______ ____
ROOT
ATOM      1  C   LIG    1       -0.013   1.359   0.115  0.00  0.00    +0.180 A 
ATOM      2  N   LIG    1        1.237   1.763   0.104  0.00  0.00    -0.280 NA
ATOM      3  N   LIG    1        2.026   0.760  -0.048  0.00  0.00    -0.230 NA
ATOM      4  C   LIG    1        1.329  -0.349  -0.144  0.00  0.00    +0.220 A 
ATOM      5  N   LIG    1        0.000  -0.001  -0.043  0.00  0.00    -0.410 N 
ENDROOT
BRANCH   4   6
ATOM      6  C   LIG    1        1.869  -1.712  -0.327  0.00  0.00    -0.010 A 
ATOM      7  C   LIG    1        1.326  -2.557  -1.296  0.00  0.00    +0.070 A 
ATOM      8  C   LIG    1        1.834  -3.828  -1.463  0.00  0.00    +0.050 A 
ATOM      9  C   LIG    1        2.880  -4.269  -0.670  0.00  0.00    -0.010 A 
ATOM     10  C   LIG    1        3.424  -3.437   0.294  0.00  0.00    +0.050 A 
ATOM     11 CL   LIG    1        3.513  -5.871  -0.886  0.00  0.00    -0.040 Cl
ATOM     12  C   LIG    1        2.929  -2.160   0.466  0.00  0.00    +0.010 A 
ATOM     13 CL   LIG    1        3.616  -1.115   1.670  0.00  0.00    -0.030 Cl
ENDBRANCH   4   6
BRANCH   5  14
ATOM     14  C   LIG    1       -1.108  -0.859  -0.092  0.00  0.00    +0.100 A 
ATOM     15  C   LIG    1       -1.996  -0.788  -1.156  0.00  0.00    +0.080 A 
ATOM     16  C   LIG    1       -3.086  -1.634  -1.203  0.00  0.00    +0.040 A 
ATOM     17  C   LIG    1       -3.295  -2.553  -0.190  0.00  0.00    +0.130 A 
ATOM     18  C   LIG    1       -2.410  -2.627   0.874  0.00  0.00    -0.060 A 
ATOM     19 CL   LIG    1       -2.673  -3.780   2.145  0.00  0.00    -0.020 Cl
ATOM     20  F   LIG    1       -4.362  -3.380  -0.238  0.00  0.00    -0.110 F 
ATOM     21  C   LIG    1       -1.314  -1.786   0.921  0.00  0.00    +0.090 A 
ENDBRANCH   5  14
BRANCH   1  22
ATOM     22  S   LIG    1       -1.440   2.377   0.292  0.00  0.00    +0.040 S 
BRANCH  22  29
ATOM     23  O   LIG    1        0.169   3.531  -1.728  0.00  0.00    -0.430 OA
ATOM     24  C   LIG    1        0.051   4.348  -0.847  0.00  0.00    +0.370 C 
ATOM     25  C   LIG    1        0.601   5.748  -1.008  0.00  0.00    +0.030 C 
ATOM     26  C   LIG    1       -0.509   6.750  -0.676  0.00  0.00    +0.030 C 
ATOM     27  C   LIG    1       -1.066   6.448   0.716  0.00  0.00    +0.030 C 
ATOM     28  C   LIG    1       -1.716   5.063   0.731  0.00  0.00    +0.070 C 
ATOM     29  C   LIG    1       -0.652   3.999   0.447  0.00  0.00    +0.010 C 
ENDBRANCH  22  29
ENDBRANCH   1  22
TORSDOF 4
