REMARK  Name = ZINCrg000000nbIV.0
REMARK                            x       y       z     vdW  Elec       q    Type
REMARK                         _______ _______ _______ _____ _____    ______ ____
ROOT
ATOM      1  N   LIG    1        3.545   3.466  -0.013  0.00  0.00    -0.700 N 
ATOM      2  H   LIG    1        2.699   3.940  -0.003  0.00  0.00    +0.410 HD
ATOM      3  C   LIG    1        3.564   2.119  -0.021  0.00  0.00    +0.590 C 
ATOM      4  O   LIG    1        4.624   1.526  -0.034  0.00  0.00    -0.490 OA
ENDROOT
BRANCH   3   5
ATOM      5  C   LIG    1        2.285   1.357  -0.013  0.00  0.00    +0.400 A 
ATOM      6  N   LIG    1        2.304   0.030  -0.020  0.00  0.00    -0.550 NA
ATOM      7  C   LIG    1        1.162  -0.652  -0.013  0.00  0.00    +0.570 A 
ATOM      8  N   LIG    1        0.002  -0.004   0.002  0.00  0.00    -0.620 NA
ATOM      9  C   LIG    1       -0.016   1.324   0.009  0.00  0.00    +0.620 A 
ATOM     10  N   LIG    1        1.127   2.005   0.002  0.00  0.00    -0.600 NA
BRANCH   7  11
ATOM     11  N   LIG    1        1.181  -2.032  -0.021  0.00  0.00    -0.450 N 
ATOM     12  C   LIG    1        1.938  -2.541  -1.173  0.00  0.00    +0.200 C 
ATOM     13  C   LIG    1        1.985  -4.070  -1.111  0.00  0.00    +0.240 C 
ATOM     14  O   LIG    1        0.651  -4.582  -1.071  0.00  0.00    -0.380 OA
ATOM     15  C   LIG    1       -0.115  -4.107   0.040  0.00  0.00    +0.230 C 
ATOM     16  C   LIG    1       -0.183  -2.578  -0.011  0.00  0.00    +0.200 C 
ENDBRANCH   7  11
BRANCH   9  17
ATOM     17  N   LIG    1       -1.220   1.998   0.019  0.00  0.00    -0.800 N 
ATOM     18  H   LIG    1       -1.233   2.968   0.024  0.00  0.00    +0.420 HD
ATOM     19  H   LIG    1       -2.054   1.502   0.020  0.00  0.00    +0.420 HD
ENDBRANCH   9  17
ENDBRANCH   3   5
BRANCH   1  20
ATOM     20  C   LIG    1        4.804   4.216  -0.021  0.00  0.00    +0.290 C 
BRANCH  20  21
ATOM     21  C   LIG    1        4.503   5.717  -0.010  0.00  0.00    +0.120 C 
BRANCH  21  24
ATOM     22  C   LIG    1        7.479   7.579   0.950  0.00  0.00    +0.070 A 
ATOM     23  N   LIG    1        6.369   6.935   1.082  0.00  0.00    -0.470 NA
ATOM     24  C   LIG    1        5.798   6.488  -0.018  0.00  0.00    +0.070 A 
ATOM     25  C   LIG    1        6.458   6.781  -1.143  0.00  0.00    -0.080 A 
ATOM     26  S   LIG    1        7.905   7.684  -0.703  0.00  0.00    +0.130 S 
BRANCH  22  28
ATOM     27  C   LIG    1        8.702   7.038   3.038  0.00  0.00    +0.060 C 
ATOM     28  C   LIG    1        8.280   8.159   2.086  0.00  0.00    +0.010 C 
ATOM     29  C   LIG    1        7.426   9.178   2.844  0.00  0.00    +0.070 C 
ATOM     30  C   LIG    1        9.526   8.852   1.530  0.00  0.00    +0.040 C 
ENDBRANCH  22  28
ENDBRANCH  21  24
ENDBRANCH  20  21
ENDBRANCH   1  20
TORSDOF 7
