REMARK  Name = ZINCvU0000000J5t.0
REMARK                            x       y       z     vdW  Elec       q    Type
REMARK                         _______ _______ _______ _____ _____    ______ ____
ROOT
ATOM      1  C   LIG    1       -2.172   7.642   0.060  0.00  0.00    +0.150 C 
ATOM      2  C   LIG    1       -1.642   6.232   0.049  0.00  0.00    -0.180 A 
ATOM      3  C   LIG    1       -0.348   5.915   0.035  0.00  0.00    -0.000 A 
ATOM      4  C   LIG    1       -0.079   4.482   0.026  0.00  0.00    -0.220 A 
ATOM      5  C   LIG    1       -1.249   3.729   0.033  0.00  0.00    +0.090 A 
ATOM      6  N   LIG    1       -1.175   2.382   0.021  0.00  0.00    -0.510 NA
ATOM      7  C   LIG    1       -0.022   1.758   0.012  0.00  0.00    +0.370 A 
ATOM      8  N   LIG    1        1.160   2.440   0.004  0.00  0.00    -0.510 N 
ATOM      9  C   LIG    1        1.165   3.787   0.011  0.00  0.00    +0.560 A 
ATOM     10  O   LIG    1        2.218   4.403   0.004  0.00  0.00    -0.500 OA
ATOM     11  S   LIG    1       -2.647   4.796   0.051  0.00  0.00    +0.210 S 
ENDROOT
BRANCH   3  12
ATOM     12  C   LIG    1        0.728   6.934   0.030  0.00  0.00    -0.010 A 
ATOM     13  C   LIG    1        0.875   7.790  -1.060  0.00  0.00    +0.030 A 
ATOM     14  C   LIG    1        1.879   8.738  -1.060  0.00  0.00    +0.020 A 
ATOM     15  C   LIG    1        2.737   8.840   0.020  0.00  0.00    +0.020 A 
ATOM     16  C   LIG    1        2.596   7.993   1.106  0.00  0.00    -0.030 A 
ATOM     17 CL   LIG    1        3.678   8.127   2.457  0.00  0.00    -0.070 Cl
ATOM     18  C   LIG    1        1.593   7.044   1.118  0.00  0.00    +0.060 A 
ENDBRANCH   3  12
BRANCH   8  19
ATOM     19  C   LIG    1        2.427   1.706  -0.012  0.00  0.00    +0.360 C 
BRANCH  19  20
ATOM     20  C   LIG    1        2.848   1.461  -1.438  0.00  0.00    -0.120 A 
ATOM     21  C   LIG    1        2.445   0.311  -2.090  0.00  0.00    +0.030 A 
ATOM     22  C   LIG    1        2.828   0.089  -3.400  0.00  0.00    +0.010 A 
ATOM     23  C   LIG    1        3.621   1.012  -4.054  0.00  0.00    +0.010 A 
ATOM     24  C   LIG    1        4.028   2.160  -3.401  0.00  0.00    +0.000 A 
ATOM     25  C   LIG    1        3.642   2.385  -2.092  0.00  0.00    +0.040 A 
ENDBRANCH  19  20
ENDBRANCH   8  19
BRANCH   7  26
ATOM     26  S   LIG    1        0.002  -0.004   0.002  0.00  0.00    +0.090 S 
BRANCH  26  27
ATOM     27  C   LIG    1       -1.776  -0.343   0.017  0.00  0.00    +0.010 C 
ATOM     28  C   LIG    1       -2.378   0.154   1.333  0.00  0.00    +0.080 C 
BRANCH  27  29
ATOM     29  C   LIG    1       -2.006  -1.826  -0.112  0.00  0.00    +0.540 C 
ATOM     30  O   LIG    1       -1.147  -2.606   0.240  0.00  0.00    -0.520 OA
ATOM     31  N   LIG    1       -3.167  -2.287  -0.620  0.00  0.00    -0.840 N 
ATOM     32  H   LIG    1       -3.315  -3.241  -0.703  0.00  0.00    +0.410 HD
ATOM     33  H   LIG    1       -3.854  -1.663  -0.902  0.00  0.00    +0.410 HD
ENDBRANCH  27  29
ENDBRANCH  26  27
ENDBRANCH   7  26
TORSDOF 6
