REMARK  Name = ZINCqH0000007ZaD.0
REMARK                            x       y       z     vdW  Elec       q    Type
REMARK                         _______ _______ _______ _____ _____    ______ ____
ROOT
ATOM      1  N   LIG    1       -2.142   0.698   0.163  0.00  0.00    -0.710 N 
ATOM      2  H   LIG    1       -3.047   1.043   0.203  0.00  0.00    +0.420 HD
ENDROOT
BRANCH   1   6
ATOM      3  C   LIG    1        1.087   3.325   0.041  0.00  0.00    -0.670 A 
ATOM      4  C   LIG    1        0.477   3.037   1.248  0.00  0.00    +0.200 A 
ATOM      5  C   LIG    1       -0.596   2.169   1.292  0.00  0.00    +0.020 A 
ATOM      6  C   LIG    1       -1.060   1.581   0.122  0.00  0.00    +0.270 A 
ATOM      7  C   LIG    1       -0.449   1.877  -1.090  0.00  0.00    -0.070 A 
ATOM      8  C   LIG    1        0.624   2.745  -1.127  0.00  0.00    +0.220 A 
BRANCH   3  10
ATOM      9  C   LIG    1        3.908   3.369   0.210  0.00  0.00    -0.230 C 
ATOM     10  S   LIG    1        2.456   4.433  -0.010  0.00  0.00    +2.500 S 
ATOM     11  O   LIG    1        2.273   5.269   1.124  0.00  0.00    -0.920 OA
ATOM     12  O   LIG    1        2.425   4.968  -1.327  0.00  0.00    -0.920 OA
ENDBRANCH   3  10
BRANCH   7  13
ATOM     13  N   LIG    1       -0.942   1.256  -2.340  0.00  0.00    +0.030 N 
ATOM     14  O   LIG    1       -1.951   0.574  -2.324  0.00  0.00    -0.120 OA
ATOM     15  O   LIG    1       -0.340   1.429  -3.385  0.00  0.00    -0.170 OA
ENDBRANCH   7  13
ENDBRANCH   1   6
BRANCH   1  16
ATOM     16  C   LIG    1       -1.918  -0.684   0.147  0.00  0.00    +0.190 A 
ATOM     17  C   LIG    1       -0.620  -1.178   0.154  0.00  0.00    -0.060 A 
ATOM     18  C   LIG    1       -0.400  -2.541   0.144  0.00  0.00    +0.010 A 
ATOM     19  C   LIG    1       -1.476  -3.418   0.114  0.00  0.00    +0.070 A 
ATOM     20  C   LIG    1       -2.774  -2.924   0.101  0.00  0.00    +0.040 A 
ATOM     21  C   LIG    1       -2.995  -1.561   0.117  0.00  0.00    -0.010 A 
BRANCH  19  22
ATOM     22  N   LIG    1       -1.253  -4.800   0.098  0.00  0.00    -0.490 N 
ATOM     23  C   LIG    1       -1.948  -5.458   1.212  0.00  0.00    +0.180 C 
ATOM     24  C   LIG    1       -1.802  -6.975   1.080  0.00  0.00    +0.020 C 
ATOM     25  C   LIG    1       -0.316  -7.344   1.092  0.00  0.00    +0.010 C 
ATOM     26  C   LIG    1        0.393  -6.608  -0.048  0.00  0.00    +0.020 C 
ATOM     27  C   LIG    1        0.184  -5.101   0.116  0.00  0.00    +0.170 C 
ENDBRANCH  19  22
ENDBRANCH   1  16
TORSDOF 5
