REMARK  Name = ZINCqH00000322og.0
REMARK                            x       y       z     vdW  Elec       q    Type
REMARK                         _______ _______ _______ _____ _____    ______ ____
ROOT
ATOM      1  N   LIG    1        2.403   1.106  -0.009  0.00  0.00    -0.690 N 
ATOM      2  H   LIG    1        2.421   0.139   0.060  0.00  0.00    +0.400 HD
ATOM      3  C   LIG    1        3.556   1.795  -0.124  0.00  0.00    +0.710 C 
ATOM      4  N   LIG    1        4.726   1.135  -0.239  0.00  0.00    -0.630 N 
ATOM      5  C   LIG    1        4.758  -0.331  -0.353  0.00  0.00    +0.270 C 
ATOM      6  C   LIG    1        5.617  -0.701  -1.572  0.00  0.00    +0.170 C 
ATOM      7  N   LIG    1        6.933  -0.059  -1.451  0.00  0.00    -0.530 NA
ATOM      8  C   LIG    1        6.814   1.405  -1.468  0.00  0.00    +0.170 C 
ATOM      9  C   LIG    1        6.004   1.863  -0.250  0.00  0.00    +0.310 C 
ATOM     10  O   LIG    1        3.541   3.010  -0.122  0.00  0.00    -0.570 OA
ENDROOT
BRANCH   1  14
ATOM     11  C   LIG    1       -1.237   3.133   0.049  0.00  0.00    -0.080 A 
ATOM     12  C   LIG    1       -1.145   1.896  -0.563  0.00  0.00    +0.030 A 
ATOM     13  C   LIG    1        0.059   1.219  -0.579  0.00  0.00    -0.020 A 
ATOM     14  C   LIG    1        1.181   1.787   0.011  0.00  0.00    +0.150 A 
ATOM     15  C   LIG    1        1.087   3.031   0.620  0.00  0.00    +0.020 A 
ATOM     16  C   LIG    1       -0.121   3.701   0.637  0.00  0.00    +0.020 A 
BRANCH  11  18
ATOM     17  C   LIG    1       -2.400   5.210  -0.646  0.00  0.00    +0.040 C 
ATOM     18  C   LIG    1       -2.553   3.866   0.070  0.00  0.00    -0.030 C 
ATOM     19  C   LIG    1       -2.980   4.106   1.519  0.00  0.00    +0.040 C 
ATOM     20  C   LIG    1       -3.616   3.027  -0.642  0.00  0.00    +0.040 C 
ENDBRANCH  11  18
ENDBRANCH   1  14
BRANCH   7  21
ATOM     21  C   LIG    1        7.845  -0.525  -2.504  0.00  0.00    +0.240 C 
BRANCH  21  22
ATOM     22  C   LIG    1        8.134  -1.991  -2.306  0.00  0.00    -0.130 A 
ATOM     23  C   LIG    1        7.331  -2.951  -2.902  0.00  0.00    +0.060 A 
ATOM     24  C   LIG    1        7.635  -4.288  -2.692  0.00  0.00    -0.030 A 
ATOM     25  C   LIG    1        8.720  -4.616  -1.902  0.00  0.00    +0.260 A 
ATOM     26  N   LIG    1        9.461  -3.675  -1.350  0.00  0.00    -0.480 NA
ATOM     27  C   LIG    1        9.205  -2.394  -1.532  0.00  0.00    +0.280 A 
ENDBRANCH  21  22
ENDBRANCH   7  21
TORSDOF 4
