REMARK  Name = ZINCtV00000tROLH.0
REMARK                            x       y       z     vdW  Elec       q    Type
REMARK                         _______ _______ _______ _____ _____    ______ ____
ROOT
ATOM      1  C   LIG    1        8.647  10.536   0.620  0.00  0.00    +0.110 C 
ATOM      2  C   LIG    1        7.322   9.825   0.516  0.00  0.00    -0.010 A 
ATOM      3  C   LIG    1        6.145  10.559   0.535  0.00  0.00    -0.010 A 
ATOM      4  C   LIG    1        4.935   9.931   0.443  0.00  0.00    +0.100 A 
ATOM      5  C   LIG    1        4.881   8.538   0.327  0.00  0.00    -0.140 A 
ATOM      6  C   LIG    1        6.072   7.789   0.306  0.00  0.00    +0.210 A 
ATOM      7  N   LIG    1        6.035   6.415   0.193  0.00  0.00    -0.630 N 
ATOM      8  H   LIG    1        6.869   5.920   0.181  0.00  0.00    +0.420 HD
ATOM      9  C   LIG    1        4.875   5.742   0.105  0.00  0.00    +0.560 A 
ATOM     10  C   LIG    1        3.593   6.450   0.113  0.00  0.00    -0.260 A 
ATOM     11  O   LIG    1        4.890   4.528   0.011  0.00  0.00    -0.520 OA
ATOM     12  C   LIG    1        3.589   7.846   0.227  0.00  0.00    +0.140 A 
ATOM     13  C   LIG    1        7.293   8.451   0.402  0.00  0.00    -0.030 A 
ENDROOT
BRANCH  12  14
ATOM     14  C   LIG    1        2.321   8.601   0.246  0.00  0.00    -0.070 A 
ATOM     15  C   LIG    1        2.018   9.490  -0.789  0.00  0.00    +0.030 A 
ATOM     16  C   LIG    1        0.829  10.188  -0.767  0.00  0.00    +0.010 A 
ATOM     17  C   LIG    1       -0.058  10.018   0.281  0.00  0.00    +0.020 A 
ATOM     18  C   LIG    1        0.238   9.144   1.313  0.00  0.00    +0.010 A 
ATOM     19  C   LIG    1        1.421   8.435   1.302  0.00  0.00    +0.060 A 
ENDBRANCH  12  14
BRANCH  10  20
ATOM     20  C   LIG    1        2.329   5.706   0.011  0.00  0.00    +0.440 C 
ATOM     21  O   LIG    1        1.277   6.308  -0.109  0.00  0.00    -0.440 OA
BRANCH  20  22
ATOM     22  C   LIG    1        2.336   4.243   0.052  0.00  0.00    -0.050 C 
ATOM     23  C   LIG    1        1.193   3.557  -0.157  0.00  0.00    +0.090 C 
BRANCH  23  24
ATOM     24  C   LIG    1        1.199   2.086  -0.116  0.00  0.00    -0.060 A 
ATOM     25  C   LIG    1        2.388   1.395   0.140  0.00  0.00    +0.040 A 
ATOM     26  C   LIG    1        2.387   0.017   0.178  0.00  0.00    +0.030 A 
ATOM     27  C   LIG    1        1.213  -0.684  -0.037  0.00  0.00    +0.040 A 
ATOM     28  C   LIG    1        0.031  -0.008  -0.291  0.00  0.00    -0.040 A 
ATOM     29 CL   LIG    1       -1.436  -0.897  -0.558  0.00  0.00    -0.070 Cl
ATOM     30  C   LIG    1        0.016   1.371  -0.332  0.00  0.00    +0.050 A 
ENDBRANCH  23  24
ENDBRANCH  20  22
ENDBRANCH  10  20
TORSDOF 4
