REMARK  Name = ZINCvU0000000Arg.0
REMARK                            x       y       z     vdW  Elec       q    Type
REMARK                         _______ _______ _______ _____ _____    ______ ____
ROOT
ATOM      1  C   LIG    1        3.586  -4.699   1.310  0.00  0.00    -0.010 C 
ATOM      2  C   LIG    1        4.845  -3.832   1.386  0.00  0.00    +0.060 C 
ATOM      3  C   LIG    1        4.911  -2.926   0.152  0.00  0.00    +0.280 C 
ATOM      4  N   LIG    1        3.659  -2.164   0.057  0.00  0.00    -0.610 N 
ATOM      5  C   LIG    1        2.384  -2.895   0.073  0.00  0.00    +0.280 C 
ATOM      6  C   LIG    1        3.678  -0.820  -0.038  0.00  0.00    +0.570 C 
ATOM      7  O   LIG    1        4.739  -0.231  -0.122  0.00  0.00    -0.530 OA
ATOM      8  C   LIG    1        2.346  -3.802   1.302  0.00  0.00    +0.030 C 
ENDROOT
BRANCH   6   9
ATOM      9  C   LIG    1        2.413  -0.062  -0.039  0.00  0.00    -0.120 A 
ATOM     10  C   LIG    1        1.409  -0.361  -0.951  0.00  0.00    +0.050 A 
ATOM     11  C   LIG    1        0.218   0.353  -0.951  0.00  0.00    +0.000 A 
ATOM     12  C   LIG    1       -0.013   1.363  -0.068  0.00  0.00    +0.050 A 
ATOM     13  C   LIG    1        0.958   1.719   0.883  0.00  0.00    -0.060 A 
ATOM     14  C   LIG    1        0.735   2.760   1.802  0.00  0.00    +0.030 A 
ATOM     15  C   LIG    1        1.701   3.076   2.708  0.00  0.00    +0.020 A 
ATOM     16  C   LIG    1        2.909   2.384   2.741  0.00  0.00    +0.020 A 
ATOM     17  C   LIG    1        3.158   1.369   1.866  0.00  0.00    +0.030 A 
ATOM     18  C   LIG    1        2.188   1.017   0.919  0.00  0.00    -0.020 A 
ENDBRANCH   6   9
BRANCH   1  21
ATOM     19  N   LIG    1        2.508  -6.476   2.650  0.00  0.00    -0.720 N 
ATOM     20  H   LIG    1        1.802  -6.505   1.986  0.00  0.00    +0.400 HD
ATOM     21  C   LIG    1        3.535  -5.616   2.505  0.00  0.00    +0.520 C 
ATOM     22  O   LIG    1        4.418  -5.579   3.335  0.00  0.00    -0.530 OA
BRANCH  19  23
ATOM     23  C   LIG    1        2.458  -7.367   3.812  0.00  0.00    +0.290 C 
BRANCH  23  24
ATOM     24  C   LIG    1        1.639  -8.586   3.475  0.00  0.00    -0.090 A 
ATOM     25  C   LIG    1        0.482  -8.457   2.729  0.00  0.00    +0.000 A 
ATOM     26  C   LIG    1       -0.267  -9.576   2.417  0.00  0.00    +0.000 A 
ATOM     27  C   LIG    1        0.136 -10.823   2.857  0.00  0.00    +0.000 A 
ATOM     28  C   LIG    1        1.290 -10.951   3.608  0.00  0.00    +0.020 A 
ATOM     29  C   LIG    1        2.041  -9.833   3.917  0.00  0.00    +0.010 A 
ENDBRANCH  23  24
BRANCH  23  30
ATOM     30  C   LIG    1        1.818  -6.633   4.991  0.00  0.00    +0.010 C 
BRANCH  30  32
ATOM     31  C   LIG    1        2.075  -4.732   6.593  0.00  0.00    +0.000 C 
ATOM     32  C   LIG    1        2.715  -5.467   5.413  0.00  0.00    +0.010 C 
ENDBRANCH  30  32
ENDBRANCH  23  30
ENDBRANCH  19  23
ENDBRANCH   1  21
TORSDOF 6
