REMARK  Name = ZINCtV00000L6kq8.0
REMARK                            x       y       z     vdW  Elec       q    Type
REMARK                         _______ _______ _______ _____ _____    ______ ____
ROOT
ATOM      1  C   LIG    1       -3.564   3.216   0.088  0.00  0.00    +0.190 A 
ATOM      2  N   LIG    1       -2.402   3.838   0.045  0.00  0.00    -0.430 NA
ATOM      3  C   LIG    1       -1.242   3.180  -0.024  0.00  0.00    +0.130 A 
ATOM      4  C   LIG    1       -0.019   3.870  -0.087  0.00  0.00    +0.050 A 
ATOM      5  C   LIG    1        1.148   3.171  -0.158  0.00  0.00    +0.040 A 
ATOM      6  C   LIG    1        1.152   1.779  -0.168  0.00  0.00    +0.030 A 
ATOM      7  C   LIG    1       -0.016   1.077  -0.107  0.00  0.00    +0.050 A 
ATOM      8  C   LIG    1       -1.232   1.763  -0.041  0.00  0.00    -0.070 A 
ATOM      9  C   LIG    1       -2.510   1.051   0.020  0.00  0.00    +0.050 A 
ATOM     10  C   LIG    1       -3.666   1.820   0.084  0.00  0.00    +0.000 A 
ENDROOT
BRANCH   9  11
ATOM     11  C   LIG    1       -2.569  -0.424   0.012  0.00  0.00    +0.200 A 
ATOM     12  N   LIG    1       -1.924  -1.232  -0.805  0.00  0.00    -0.260 NA
ATOM     13  N   LIG    1       -2.208  -2.453  -0.517  0.00  0.00    -0.290 NA
ATOM     14  C   LIG    1       -3.037  -2.491   0.491  0.00  0.00    +0.200 A 
ATOM     15  C   LIG    1       -3.604  -3.720   1.154  0.00  0.00    +0.160 C 
ATOM     16  C   LIG    1       -5.114  -3.539   1.335  0.00  0.00    +0.030 C 
ATOM     17  C   LIG    1       -5.390  -2.848   2.667  0.00  0.00    +0.020 C 
ATOM     18  C   LIG    1       -4.273  -1.860   2.998  0.00  0.00    +0.030 C 
ATOM     19  C   LIG    1       -4.203  -0.778   1.917  0.00  0.00    +0.290 C 
ATOM     20  N   LIG    1       -3.296  -1.215   0.855  0.00  0.00    -0.460 N 
ENDBRANCH   9  11
BRANCH   1  25
ATOM     21 CL   LIG    1       -8.581   6.475   0.366  0.00  0.00    -0.030 Cl
ATOM     22  C   LIG    1       -7.126   5.531   0.286  0.00  0.00    -0.010 A 
ATOM     23  C   LIG    1       -7.200   4.149   0.280  0.00  0.00    +0.060 A 
ATOM     24  C   LIG    1       -6.048   3.393   0.210  0.00  0.00    +0.080 A 
ATOM     25  C   LIG    1       -4.805   4.024   0.157  0.00  0.00    -0.030 A 
ATOM     26  C   LIG    1       -4.735   5.417   0.163  0.00  0.00    +0.010 A 
ATOM     27 CL   LIG    1       -3.192   6.210   0.091  0.00  0.00    +0.010 Cl
ATOM     28  C   LIG    1       -5.895   6.164   0.227  0.00  0.00    -0.040 A 
ATOM     29 CL   LIG    1       -5.811   7.898   0.235  0.00  0.00    -0.020 Cl
ENDBRANCH   1  25
TORSDOF 2
