REMARK  Name = ZINCvU00000007Rt.0
REMARK                            x       y       z     vdW  Elec       q    Type
REMARK                         _______ _______ _______ _____ _____    ______ ____
ROOT
ATOM      1  O   LIG    1        2.374   4.050   0.124  0.00  0.00    -0.520 OA
ATOM      2  C   LIG    1        3.487   3.560   0.095  0.00  0.00    +0.560 C 
ATOM      3  N   LIG    1        3.640   2.227   0.227  0.00  0.00    -0.660 N 
ATOM      4  H   LIG    1        4.529   1.845   0.289  0.00  0.00    +0.420 HD
ENDROOT
BRANCH   2   5
ATOM      5  C   LIG    1        4.669   4.424  -0.086  0.00  0.00    -0.140 A 
ATOM      6  C   LIG    1        5.949   3.863  -0.115  0.00  0.00    +0.080 A 
ATOM      7  C   LIG    1        7.049   4.672  -0.290  0.00  0.00    +0.010 A 
ATOM      8  C   LIG    1        6.889   6.046  -0.425  0.00  0.00    +0.110 A 
ATOM      9  C   LIG    1        5.619   6.609  -0.391  0.00  0.00    +0.000 A 
ATOM     10  C   LIG    1        4.513   5.806  -0.223  0.00  0.00    +0.110 A 
BRANCH   8  11
ATOM     11  O   LIG    1        7.977   6.841  -0.592  0.00  0.00    -0.250 OA
BRANCH  11  12
ATOM     12  C   LIG    1        8.411   7.561   0.475  0.00  0.00    +0.110 A 
ATOM     13  C   LIG    1        7.790   7.418   1.708  0.00  0.00    -0.030 A 
ATOM     14  C   LIG    1        8.236   8.147   2.794  0.00  0.00    +0.030 A 
ATOM     15  C   LIG    1        9.294   9.029   2.649  0.00  0.00    +0.070 A 
ATOM     16  C   LIG    1        9.910   9.177   1.418  0.00  0.00    +0.040 A 
ATOM     17  F   LIG    1        9.725   9.745   3.711  0.00  0.00    -0.140 F 
ATOM     18  C   LIG    1        9.470   8.445   0.332  0.00  0.00    +0.040 A 
ENDBRANCH  11  12
ENDBRANCH   8  11
ENDBRANCH   2   5
BRANCH   3  19
ATOM     19  C   LIG    1        2.521   1.399   0.273  0.00  0.00    +0.210 A 
ATOM     20  C   LIG    1        1.396   1.787   0.987  0.00  0.00    +0.010 A 
ATOM     21  C   LIG    1        0.288   0.964   1.032  0.00  0.00    +0.070 A 
ATOM     22  C   LIG    1        0.290  -0.251   0.366  0.00  0.00    -0.010 A 
ATOM     23  C   LIG    1        1.398  -0.652  -0.348  0.00  0.00    +0.060 A 
ATOM     24  C   LIG    1        2.526   0.169  -0.402  0.00  0.00    -0.170 A 
BRANCH  24  25
ATOM     25  C   LIG    1        3.716  -0.254  -1.165  0.00  0.00    +0.580 C 
ATOM     26  N   LIG    1        3.734  -1.457  -1.773  0.00  0.00    -0.730 N 
ATOM     27  H   LIG    1        2.965  -2.044  -1.708  0.00  0.00    +0.410 HD
ATOM     28  O   LIG    1        4.680   0.483  -1.246  0.00  0.00    -0.530 OA
BRANCH  26  29
ATOM     29  C   LIG    1        4.916  -1.877  -2.530  0.00  0.00    +0.320 C 
BRANCH  29  30
ATOM     30  C   LIG    1        4.678  -3.271  -3.114  0.00  0.00    +0.450 C 
ATOM     31  F   LIG    1        4.444  -4.178  -2.075  0.00  0.00    -0.180 F 
ATOM     32  F   LIG    1        5.806  -3.672  -3.838  0.00  0.00    -0.170 F 
ATOM     33  F   LIG    1        3.567  -3.237  -3.964  0.00  0.00    -0.180 F 
ENDBRANCH  29  30
ENDBRANCH  26  29
ENDBRANCH  24  25
ENDBRANCH   3  19
TORSDOF 7
