REMARK  Name = ZINCvS0000000iYt.1
REMARK                            x       y       z     vdW  Elec       q    Type
REMARK                         _______ _______ _______ _____ _____    ______ ____
ROOT
ATOM      1  C   LIG    1       -4.194  -0.024   1.407  0.00  0.00    +0.250 C 
ENDROOT
BRANCH   1   2
ATOM      2  C   LIG    1       -5.287   0.835   0.826  0.00  0.00    -0.160 A 
ATOM      3  C   LIG    1       -5.350   2.179   1.139  0.00  0.00    +0.000 A 
ATOM      4  C   LIG    1       -6.350   2.968   0.603  0.00  0.00    +0.040 A 
ATOM      5  C   LIG    1       -7.293   2.410  -0.240  0.00  0.00    +0.060 A 
ATOM      6  C   LIG    1       -7.234   1.064  -0.549  0.00  0.00    +0.040 A 
ATOM      7  C   LIG    1       -6.231   0.276  -0.016  0.00  0.00    +0.050 A 
ENDBRANCH   1   2
BRANCH   1   9
ATOM      8  O   LIG    1       -3.824  -0.081   3.737  0.00  0.00    -0.510 OA
ATOM      9  C   LIG    1       -4.551  -0.403   2.822  0.00  0.00    +0.510 C 
ATOM     10  N   LIG    1       -5.678  -1.099   3.069  0.00  0.00    -0.630 N 
ATOM     11  H   LIG    1       -6.293  -1.299   2.346  0.00  0.00    +0.420 HD
BRANCH  10  12
ATOM     12  C   LIG    1       -5.961  -1.534   4.369  0.00  0.00    +0.100 A 
ATOM     13  C   LIG    1       -6.604  -2.748   4.572  0.00  0.00    +0.040 A 
ATOM     14  C   LIG    1       -6.878  -3.178   5.855  0.00  0.00    +0.020 A 
ATOM     15  C   LIG    1       -6.521  -2.394   6.940  0.00  0.00    +0.110 A 
ATOM     16  C   LIG    1       -5.884  -1.181   6.740  0.00  0.00    +0.010 A 
ATOM     17  F   LIG    1       -6.795  -2.814   8.194  0.00  0.00    -0.130 F 
ATOM     18  C   LIG    1       -5.604  -0.750   5.458  0.00  0.00    +0.070 A 
ENDBRANCH  10  12
ENDBRANCH   1   9
BRANCH   1  19
ATOM     19  N   LIG    1       -2.930   0.724   1.405  0.00  0.00    -0.490 N 
ATOM     20  H   LIG    1       -3.056   1.599   1.892  0.00  0.00    +0.430 HD
ATOM     21  H   LIG    1       -2.216   0.181   1.868  0.00  0.00    +0.440 HD
BRANCH  19  22
ATOM     22  C   LIG    1       -2.520   0.989   0.019  0.00  0.00    +0.340 C 
BRANCH  22  23
ATOM     23  C   LIG    1       -1.224   1.757   0.017  0.00  0.00    -0.130 A 
ATOM     24  C   LIG    1       -0.019   1.079  -0.002  0.00  0.00    +0.060 A 
ATOM     25  C   LIG    1        1.171   1.784  -0.009  0.00  0.00    +0.050 A 
ATOM     26  C   LIG    1        1.155   3.166   0.006  0.00  0.00    -0.120 A 
ATOM     27  C   LIG    1       -0.049   3.844   0.030  0.00  0.00    +0.060 A 
ATOM     28  C   LIG    1       -1.239   3.139   0.036  0.00  0.00    +0.060 A 
BRANCH  26  29
ATOM     29  C   LIG    1        2.452   3.933  -0.001  0.00  0.00    +0.320 C 
BRANCH  29  30
ATOM     30  N   LIG    1        2.856   4.199  -1.389  0.00  0.00    -0.390 N 
ATOM     31  C   LIG    1        4.081   5.038  -1.414  0.00  0.00    +0.270 C 
ATOM     32  C   LIG    1        4.675   4.755  -2.817  0.00  0.00    +0.070 C 
ATOM     33  C   LIG    1        4.384   3.251  -3.020  0.00  0.00    +0.070 C 
ATOM     34  C   LIG    1        3.218   2.934  -2.065  0.00  0.00    +0.250 C 
ATOM     35  H   LIG    1        2.109   4.658  -1.887  0.00  0.00    +0.430 HD
ENDBRANCH  29  30
ENDBRANCH  26  29
ENDBRANCH  22  23
ENDBRANCH  19  22
ENDBRANCH   1  19
TORSDOF 8
