REMARK  Name = ZINCqH0000001G6p.0
REMARK                            x       y       z     vdW  Elec       q    Type
REMARK                         _______ _______ _______ _____ _____    ______ ____
ROOT
ATOM      1  C   LIG    1        4.741   1.141  -0.236  0.00  0.00    +0.260 C 
ENDROOT
BRANCH   1   2
ATOM      2  C   LIG    1        3.369   1.734  -0.046  0.00  0.00    +0.520 C 
ATOM      3  N   LIG    1        2.277   1.042  -0.428  0.00  0.00    -0.660 N 
ATOM      4  H   LIG    1        2.369   0.133  -0.755  0.00  0.00    +0.420 HD
ATOM      5  O   LIG    1        3.247   2.834   0.450  0.00  0.00    -0.510 OA
BRANCH   3   6
ATOM      6  C   LIG    1        1.012   1.635  -0.352  0.00  0.00    +0.090 A 
ATOM      7  C   LIG    1        0.859   3.003  -0.560  0.00  0.00    +0.060 A 
ATOM      8  C   LIG    1       -0.414   3.544  -0.470  0.00  0.00    -0.010 A 
ATOM      9  C   LIG    1       -1.482   2.713  -0.189  0.00  0.00    +0.240 A 
ATOM     10  N   LIG    1       -1.304   1.421   0.003  0.00  0.00    -0.460 NA
ATOM     11  C   LIG    1       -0.110   0.867  -0.069  0.00  0.00    +0.240 A 
ENDBRANCH   3   6
ENDBRANCH   1   2
BRANCH   1  12
ATOM     12  N   LIG    1        5.739   2.214  -0.255  0.00  0.00    -0.710 N 
ATOM     13  H   LIG    1        5.553   3.056   0.190  0.00  0.00    +0.410 HD
ATOM     14  C   LIG    1        6.914   2.030  -0.889  0.00  0.00    +0.570 C 
ATOM     15  O   LIG    1        7.146   0.975  -1.446  0.00  0.00    -0.530 OA
BRANCH  14  16
ATOM     16  C   LIG    1        7.920   3.113  -0.907  0.00  0.00    -0.140 A 
ATOM     17  C   LIG    1        7.655   4.328  -0.274  0.00  0.00    +0.050 A 
ATOM     18  C   LIG    1        8.600   5.333  -0.291  0.00  0.00    +0.000 A 
ATOM     19  C   LIG    1        9.805   5.142  -0.943  0.00  0.00    -0.040 A 
ATOM     20  C   LIG    1       10.073   3.941  -1.577  0.00  0.00    +0.010 A 
ATOM     21  C   LIG    1        9.138   2.927  -1.563  0.00  0.00    +0.090 A 
BRANCH  19  22
ATOM     22  C   LIG    1       10.831   6.246  -0.964  0.00  0.00    -0.040 C 
ATOM     23  C   LIG    1       12.121   5.756  -0.302  0.00  0.00    +0.040 C 
ATOM     24  C   LIG    1       10.293   7.456  -0.197  0.00  0.00    +0.030 C 
ATOM     25  C   LIG    1       11.120   6.647  -2.412  0.00  0.00    +0.040 C 
ENDBRANCH  19  22
ENDBRANCH  14  16
ENDBRANCH   1  12
BRANCH   1  27
ATOM     26  C   LIG    1        6.378  -0.524   0.653  0.00  0.00    +0.030 C 
ATOM     27  C   LIG    1        5.046   0.181   0.916  0.00  0.00    -0.020 C 
ATOM     28  C   LIG    1        5.135   0.968   2.225  0.00  0.00    +0.030 C 
ENDBRANCH   1  27
TORSDOF 6
