REMARK  Name = ZINCah0000002rKy.0
REMARK                            x       y       z     vdW  Elec       q    Type
REMARK                         _______ _______ _______ _____ _____    ______ ____
ROOT
ATOM      1  C   LIG    1        1.210   1.785   0.000  0.00  0.00    +0.190 A 
ATOM      2  N   LIG    1       -0.016   1.337   0.009  0.00  0.00    -0.470 NA
ATOM      3  C   LIG    1        0.002  -0.004   0.002  0.00  0.00    +0.190 A 
ATOM      4  C   LIG    1        1.289  -0.404  -0.012  0.00  0.00    +0.010 A 
ATOM      5 CL   LIG    1        1.865  -2.041  -0.026  0.00  0.00    -0.000 Cl
ATOM      6  N   LIG    1        2.056   0.731  -0.014  0.00  0.00    -0.450 N 
ATOM      7  C   LIG    1        3.519   0.791  -0.027  0.00  0.00    +0.340 C 
ENDROOT
BRANCH   1   9
ATOM      8  C   LIG    1        1.406   3.821   1.402  0.00  0.00    +0.040 C 
ATOM      9  C   LIG    1        1.615   3.236   0.004  0.00  0.00    +0.300 C 
BRANCH   9  10
ATOM     10  O   LIG    1        0.816   3.956  -0.938  0.00  0.00    -0.540 OA
ATOM     11  H   LIG    1       -0.133   3.924  -0.754  0.00  0.00    +0.390 HD
ENDBRANCH   9  10
ENDBRANCH   1   9
TORSDOF 2
