REMARK  Name = ZINCpe00000gMTCY.0
REMARK                            x       y       z     vdW  Elec       q    Type
REMARK                         _______ _______ _______ _____ _____    ______ ____
ROOT
ATOM      1  C   LIG    1       -0.013   1.215  -0.026  0.00  0.00    +0.500 C 
ATOM      2  N   LIG    1       -1.191   1.870  -0.002  0.00  0.00    -0.610 N 
ATOM      3  C   LIG    1       -1.231   3.334   0.113  0.00  0.00    +0.290 C 
ATOM      4  C   LIG    1       -2.077   3.896  -1.034  0.00  0.00    -0.010 C 
ATOM      5  C   LIG    1       -3.453   3.227  -1.024  0.00  0.00    +0.050 C 
ATOM      6  C   LIG    1       -3.291   1.720  -1.236  0.00  0.00    +0.030 C 
ATOM      7  C   LIG    1       -2.459   1.134  -0.097  0.00  0.00    +0.210 C 
ATOM      8  C   LIG    1       -2.175  -0.343  -0.378  0.00  0.00    +0.050 C 
ATOM      9  O   LIG    1        0.007   0.003  -0.015  0.00  0.00    -0.510 OA
ENDROOT
BRANCH   4  10
ATOM     10  C   LIG    1       -1.391   3.618  -2.347  0.00  0.00    +0.520 C 
ATOM     11  O   LIG    1       -1.949   2.951  -3.193  0.00  0.00    -0.520 OA
ATOM     12  N   LIG    1       -0.158   4.109  -2.581  0.00  0.00    -0.860 N 
ATOM     13  H   LIG    1        0.283   3.929  -3.426  0.00  0.00    +0.400 HD
ATOM     14  H   LIG    1        0.288   4.641  -1.905  0.00  0.00    +0.400 HD
ENDBRANCH   4  10
BRANCH   1  15
ATOM     15  C   LIG    1        1.279   1.990  -0.072  0.00  0.00    +0.320 C 
BRANCH  15  24
ATOM     16  C   LIG    1        6.071  -2.031  -1.773  0.00  0.00    +0.110 C 
ATOM     17  C   LIG    1        5.593  -1.590  -0.414  0.00  0.00    -0.070 A 
ATOM     18  C   LIG    1        6.210  -2.061   0.723  0.00  0.00    +0.060 A 
ATOM     19  C   LIG    1        5.781  -1.663   1.983  0.00  0.00    +0.010 A 
ATOM     20  C   LIG    1        4.728  -0.786   2.120  0.00  0.00    +0.090 A 
ATOM     21  C   LIG    1        4.089  -0.297   0.982  0.00  0.00    -0.190 A 
ATOM     22  C   LIG    1        2.963   0.644   1.066  0.00  0.00    +0.560 A 
ATOM     23  O   LIG    1        2.544   1.034   2.140  0.00  0.00    -0.510 OA
ATOM     24  N   LIG    1        2.407   1.056  -0.098  0.00  0.00    -0.530 N 
ATOM     25  C   LIG    1        2.890   0.616  -1.289  0.00  0.00    +0.580 A 
ATOM     26  N   LIG    1        3.885  -0.211  -1.394  0.00  0.00    -0.510 NA
ATOM     27  C   LIG    1        4.523  -0.700  -0.301  0.00  0.00    +0.150 A 
ENDBRANCH  15  24
ENDBRANCH   1  15
TORSDOF 3
