REMARK  Name = ZINCpk00000e9Nw4.0
REMARK                            x       y       z     vdW  Elec       q    Type
REMARK                         _______ _______ _______ _____ _____    ______ ____
ROOT
ATOM      1  C   LIG    1        5.802   4.600  -3.380  0.00  0.00    +0.300 C 
ATOM      2  N   LIG    1        5.395   5.366  -2.199  0.00  0.00    -0.610 N 
ATOM      3  C   LIG    1        4.739   4.755  -1.192  0.00  0.00    +0.520 C 
ATOM      4  O   LIG    1        4.402   5.389  -0.215  0.00  0.00    -0.510 OA
ENDROOT
BRANCH   3   5
ATOM      5  C   LIG    1        4.426   3.284  -1.281  0.00  0.00    +0.130 C 
BRANCH   5   6
ATOM      6  C   LIG    1        3.683   2.844  -0.018  0.00  0.00    +0.070 C 
ATOM      7  S   LIG    1        1.994   3.524   0.002  0.00  0.00    +0.060 S 
ATOM      8  C   LIG    1        1.200   1.931   0.001  0.00  0.00    +0.310 C 
ATOM      9  N   LIG    1       -0.018   1.459   0.010  0.00  0.00    -0.480 NA
ATOM     10  C   LIG    1        0.002  -0.004   0.002  0.00  0.00    +0.240 C 
ATOM     11  C   LIG    1        1.496  -0.359  -0.014  0.00  0.00    +0.280 C 
ATOM     12  N   LIG    1        2.177   0.969  -0.013  0.00  0.00    -0.600 N 
ATOM     13  C   LIG    1        3.464   1.356  -0.024  0.00  0.00    +0.540 C 
ATOM     14  O   LIG    1        4.382   0.564  -0.037  0.00  0.00    -0.480 OA
ENDBRANCH   5   6
ENDBRANCH   3   5
BRANCH   2  15
ATOM     15  C   LIG    1        5.699   6.797  -2.113  0.00  0.00    +0.470 C 
BRANCH  15  16
ATOM     16  C   LIG    1        7.044   6.985  -1.460  0.00  0.00    +0.170 A 
ATOM     17  N   LIG    1        8.203   7.040  -2.067  0.00  0.00    -0.460 NA
ATOM     18  C   LIG    1        9.119   7.218  -1.087  0.00  0.00    +0.240 A 
ATOM     19  N   LIG    1        8.466   7.260   0.049  0.00  0.00    -0.360 NA
ATOM     20  O   LIG    1        7.277   7.133  -0.151  0.00  0.00    +0.100 OA
BRANCH  18  21
ATOM     21  C   LIG    1       10.581   7.342  -1.264  0.00  0.00    -0.140 A 
ATOM     22  C   LIG    1       11.473   7.519  -0.268  0.00  0.00    +0.060 A 
ATOM     23  C   LIG    1       12.786   7.607  -0.680  0.00  0.00    +0.010 A 
ATOM     24  C   LIG    1       12.974   7.505  -2.000  0.00  0.00    -0.030 A 
ATOM     25  S   LIG    1       11.427   7.275  -2.804  0.00  0.00    +0.190 S 
ENDBRANCH  18  21
ENDBRANCH  15  16
ENDBRANCH   2  15
TORSDOF 5
