REMARK  Name = ZINCtV00001bB3r8.0
REMARK                            x       y       z     vdW  Elec       q    Type
REMARK                         _______ _______ _______ _____ _____    ______ ____
ROOT
ATOM      1  C   LIG    1        6.274   2.196   0.065  0.00  0.00    +0.150 C 
ATOM      2  C   LIG    1        7.540   1.381  -0.007  0.00  0.00    +0.200 A 
ATOM      3  N   LIG    1        8.693   1.998  -0.047  0.00  0.00    -0.470 NA
ATOM      4  C   LIG    1        9.853   1.332  -0.111  0.00  0.00    +0.150 A 
ATOM      5  C   LIG    1       11.076   2.022  -0.153  0.00  0.00    +0.070 A 
ATOM      6  C   LIG    1       12.245   1.326  -0.218  0.00  0.00    +0.050 A 
ATOM      7  C   LIG    1       12.251  -0.067  -0.244  0.00  0.00    -0.030 A 
ATOM      8  C   LIG    1       11.082  -0.771  -0.205  0.00  0.00    +0.060 A 
ATOM      9 CL   LIG    1       13.762  -0.918  -0.327  0.00  0.00    -0.060 Cl
ATOM     10  C   LIG    1        9.862  -0.084  -0.138  0.00  0.00    -0.090 A 
ATOM     11  C   LIG    1        8.630  -0.781  -0.091  0.00  0.00    +0.060 A 
ATOM     12  C   LIG    1        7.452  -0.020  -0.029  0.00  0.00    -0.190 A 
ENDROOT
BRANCH  11  13
ATOM     13  C   LIG    1        8.585  -2.259  -0.110  0.00  0.00    -0.080 A 
ATOM     14  C   LIG    1        8.107  -2.961   0.998  0.00  0.00    +0.040 A 
ATOM     15  C   LIG    1        8.063  -4.339   0.971  0.00  0.00    +0.020 A 
ATOM     16  C   LIG    1        8.502  -5.026  -0.147  0.00  0.00    +0.030 A 
ATOM     17  C   LIG    1        8.983  -4.337  -1.246  0.00  0.00    +0.010 A 
ATOM     18  C   LIG    1        9.027  -2.958  -1.235  0.00  0.00    +0.040 A 
ENDBRANCH  11  13
BRANCH  12  19
ATOM     19  C   LIG    1        6.135  -0.685   0.018  0.00  0.00    +0.440 C 
ATOM     20  O   LIG    1        5.594  -0.888   1.090  0.00  0.00    -0.440 OA
BRANCH  19  21
ATOM     21  C   LIG    1        5.481  -1.101  -1.222  0.00  0.00    -0.090 C 
ATOM     22  C   LIG    1        4.330  -1.807  -1.175  0.00  0.00    +0.130 C 
BRANCH  22  23
ATOM     23  C   LIG    1        3.673  -2.225  -2.421  0.00  0.00    -0.120 A 
ATOM     24  C   LIG    1        4.236  -1.893  -3.659  0.00  0.00    +0.070 A 
ATOM     25  C   LIG    1        3.613  -2.289  -4.823  0.00  0.00    +0.010 A 
ATOM     26  C   LIG    1        2.434  -3.013  -4.772  0.00  0.00    +0.070 A 
ATOM     27  C   LIG    1        1.869  -3.346  -3.555  0.00  0.00    -0.020 A 
ATOM     28  C   LIG    1        2.479  -2.958  -2.377  0.00  0.00    +0.120 A 
ATOM     29  F   LIG    1        1.927  -3.283  -1.188  0.00  0.00    -0.130 F 
ENDBRANCH  22  23
ENDBRANCH  19  21
ENDBRANCH  12  19
TORSDOF 4
