REMARK  Name = ZINCqH0000000twr.0
REMARK                            x       y       z     vdW  Elec       q    Type
REMARK                         _______ _______ _______ _____ _____    ______ ____
ROOT
ATOM      1  C   LIG    1       -1.449  -2.170   0.741  0.00  0.00    +0.430 C 
ATOM      2  O   LIG    1       -0.360  -2.705   0.770  0.00  0.00    -0.440 OA
ENDROOT
BRANCH   1   3
ATOM      3  C   LIG    1       -2.665  -2.980   0.835  0.00  0.00    -0.240 A 
ATOM      4  C   LIG    1       -2.742  -4.355   0.956  0.00  0.00    +0.120 A 
ATOM      5  N   LIG    1       -4.045  -4.698   1.016  0.00  0.00    -0.360 N 
ATOM      6  C   LIG    1       -4.835  -3.585   0.928  0.00  0.00    +0.040 A 
ATOM      7  C   LIG    1       -6.341  -3.578   0.953  0.00  0.00    +0.140 C 
ATOM      8  C   LIG    1       -1.574  -5.304   1.014  0.00  0.00    +0.160 C 
ATOM      9  C   LIG    1       -4.053  -2.498   0.815  0.00  0.00    +0.010 A 
BRANCH   5  10
ATOM     10  C   LIG    1       -4.519  -6.002   1.142  0.00  0.00    +0.220 A 
ATOM     11  N   LIG    1       -5.434  -6.535   0.396  0.00  0.00    -0.460 NA
ATOM     12  C   LIG    1       -5.761  -7.786   0.652  0.00  0.00    +0.240 A 
ATOM     13  C   LIG    1       -5.096  -8.336   1.671  0.00  0.00    -0.060 A 
ATOM     14  S   LIG    1       -3.982  -7.130   2.309  0.00  0.00    +0.190 S 
ENDBRANCH   5  10
ENDBRANCH   1   3
BRANCH   1  15
ATOM     15  C   LIG    1       -1.550  -0.672   0.607  0.00  0.00    +0.220 C 
BRANCH  15  16
ATOM     16  O   LIG    1       -0.238  -0.111   0.533  0.00  0.00    -0.300 OA
BRANCH  16  20
ATOM     17  C   LIG    1        0.029   3.991   0.156  0.00  0.00    +0.100 A 
ATOM     18  C   LIG    1        1.183   3.222   0.205  0.00  0.00    +0.070 A 
ATOM     19  C   LIG    1        1.094   1.850   0.332  0.00  0.00    +0.010 A 
ATOM     20  C   LIG    1       -0.150   1.240   0.409  0.00  0.00    +0.120 A 
ATOM     21  C   LIG    1       -1.304   2.007   0.353  0.00  0.00    -0.060 A 
ATOM     22  C   LIG    1       -1.216   3.380   0.233  0.00  0.00    +0.030 A 
BRANCH  17  25
ATOM     23  C   LIG    1        1.143   7.420  -0.934  0.00  0.00    +0.110 C 
ATOM     24  C   LIG    1        1.103   5.929  -0.715  0.00  0.00    +0.510 C 
ATOM     25  N   LIG    1        0.119   5.383   0.027  0.00  0.00    -0.670 N 
ATOM     26  H   LIG    1       -0.527   5.955   0.472  0.00  0.00    +0.410 HD
ATOM     27  O   LIG    1        1.956   5.221  -1.206  0.00  0.00    -0.530 OA
ENDBRANCH  17  25
ENDBRANCH  16  20
ENDBRANCH  15  16
ENDBRANCH   1  15
TORSDOF 6
