REMARK  Name = ZINCpe000000UZzj.0
REMARK                            x       y       z     vdW  Elec       q    Type
REMARK                         _______ _______ _______ _____ _____    ______ ____
ROOT
ATOM      1  C   LIG    1       -2.332  -3.688  -1.445  0.00  0.00    +0.000 C 
ATOM      2  C   LIG    1       -1.076  -4.559  -1.378  0.00  0.00    +0.030 C 
ATOM      3  C   LIG    1        0.166  -3.667  -1.361  0.00  0.00    +0.010 C 
ATOM      4  C   LIG    1        0.131  -2.772  -0.117  0.00  0.00    +0.260 C 
ATOM      5  N   LIG    1       -1.141  -2.037  -0.100  0.00  0.00    -0.630 N 
ATOM      6  C   LIG    1       -1.156  -0.694   0.009  0.00  0.00    +0.700 C 
ATOM      7  N   LIG    1        0.002  -0.004   0.001  0.00  0.00    -0.740 N 
ATOM      8  H   LIG    1        0.849  -0.477  -0.009  0.00  0.00    +0.390 HD
ATOM      9  O   LIG    1       -2.214  -0.104   0.115  0.00  0.00    -0.580 OA
ATOM     10  C   LIG    1       -2.396  -2.794  -0.197  0.00  0.00    +0.300 C 
ENDROOT
BRANCH   1  11
ATOM     11  C   LIG    1       -3.573  -4.582  -1.495  0.00  0.00    -0.350 C 
BRANCH  11  12
ATOM     12  S   LIG    1       -5.050  -3.554  -1.724  0.00  0.00    +2.610 S 
ATOM     13  O   LIG    1       -5.055  -2.969  -3.018  0.00  0.00    -0.950 OA
ATOM     14  O   LIG    1       -5.297  -2.771  -0.564  0.00  0.00    -0.940 OA
BRANCH  12  16
ATOM     15  C   LIG    1       -6.624  -5.426  -0.568  0.00  0.00    +0.290 C 
ATOM     16  N   LIG    1       -6.304  -4.636  -1.760  0.00  0.00    -1.130 NA
ATOM     17  H   LIG    1       -6.826  -4.746  -2.570  0.00  0.00    +0.420 HD
ENDBRANCH  12  16
ENDBRANCH  11  12
ENDBRANCH   1  11
BRANCH   7  18
ATOM     18  C   LIG    1       -0.018   1.461   0.008  0.00  0.00    +0.370 C 
BRANCH  18  19
ATOM     19  C   LIG    1        1.396   1.982  -0.003  0.00  0.00    -0.280 A 
ATOM     20  C   LIG    1        2.225   2.084  -1.114  0.00  0.00    +0.120 A 
ATOM     21  C   LIG    1        2.045   1.779  -2.477  0.00  0.00    +0.030 A 
ATOM     22  C   LIG    1        3.066   2.002  -3.348  0.00  0.00    +0.060 A 
ATOM     23  C   LIG    1        4.277   2.534  -2.875  0.00  0.00    +0.000 A 
ATOM     24  C   LIG    1        4.431   2.826  -1.567  0.00  0.00    +0.280 A 
ATOM     25  N   LIG    1        3.415   2.609  -0.681  0.00  0.00    -0.270 N 
ATOM     26  N   LIG    1        3.305   2.816   0.700  0.00  0.00    -0.320 NA
ATOM     27  C   LIG    1        2.107   2.443   1.093  0.00  0.00    +0.290 A 
ENDBRANCH  18  19
ENDBRANCH   7  18
TORSDOF 5
