REMARK  Name = ZINCtV000002Kh3Q.0
REMARK                            x       y       z     vdW  Elec       q    Type
REMARK                         _______ _______ _______ _____ _____    ______ ____
ROOT
ATOM      1  C   LIG    1        1.894  -1.808  -0.026  0.00  0.00    +0.180 C 
ATOM      2  C   LIG    1        1.379  -0.392  -0.013  0.00  0.00    +0.150 A 
ATOM      3  N   LIG    1        2.111   0.681  -0.014  0.00  0.00    -0.250 NA
ATOM      4  N   LIG    1        1.285   1.809  -0.001  0.00  0.00    -0.300 N 
ATOM      5  C   LIG    1       -0.017   1.381   0.010  0.00  0.00    +0.030 A 
ATOM      6  S   LIG    1       -1.679   1.954   0.035  0.00  0.00    +0.250 S 
ATOM      7  C   LIG    1       -2.294   0.309   0.026  0.00  0.00    -0.260 A 
ATOM      8  C   LIG    1       -1.279  -0.569   0.011  0.00  0.00    +0.200 A 
ATOM      9  C   LIG    1        0.002  -0.004   0.002  0.00  0.00    -0.220 A 
ENDROOT
BRANCH   4  10
ATOM     10  C   LIG    1        1.713   3.142   0.002  0.00  0.00    +0.150 A 
ATOM     11  C   LIG    1        0.985   4.108  -0.681  0.00  0.00    +0.000 A 
ATOM     12  C   LIG    1        1.407   5.423  -0.672  0.00  0.00    +0.050 A 
ATOM     13  C   LIG    1        2.559   5.777   0.006  0.00  0.00    +0.010 A 
ATOM     14  C   LIG    1        3.289   4.816   0.682  0.00  0.00    +0.040 A 
ATOM     15  C   LIG    1        2.869   3.501   0.682  0.00  0.00    +0.030 A 
ENDBRANCH   4  10
BRANCH   7  16
ATOM     16  C   LIG    1       -3.712  -0.053   0.037  0.00  0.00    +0.550 C 
ATOM     17  O   LIG    1       -4.041  -1.224   0.033  0.00  0.00    -0.500 OA
BRANCH  16  18
ATOM     18  O   LIG    1       -4.655   0.912   0.051  0.00  0.00    -0.350 OA
BRANCH  18  19
ATOM     19  C   LIG    1       -6.041   0.480   0.061  0.00  0.00    +0.270 C 
BRANCH  19  20
ATOM     20  C   LIG    1       -6.943   1.687   0.077  0.00  0.00    -0.110 A 
ATOM     21  C   LIG    1       -7.351   2.230   1.281  0.00  0.00    +0.030 A 
ATOM     22  C   LIG    1       -8.175   3.340   1.295  0.00  0.00    +0.010 A 
ATOM     23  C   LIG    1       -8.600   3.901   0.104  0.00  0.00    -0.060 A 
ATOM     24  C   LIG    1       -8.196   3.354  -1.099  0.00  0.00    +0.000 A 
ATOM     25  C   LIG    1       -7.368   2.247  -1.113  0.00  0.00    +0.030 A 
BRANCH  23  26
ATOM     26  C   LIG    1       -9.503   5.107   0.120  0.00  0.00    -0.030 C 
ATOM     27  C   LIG    1       -8.815   6.268  -0.601  0.00  0.00    +0.040 C 
ATOM     28  C   LIG    1       -9.795   5.507   1.567  0.00  0.00    +0.030 C 
ATOM     29  C   LIG    1      -10.815   4.770  -0.591  0.00  0.00    +0.040 C 
ENDBRANCH  23  26
ENDBRANCH  19  20
ENDBRANCH  18  19
ENDBRANCH  16  18
ENDBRANCH   7  16
TORSDOF 6
