REMARK  Name = ZINCpe00000MFIuo.0
REMARK                            x       y       z     vdW  Elec       q    Type
REMARK                         _______ _______ _______ _____ _____    ______ ____
ROOT
ATOM      1  C   LIG    1       -2.102   1.006   1.488  0.00  0.00    +0.230 C 
ATOM      2  C   LIG    1       -2.814   0.958   0.131  0.00  0.00    +0.320 C 
ATOM      3  N   LIG    1       -2.017   0.163  -0.803  0.00  0.00    -0.470 N 
ATOM      4  C   LIG    1       -2.401  -0.409  -1.961  0.00  0.00    +0.190 A 
ATOM      5  N   LIG    1       -1.351  -1.008  -2.461  0.00  0.00    -0.290 NA
ATOM      6  N   LIG    1       -0.341  -0.843  -1.678  0.00  0.00    -0.270 NA
ATOM      7  C   LIG    1       -3.780  -0.366  -2.567  0.00  0.00    +0.200 C 
ATOM      8  C   LIG    1       -0.702  -0.138  -0.651  0.00  0.00    +0.150 A 
ATOM      9  C   LIG    1        0.129   0.303   0.530  0.00  0.00    +0.430 C 
ATOM     10  N   LIG    1       -0.673   1.292   1.277  0.00  0.00    -0.610 N 
ATOM     11  C   LIG    1       -0.113   2.422   1.751  0.00  0.00    +0.570 C 
ATOM     12  O   LIG    1       -0.750   3.157   2.480  0.00  0.00    -0.490 OA
ENDROOT
BRANCH  11  13
ATOM     13  C   LIG    1        1.273   2.769   1.384  0.00  0.00    -0.150 A 
ATOM     14  C   LIG    1        2.111   3.409   2.312  0.00  0.00    +0.150 A 
ATOM     15  N   LIG    1        1.937   3.831   3.605  0.00  0.00    -0.580 N 
ATOM     16  H   LIG    1        1.118   3.736   4.116  0.00  0.00    +0.420 HD
ATOM     17  C   LIG    1        3.090   4.406   4.068  0.00  0.00    +0.220 A 
ATOM     18  C   LIG    1        4.031   4.376   3.111  0.00  0.00    -0.050 A 
ATOM     19  C   LIG    1        3.429   3.730   1.942  0.00  0.00    -0.120 A 
ATOM     20  C   LIG    1        3.893   3.414   0.664  0.00  0.00    +0.100 A 
ATOM     21  C   LIG    1        3.058   2.786  -0.237  0.00  0.00    -0.010 A 
ATOM     22  C   LIG    1        1.761   2.459   0.116  0.00  0.00    +0.070 A 
ENDBRANCH  11  13
BRANCH   1  26
ATOM     23  C   LIG    1       -3.682   2.873   4.432  0.00  0.00    +0.290 C 
ATOM     24  N   LIG    1       -3.089   1.820   3.604  0.00  0.00    -0.730 N 
ATOM     25  H   LIG    1       -2.967   0.929   3.968  0.00  0.00    +0.400 HD
ATOM     26  C   LIG    1       -2.712   2.089   2.339  0.00  0.00    +0.540 C 
ATOM     27  O   LIG    1       -2.864   3.203   1.885  0.00  0.00    -0.510 OA
ENDBRANCH   1  26
TORSDOF 2
