REMARK  Name = ZINCrH000004lCma.0
REMARK                            x       y       z     vdW  Elec       q    Type
REMARK                         _______ _______ _______ _____ _____    ______ ____
ROOT
ATOM      1  N   LIG    1        3.560   4.309  -3.648  0.00  0.00    -0.690 N 
ATOM      2  H   LIG    1        4.000   3.449  -3.742  0.00  0.00    +0.400 HD
ATOM      3  C   LIG    1        2.977   4.642  -2.480  0.00  0.00    +0.700 C 
ATOM      4  N   LIG    1        3.066   3.813  -1.421  0.00  0.00    -0.610 N 
ATOM      5  O   LIG    1        2.370   5.691  -2.381  0.00  0.00    -0.550 OA
ENDROOT
BRANCH   1  11
ATOM      6  C   LIG    1        4.536   5.171  -5.683  0.00  0.00    -0.130 A 
ATOM      7  C   LIG    1        4.504   6.053  -6.745  0.00  0.00    +0.050 A 
ATOM      8  C   LIG    1        3.471   6.966  -6.855  0.00  0.00    -0.020 A 
ATOM      9  C   LIG    1        2.469   6.999  -5.904  0.00  0.00    +0.030 A 
ATOM     10  C   LIG    1        2.492   6.116  -4.842  0.00  0.00    +0.020 A 
ATOM     11  C   LIG    1        3.530   5.201  -4.725  0.00  0.00    +0.170 A 
BRANCH   6  12
ATOM     12  C   LIG    1        5.662   4.176  -5.562  0.00  0.00    +0.230 C 
BRANCH  12  14
ATOM     13  C   LIG    1        7.673   3.441  -6.640  0.00  0.00    +0.200 C 
ATOM     14  O   LIG    1        6.563   4.341  -6.659  0.00  0.00    -0.380 OA
ENDBRANCH  12  14
ENDBRANCH   6  12
ENDBRANCH   1  11
BRANCH   4  15
ATOM     15  C   LIG    1        3.719   2.510  -1.565  0.00  0.00    +0.290 C 
BRANCH  15  16
ATOM     16  C   LIG    1        2.713   1.493  -2.109  0.00  0.00    +0.130 C 
ATOM     17  C   LIG    1        3.359   0.087  -2.187  0.00  0.00    +0.020 C 
ATOM     18  C   LIG    1        2.100  -0.820  -2.110  0.00  0.00    +0.010 C 
ATOM     19  C   LIG    1        1.173  -0.015  -1.174  0.00  0.00    +0.190 C 
ATOM     20  O   LIG    1        1.609   1.349  -1.202  0.00  0.00    -0.370 OA
ENDBRANCH  15  16
ENDBRANCH   4  15
BRANCH   4  21
ATOM     21  C   LIG    1        2.510   4.216  -0.127  0.00  0.00    +0.380 C 
BRANCH  21  22
ATOM     22  C   LIG    1        3.607   4.786   0.736  0.00  0.00    -0.140 A 
ATOM     23  C   LIG    1        4.222   3.994   1.685  0.00  0.00    +0.030 A 
ATOM     24  C   LIG    1        5.229   4.516   2.476  0.00  0.00    -0.020 A 
ATOM     25  C   LIG    1        5.626   5.830   2.315  0.00  0.00    +0.030 A 
ATOM     26  C   LIG    1        5.011   6.628   1.370  0.00  0.00    -0.030 A 
ATOM     27  C   LIG    1        4.001   6.107   0.575  0.00  0.00    +0.130 A 
BRANCH  27  28
ATOM     28  O   LIG    1        3.397   6.888  -0.359  0.00  0.00    -0.480 OA
ATOM     29  H   LIG    1        3.877   6.941  -1.197  0.00  0.00    +0.390 HD
ENDBRANCH  27  28
ENDBRANCH  21  22
ENDBRANCH   4  21
TORSDOF 8
