REMARK  Name = ZINCtV000002qLpq.0
REMARK                            x       y       z     vdW  Elec       q    Type
REMARK                         _______ _______ _______ _____ _____    ______ ____
ROOT
ATOM      1  C   LIG    1        3.695  -0.710   0.113  0.00  0.00    +0.250 A 
ATOM      2  N   LIG    1        3.869  -1.986  -0.143  0.00  0.00    -0.260 NA
ATOM      3  N   LIG    1        5.122  -2.242  -0.270  0.00  0.00    -0.280 NA
ATOM      4  C   LIG    1        5.827  -1.145  -0.104  0.00  0.00    +0.160 A 
ATOM      5  N   LIG    1        4.944  -0.129   0.140  0.00  0.00    -0.420 N 
ENDROOT
BRANCH   5   6
ATOM      6  C   LIG    1        5.246   1.220   0.371  0.00  0.00    +0.120 A 
ATOM      7  C   LIG    1        4.892   2.183  -0.564  0.00  0.00    +0.050 A 
ATOM      8  C   LIG    1        5.187   3.512  -0.332  0.00  0.00    +0.070 A 
ATOM      9  C   LIG    1        5.844   3.883   0.828  0.00  0.00    -0.070 A 
ATOM     10  C   LIG    1        6.203   2.925   1.759  0.00  0.00    +0.070 A 
ATOM     11 BR   LIG    1        6.253   5.703   1.140  0.00  0.00    -0.030 Br
ATOM     12  C   LIG    1        5.906   1.595   1.534  0.00  0.00    +0.050 A 
ENDBRANCH   5   6
BRANCH   1  16
ATOM     13  C   LIG    1       -0.020   1.258   0.723  0.00  0.00    -0.050 A 
ATOM     14  C   LIG    1        0.010   0.017   0.111  0.00  0.00    +0.020 A 
ATOM     15  C   LIG    1        1.213  -0.627  -0.091  0.00  0.00    +0.070 A 
ATOM     16  C   LIG    1        2.402  -0.025   0.325  0.00  0.00    -0.030 A 
ATOM     17  C   LIG    1        2.365   1.226   0.942  0.00  0.00    +0.020 A 
ATOM     18  C   LIG    1        1.155   1.860   1.137  0.00  0.00    +0.020 A 
BRANCH  13  20
ATOM     19  C   LIG    1       -1.334   3.299   0.218  0.00  0.00    +0.040 C 
ATOM     20  C   LIG    1       -1.338   1.953   0.946  0.00  0.00    -0.030 C 
ATOM     21  C   LIG    1       -1.546   2.183   2.444  0.00  0.00    +0.040 C 
ATOM     22  C   LIG    1       -2.472   1.082   0.401  0.00  0.00    +0.030 C 
ENDBRANCH  13  20
ENDBRANCH   1  16
BRANCH   4  23
ATOM     23  S   LIG    1        7.582  -1.007  -0.188  0.00  0.00    +0.040 S 
BRANCH  23  24
ATOM     24  C   LIG    1        8.015  -2.728  -0.544  0.00  0.00    +0.230 C 
BRANCH  24  25
ATOM     25  C   LIG    1        9.512  -2.854  -0.662  0.00  0.00    -0.030 A 
ATOM     26  C   LIG    1       10.385  -3.120   0.339  0.00  0.00    -0.020 A 
ATOM     27  C   LIG    1       11.646  -3.132  -0.301  0.00  0.00    +0.190 A 
ATOM     28  N   LIG    1       11.422  -2.877  -1.558  0.00  0.00    -0.350 NA
ATOM     29  O   LIG    1       10.243  -2.720  -1.778  0.00  0.00    +0.110 OA
ENDBRANCH  24  25
ENDBRANCH  23  24
ENDBRANCH   4  23
TORSDOF 6
