REMARK  Name = ZINCqH0000004aQu.2
REMARK                            x       y       z     vdW  Elec       q    Type
REMARK                         _______ _______ _______ _____ _____    ______ ____
ROOT
ATOM      1  C   LIG    1       -0.953   1.616  -1.219  0.00  0.00    +0.510 C 
ATOM      2  N   LIG    1       -0.574   1.267  -2.465  0.00  0.00    -0.630 N 
ATOM      3  H   LIG    1        0.180   0.670  -2.593  0.00  0.00    +0.420 HD
ATOM      4  O   LIG    1       -1.896   2.362  -1.059  0.00  0.00    -0.500 OA
ENDROOT
BRANCH   2   5
ATOM      5  C   LIG    1       -1.263   1.760  -3.564  0.00  0.00    +0.060 A 
ATOM      6  C   LIG    1       -0.958   1.474  -4.863  0.00  0.00    -0.110 A 
ATOM      7  C   LIG    1       -1.842   2.119  -5.820  0.00  0.00    -0.040 A 
ATOM      8  C   LIG    1       -2.769   2.876  -5.226  0.00  0.00    -0.240 A 
ATOM      9  C   LIG    1       -3.825   3.690  -5.946  0.00  0.00    +0.120 C 
ATOM     10  C   LIG    1       -4.503   2.835  -7.016  0.00  0.00    +0.020 C 
ATOM     11  C   LIG    1       -3.741   2.977  -8.331  0.00  0.00    +0.000 C 
ATOM     12  C   LIG    1       -2.252   3.162  -8.050  0.00  0.00    +0.030 C 
ATOM     13  C   LIG    1       -1.711   1.935  -7.323  0.00  0.00    +0.090 C 
ATOM     14  S   LIG    1       -2.598   2.812  -3.477  0.00  0.00    +0.320 S 
BRANCH   6  15
ATOM     15  C   LIG    1        0.125   0.619  -5.245  0.00  0.00    +0.270 C 
ATOM     16  N   LIG    1        0.984  -0.059  -5.549  0.00  0.00    -0.420 NA
ENDBRANCH   6  15
ENDBRANCH   2   5
BRANCH   1  17
ATOM     17  C   LIG    1       -0.205   1.080  -0.026  0.00  0.00    +0.080 C 
BRANCH  17  18
ATOM     18  C   LIG    1       -0.834   1.626   1.258  0.00  0.00    +0.200 C 
BRANCH  18  25
ATOM     19  C   LIG    1       -0.482   1.824   3.646  0.00  0.00    +0.100 C 
ATOM     20  C   LIG    1        0.343   1.289   4.820  0.00  0.00    +0.220 C 
ATOM     21  O   LIG    1        0.138  -0.122   4.936  0.00  0.00    -0.380 OA
ATOM     22  C   LIG    1        0.496  -0.854   3.761  0.00  0.00    +0.200 C 
ATOM     23  C   LIG    1       -0.327  -0.341   2.576  0.00  0.00    +0.160 C 
ATOM     24  C   LIG    1        1.985  -0.659   3.471  0.00  0.00    +0.010 C 
ATOM     25  N   LIG    1       -0.105   1.104   2.421  0.00  0.00    -0.530 NA
BRANCH  19  27
ATOM     26  C   LIG    1       -0.653   4.074   4.719  0.00  0.00    +0.020 C 
ATOM     27  C   LIG    1       -0.206   3.318   3.466  0.00  0.00    +0.020 C 
ENDBRANCH  19  27
ENDBRANCH  18  25
ENDBRANCH  17  18
ENDBRANCH   1  17
TORSDOF 6
