REMARK  Name = ZINCvU00000009Mq.0
REMARK                            x       y       z     vdW  Elec       q    Type
REMARK                         _______ _______ _______ _____ _____    ______ ____
ROOT
ATOM      1  C   LIG    1        7.225  -3.713  -0.199  0.00  0.00    -0.110 A 
ATOM      2  C   LIG    1        7.768  -4.974  -0.439  0.00  0.00    +0.040 A 
ATOM      3  C   LIG    1        6.976  -6.099  -0.332  0.00  0.00    +0.040 A 
ATOM      4  C   LIG    1        5.641  -5.986   0.021  0.00  0.00    +0.050 A 
ATOM      5  C   LIG    1        5.085  -4.748   0.269  0.00  0.00    +0.060 A 
ATOM      6  C   LIG    1        5.868  -3.599   0.165  0.00  0.00    +0.040 A 
ENDROOT
BRANCH   6   7
ATOM      7  C   LIG    1        5.279  -2.272   0.429  0.00  0.00    +0.240 A 
ATOM      8  N   LIG    1        4.236  -1.763  -0.186  0.00  0.00    -0.460 NA
ATOM      9  C   LIG    1        3.987  -0.550   0.317  0.00  0.00    +0.170 A 
ATOM     10  C   LIG    1        4.922  -0.300   1.275  0.00  0.00    +0.010 A 
ATOM     11  O   LIG    1        5.723  -1.386   1.338  0.00  0.00    -0.160 OA
BRANCH  10  12
ATOM     12  C   LIG    1        5.035   0.924   2.094  0.00  0.00    -0.010 A 
ATOM     13  C   LIG    1        6.048   1.039   3.049  0.00  0.00    +0.030 A 
ATOM     14  C   LIG    1        6.147   2.185   3.810  0.00  0.00    +0.010 A 
ATOM     15  C   LIG    1        5.247   3.220   3.629  0.00  0.00    +0.020 A 
ATOM     16  C   LIG    1        4.241   3.113   2.685  0.00  0.00    +0.010 A 
ATOM     17  C   LIG    1        4.129   1.973   1.917  0.00  0.00    +0.030 A 
ENDBRANCH  10  12
ENDBRANCH   6   7
BRANCH   1  20
ATOM     18  N   LIG    1        9.390  -2.627  -0.540  0.00  0.00    -0.720 N 
ATOM     19  H   LIG    1        9.790  -3.507  -0.621  0.00  0.00    +0.400 HD
ATOM     20  C   LIG    1        8.066  -2.506  -0.319  0.00  0.00    +0.550 C 
ATOM     21  O   LIG    1        7.565  -1.403  -0.218  0.00  0.00    -0.510 OA
BRANCH  18  22
ATOM     22  C   LIG    1       10.226  -1.429  -0.659  0.00  0.00    +0.320 C 
BRANCH  22  28
ATOM     23  C   LIG    1       12.063  -2.204  -2.172  0.00  0.00    -0.070 A 
ATOM     24  C   LIG    1       13.375  -2.577  -2.396  0.00  0.00    +0.040 A 
ATOM     25  C   LIG    1       14.280  -2.583  -1.350  0.00  0.00    +0.020 A 
ATOM     26  C   LIG    1       13.873  -2.215  -0.082  0.00  0.00    +0.010 A 
ATOM     27  C   LIG    1       12.562  -1.837   0.141  0.00  0.00    +0.030 A 
ATOM     28  C   LIG    1       11.656  -1.837  -0.903  0.00  0.00    -0.110 A 
BRANCH  23  29
ATOM     29  C   LIG    1       11.077  -2.198  -3.311  0.00  0.00    +0.220 C 
BRANCH  29  30
ATOM     30  O   LIG    1       11.732  -2.614  -4.511  0.00  0.00    -0.380 OA
BRANCH  30  32
ATOM     31  C   LIG    1       11.684  -3.099  -6.878  0.00  0.00    +0.040 C 
ATOM     32  C   LIG    1       10.881  -2.643  -5.658  0.00  0.00    +0.160 C 
ENDBRANCH  30  32
ENDBRANCH  29  30
ENDBRANCH  23  29
ENDBRANCH  22  28
ENDBRANCH  18  22
ENDBRANCH   1  20
TORSDOF 8
