REMARK  Name = ZINCrH00000tj1nP.0
REMARK                            x       y       z     vdW  Elec       q    Type
REMARK                         _______ _______ _______ _____ _____    ______ ____
ROOT
ATOM      1  O   LIG    1        1.046  -1.942  -0.019  0.00  0.00    -0.550 OA
ATOM      2  C   LIG    1        1.128  -0.730  -0.013  0.00  0.00    +0.710 C 
ATOM      3  N   LIG    1        0.002  -0.004   0.002  0.00  0.00    -0.630 N 
ATOM      4  H   LIG    1       -0.846  -0.474   0.008  0.00  0.00    +0.430 HD
ATOM      5  C   LIG    1       -0.016   1.361   0.009  0.00  0.00    +0.170 C 
ATOM      6  C   LIG    1        1.127   2.076   0.002  0.00  0.00    -0.280 C 
ATOM      7  C   LIG    1        2.435   1.312  -0.014  0.00  0.00    +0.360 C 
ATOM      8  C   LIG    1        0.843   3.457   0.013  0.00  0.00    +0.580 C 
ATOM      9  N   LIG    1       -0.484   3.680   0.026  0.00  0.00    -0.620 N 
ATOM     10  O   LIG    1        1.687   4.334   0.010  0.00  0.00    -0.520 OA
ATOM     11  C   LIG    1       -1.146   2.367   0.032  0.00  0.00    +0.370 C 
ATOM     12  N   LIG    1        2.348  -0.159  -0.022  0.00  0.00    -0.710 N 
ATOM     13  H   LIG    1        3.151  -0.703  -0.032  0.00  0.00    +0.440 HD
ENDROOT
BRANCH   7  14
ATOM     14  C   LIG    1        3.230   1.724   1.198  0.00  0.00    -0.090 A 
ATOM     15  C   LIG    1        4.143   2.758   1.107  0.00  0.00    +0.070 A 
ATOM     16  C   LIG    1        4.871   3.137   2.219  0.00  0.00    +0.050 A 
ATOM     17  C   LIG    1        4.687   2.482   3.423  0.00  0.00    -0.030 A 
ATOM     18  C   LIG    1        3.773   1.447   3.514  0.00  0.00    -0.030 A 
ATOM     19 CL   LIG    1        3.540   0.624   5.025  0.00  0.00    -0.050 Cl
ATOM     20 CL   LIG    1        5.603   2.958   4.819  0.00  0.00    -0.050 Cl
ATOM     21  C   LIG    1        3.041   1.072   2.403  0.00  0.00    +0.050 A 
ENDBRANCH   7  14
BRANCH   9  22
ATOM     22  C   LIG    1       -1.146   4.987   0.041  0.00  0.00    +0.380 C 
BRANCH  22  23
ATOM     23  C   LIG    1       -1.387   5.443  -1.375  0.00  0.00    -0.130 A 
ATOM     24  C   LIG    1       -0.431   6.198  -2.030  0.00  0.00    +0.080 A 
ATOM     25  C   LIG    1       -0.649   6.612  -3.330  0.00  0.00    -0.020 A 
ATOM     26  C   LIG    1       -1.829   6.280  -3.974  0.00  0.00    +0.110 A 
ATOM     27  C   LIG    1       -2.787   5.529  -3.316  0.00  0.00    -0.020 A 
ATOM     28  F   LIG    1       -2.045   6.689  -5.243  0.00  0.00    -0.140 F 
ATOM     29  C   LIG    1       -2.566   5.111  -2.017  0.00  0.00    +0.050 A 
ENDBRANCH  22  23
ENDBRANCH   9  22
TORSDOF 3
