REMARK  Name = ZINCrg00000Aun5i.0
REMARK                            x       y       z     vdW  Elec       q    Type
REMARK                         _______ _______ _______ _____ _____    ______ ____
ROOT
ATOM      1  C   LIG    1       -0.268   1.258  -2.409  0.00  0.00    +0.570 C 
ATOM      2  N   LIG    1       -0.721   1.571  -1.179  0.00  0.00    -0.730 N 
ATOM      3  H   LIG    1       -1.516   2.118  -1.079  0.00  0.00    +0.410 HD
ATOM      4  O   LIG    1        0.729   0.574  -2.534  0.00  0.00    -0.510 OA
ENDROOT
BRANCH   1  10
ATOM      5  C   LIG    1       -5.254   4.675  -6.822  0.00  0.00    +0.140 C 
ATOM      6  C   LIG    1       -4.144   3.913  -6.145  0.00  0.00    +0.080 A 
ATOM      7  C   LIG    1       -3.983   3.805  -4.817  0.00  0.00    -0.040 A 
ATOM      8  C   LIG    1       -2.788   2.986  -4.597  0.00  0.00    -0.120 A 
ATOM      9  C   LIG    1       -2.127   2.527  -3.462  0.00  0.00    +0.130 A 
ATOM     10  C   LIG    1       -0.982   1.747  -3.605  0.00  0.00    -0.160 A 
ATOM     11  C   LIG    1       -0.510   1.422  -4.885  0.00  0.00    +0.030 A 
ATOM     12  C   LIG    1       -1.160   1.866  -6.000  0.00  0.00    +0.010 A 
ATOM     13 CL   LIG    1        0.914   0.444  -5.053  0.00  0.00    -0.030 Cl
ATOM     14  C   LIG    1       -2.304   2.651  -5.878  0.00  0.00    +0.130 A 
ATOM     15  N   LIG    1       -3.150   3.230  -6.793  0.00  0.00    -0.590 N 
ATOM     16  H   LIG    1       -3.057   3.164  -7.756  0.00  0.00    +0.420 HD
ENDBRANCH   1  10
BRANCH   2  17
ATOM     17  C   LIG    1       -0.013   1.086   0.008  0.00  0.00    +0.410 C 
BRANCH  17  18
ATOM     18  C   LIG    1       -0.718   1.572   1.248  0.00  0.00    +0.080 C 
ATOM     19  N   LIG    1       -1.767   2.299   1.272  0.00  0.00    -0.280 NA
ATOM     20  O   LIG    1       -2.204   2.601   2.582  0.00  0.00    -0.180 OA
ATOM     21  C   LIG    1       -1.580   1.661   3.476  0.00  0.00    +0.170 C 
ATOM     22  C   LIG    1       -1.036   2.383   4.719  0.00  0.00    +0.280 C 
ATOM     23  N   LIG    1        0.254   2.969   4.343  0.00  0.00    -0.620 N 
ATOM     24  C   LIG    1        0.757   2.320   3.102  0.00  0.00    +0.290 C 
ATOM     25  C   LIG    1        0.888   3.952   5.013  0.00  0.00    +0.530 C 
ATOM     26  O   LIG    1        1.956   4.366   4.615  0.00  0.00    -0.510 OA
ATOM     27  C   LIG    1       -0.297   1.284   2.677  0.00  0.00    +0.020 C 
BRANCH  25  28
ATOM     28  C   LIG    1        0.270   4.536   6.257  0.00  0.00    +0.230 C 
BRANCH  28  29
ATOM     29  O   LIG    1        1.126   5.553   6.782  0.00  0.00    -0.550 OA
ATOM     30  H   LIG    1        0.790   5.973   7.585  0.00  0.00    +0.390 HD
ENDBRANCH  28  29
ENDBRANCH  25  28
ENDBRANCH  17  18
ENDBRANCH   2  17
TORSDOF 5
