REMARK  Name = ZINCrg000000rRX6.0
REMARK                            x       y       z     vdW  Elec       q    Type
REMARK                         _______ _______ _______ _____ _____    ______ ____
ROOT
ATOM      1  C   LIG    1       -1.183   2.145   0.019  0.00  0.00    +0.510 C 
ATOM      2  N   LIG    1       -0.018   1.467   0.010  0.00  0.00    -0.610 N 
ATOM      3  C   LIG    1        0.002  -0.004   0.002  0.00  0.00    +0.260 C 
ATOM      4  C   LIG    1        0.922  -0.469  -1.132  0.00  0.00    +0.230 C 
ATOM      5  O   LIG    1        2.189   0.183  -1.008  0.00  0.00    -0.370 OA
ATOM      6  C   LIG    1        2.130   1.605  -1.133  0.00  0.00    +0.200 C 
ATOM      7  C   LIG    1        1.271   2.176   0.002  0.00  0.00    +0.270 C 
ATOM      8  O   LIG    1       -1.178   3.358   0.026  0.00  0.00    -0.520 OA
ENDROOT
BRANCH   6   9
ATOM      9  C   LIG    1        3.522   2.176  -1.048  0.00  0.00    -0.070 A 
ATOM     10  C   LIG    1        4.458   1.594  -0.213  0.00  0.00    +0.030 A 
ATOM     11  C   LIG    1        5.738   2.112  -0.138  0.00  0.00    +0.030 A 
ATOM     12  C   LIG    1        6.081   3.220  -0.888  0.00  0.00    -0.010 A 
ATOM     13  C   LIG    1        5.142   3.809  -1.723  0.00  0.00    +0.110 A 
ATOM     14  C   LIG    1        3.861   3.284  -1.801  0.00  0.00    +0.000 A 
BRANCH  13  15
ATOM     15  O   LIG    1        5.478   4.899  -2.462  0.00  0.00    -0.500 OA
ATOM     16  H   LIG    1        5.318   5.742  -2.016  0.00  0.00    +0.390 HD
ENDBRANCH  13  15
ENDBRANCH   6   9
BRANCH   1  17
ATOM     17  C   LIG    1       -2.490   1.396   0.021  0.00  0.00    +0.360 C 
BRANCH  17  23
ATOM     18  C   LIG    1       -5.000   5.218  -1.057  0.00  0.00    +0.090 C 
ATOM     19  C   LIG    1       -5.267   3.787  -0.586  0.00  0.00    +0.160 C 
ATOM     20  N   LIG    1       -5.165   3.697   0.880  0.00  0.00    -0.710 N 
ATOM     21  H   LIG    1       -5.712   4.167   1.530  0.00  0.00    +0.440 HD
ATOM     22  C   LIG    1       -4.168   2.832   1.144  0.00  0.00    +0.710 C 
ATOM     23  N   LIG    1       -3.600   2.352   0.032  0.00  0.00    -0.560 N 
ATOM     24  O   LIG    1       -3.821   2.525   2.267  0.00  0.00    -0.540 OA
ATOM     25  C   LIG    1       -4.179   2.852  -1.077  0.00  0.00    +0.540 C 
ATOM     26  O   LIG    1       -3.891   2.606  -2.229  0.00  0.00    -0.460 OA
BRANCH  19  27
ATOM     27  C   LIG    1       -6.641   3.312  -1.064  0.00  0.00    -0.050 C 
ATOM     28  C   LIG    1       -7.310   4.104  -2.189  0.00  0.00    +0.050 C 
ATOM     29  C   LIG    1       -7.843   4.208  -0.758  0.00  0.00    +0.040 C 
ENDBRANCH  19  27
ENDBRANCH  17  23
ENDBRANCH   1  17
TORSDOF 5
