REMARK  Name = ZINCrH000004pyQz.0
REMARK                            x       y       z     vdW  Elec       q    Type
REMARK                         _______ _______ _______ _____ _____    ______ ____
ROOT
ATOM      1  N   LIG    1       -3.687   7.347   0.353  0.00  0.00    -0.520 N 
ATOM      2  H   LIG    1       -2.976   7.988   0.194  0.00  0.00    +0.440 HD
ATOM      3  C   LIG    1       -3.393   6.041   0.512  0.00  0.00    +0.520 C 
ATOM      4  O   LIG    1       -4.281   5.240   0.711  0.00  0.00    -0.500 OA
ENDROOT
BRANCH   1   6
ATOM      5  C   LIG    1       -5.312   9.084   0.258  0.00  0.00    +0.520 C 
ATOM      6  N   LIG    1       -5.018   7.778   0.417  0.00  0.00    -0.520 N 
ATOM      7  H   LIG    1       -5.729   7.137   0.576  0.00  0.00    +0.440 HD
ATOM      8  O   LIG    1       -4.424   9.886   0.059  0.00  0.00    -0.510 OA
BRANCH   5  10
ATOM      9  C   LIG    1       -7.559   8.850  -0.764  0.00  0.00    +0.060 C 
ATOM     10  C   LIG    1       -6.744   9.548   0.327  0.00  0.00    +0.190 C 
BRANCH  10  11
ATOM     11  O   LIG    1       -6.796  10.963   0.129  0.00  0.00    -0.280 OA
BRANCH  11  12
ATOM     12  C   LIG    1       -7.864  11.620   0.655  0.00  0.00    +0.090 A 
ATOM     13  C   LIG    1       -8.896  10.908   1.247  0.00  0.00    -0.050 A 
ATOM     14  C   LIG    1       -9.977  11.578   1.786  0.00  0.00    +0.050 A 
ATOM     15  C   LIG    1      -10.038  12.958   1.726  0.00  0.00    +0.020 A 
ATOM     16  C   LIG    1       -9.013  13.672   1.132  0.00  0.00    +0.030 A 
ATOM     17  C   LIG    1       -7.926  13.007   0.596  0.00  0.00    +0.080 A 
ATOM     18  F   LIG    1       -6.924  13.704   0.016  0.00  0.00    -0.130 F 
ENDBRANCH  11  12
ENDBRANCH  10  11
ENDBRANCH   5  10
ENDBRANCH   1   6
BRANCH   3  19
ATOM     19  C   LIG    1       -1.961   5.577   0.443  0.00  0.00    +0.270 C 
BRANCH  19  20
ATOM     20  O   LIG    1       -1.908   4.163   0.640  0.00  0.00    -0.270 OA
BRANCH  20  21
ATOM     21  C   LIG    1       -0.680   3.580   0.608  0.00  0.00    +0.160 A 
ATOM     22  C   LIG    1        0.449   4.354   0.390  0.00  0.00    -0.020 A 
ATOM     23  C   LIG    1        1.698   3.760   0.358  0.00  0.00    +0.010 A 
ATOM     24  C   LIG    1        1.819   2.393   0.542  0.00  0.00    -0.060 A 
ATOM     25  C   LIG    1        0.693   1.619   0.759  0.00  0.00    +0.110 A 
ATOM     26 CL   LIG    1        3.387   1.649   0.500  0.00  0.00    -0.030 Cl
ATOM     27 CL   LIG    1        3.112   4.728   0.086  0.00  0.00    -0.030 Cl
ATOM     28  C   LIG    1       -0.557   2.209   0.787  0.00  0.00    -0.050 A 
ATOM     29 CL   LIG    1       -1.970   1.237   1.052  0.00  0.00    -0.020 Cl
ENDBRANCH  20  21
ENDBRANCH  19  20
ENDBRANCH   3  19
TORSDOF 7
