REMARK  Name = ZINCpk00000xIhEd.0
REMARK                            x       y       z     vdW  Elec       q    Type
REMARK                         _______ _______ _______ _____ _____    ______ ____
ROOT
ATOM      1  C   LIG    1        0.002  -0.004   0.002  0.00  0.00    +0.580 C 
ATOM      2  C   LIG    1       -0.017   1.389   0.010  0.00  0.00    -0.400 C 
ATOM      3  C   LIG    1        1.300   1.880  -0.000  0.00  0.00    +0.420 C 
ATOM      4  C   LIG    1        2.194   0.658  -0.015  0.00  0.00    +0.300 C 
ATOM      5  O   LIG    1        1.649   3.045   0.002  0.00  0.00    -0.480 OA
ATOM      6  N   LIG    1        1.272  -0.486  -0.013  0.00  0.00    -0.400 N 
ENDROOT
BRANCH   2   7
ATOM      7  C   LIG    1       -1.232   2.220   0.020  0.00  0.00    +0.420 A 
ATOM      8  N   LIG    1       -2.462   1.760   0.018  0.00  0.00    -0.540 NA
ATOM      9  C   LIG    1       -3.337   2.798   0.032  0.00  0.00    +0.070 A 
ATOM     10  C   LIG    1       -4.732   2.876   0.038  0.00  0.00    +0.050 A 
ATOM     11  C   LIG    1       -5.348   4.107   0.047  0.00  0.00    +0.000 A 
ATOM     12  C   LIG    1       -4.595   5.271   0.051  0.00  0.00    +0.020 A 
ATOM     13  C   LIG    1       -3.216   5.212   0.045  0.00  0.00    +0.010 A 
ATOM     14  C   LIG    1       -2.578   3.981   0.036  0.00  0.00    +0.040 A 
ATOM     15  N   LIG    1       -1.250   3.590   0.028  0.00  0.00    -0.600 N 
ATOM     16  H   LIG    1       -0.477   4.176   0.028  0.00  0.00    +0.430 HD
ENDBRANCH   2   7
BRANCH   6  17
ATOM     17  N   LIG    1        1.640  -1.838  -0.023  0.00  0.00    -0.510 N 
ATOM     18  H   LIG    1        1.984  -2.253   0.783  0.00  0.00    +0.430 HD
ATOM     19  C   LIG    1        1.514  -2.562  -1.153  0.00  0.00    +0.560 C 
ATOM     20  O   LIG    1        1.083  -2.042  -2.163  0.00  0.00    -0.500 OA
BRANCH  19  21
ATOM     21  C   LIG    1        1.901  -3.989  -1.164  0.00  0.00    -0.140 A 
ATOM     22  C   LIG    1        2.403  -4.588  -0.007  0.00  0.00    +0.050 A 
ATOM     23  C   LIG    1        2.757  -5.921  -0.023  0.00  0.00    +0.010 A 
ATOM     24  C   LIG    1        2.627  -6.661  -1.185  0.00  0.00    +0.050 A 
ATOM     25  C   LIG    1        2.136  -6.072  -2.336  0.00  0.00    +0.020 A 
ATOM     26  C   LIG    1        1.773  -4.741  -2.333  0.00  0.00    +0.090 A 
ENDBRANCH  19  21
ENDBRANCH   6  17
BRANCH   1  27
ATOM     27  N   LIG    1       -1.115  -0.786   0.009  0.00  0.00    -0.800 N 
ATOM     28  H   LIG    1       -1.030  -1.752   0.003  0.00  0.00    +0.400 HD
ATOM     29  H   LIG    1       -1.994  -0.376   0.019  0.00  0.00    +0.440 HD
ENDBRANCH   1  27
TORSDOF 4
