REMARK  Name = ZINCqH0000000Os7.0
REMARK                            x       y       z     vdW  Elec       q    Type
REMARK                         _______ _______ _______ _____ _____    ______ ____
ROOT
ATOM      1  N   LIG    1        1.140   2.151   0.003  0.00  0.00    -0.730 N 
ATOM      2  H   LIG    1        1.987   1.677  -0.008  0.00  0.00    +0.400 HD
ATOM      3  C   LIG    1       -0.018   1.461   0.010  0.00  0.00    +0.600 C 
ATOM      4  O   LIG    1       -1.080   2.055   0.018  0.00  0.00    -0.520 OA
ENDROOT
BRANCH   3   5
ATOM      5  C   LIG    1        0.002  -0.004   0.002  0.00  0.00    -0.270 A 
ATOM      6  C   LIG    1       -1.103  -0.805   0.008  0.00  0.00    +0.110 A 
ATOM      7  C   LIG    1       -0.853  -2.151   0.000  0.00  0.00    -0.110 A 
ATOM      8  C   LIG    1        0.495  -2.461  -0.025  0.00  0.00    -0.130 A 
ATOM      9  C   LIG    1        0.961  -3.864  -0.059  0.00  0.00    -0.020 A 
ATOM     10  C   LIG    1        2.282  -4.208   0.189  0.00  0.00    +0.020 A 
ATOM     11  C   LIG    1        2.655  -5.539   0.166  0.00  0.00    +0.010 A 
ATOM     12  C   LIG    1        1.714  -6.514  -0.111  0.00  0.00    +0.020 A 
ATOM     13  C   LIG    1        0.401  -6.171  -0.383  0.00  0.00    +0.010 A 
ATOM     14  C   LIG    1        0.016  -4.846  -0.378  0.00  0.00    -0.060 A 
ATOM     15  C   LIG    1       -1.388  -4.463  -0.754  0.00  0.00    +0.080 C 
ATOM     16  C   LIG    1       -1.894  -3.259   0.035  0.00  0.00    +0.120 C 
ATOM     17  S   LIG    1        1.454  -0.997  -0.025  0.00  0.00    +0.190 S 
ENDBRANCH   3   5
BRANCH   1  18
ATOM     18  C   LIG    1        1.120   3.615   0.011  0.00  0.00    +0.270 C 
BRANCH  18  19
ATOM     19  C   LIG    1        2.556   4.145  -0.000  0.00  0.00    +0.290 C 
BRANCH  19  21
ATOM     20  C   LIG    1        3.694   6.300   0.001  0.00  0.00    +0.650 C 
ATOM     21  N   LIG    1        2.536   5.610   0.008  0.00  0.00    -0.710 N 
ATOM     22  H   LIG    1        1.689   6.083   0.019  0.00  0.00    +0.410 HD
ATOM     23  O   LIG    1        4.754   5.706  -0.013  0.00  0.00    -0.560 OA
BRANCH  20  24
ATOM     24  O   LIG    1        3.675   7.646   0.008  0.00  0.00    -0.360 OA
BRANCH  24  26
ATOM     25  C   LIG    1        5.735   7.929  -1.259  0.00  0.00    +0.040 C 
ATOM     26  C   LIG    1        4.960   8.322  -0.001  0.00  0.00    +0.140 C 
ATOM     27  C   LIG    1        5.759   7.915   1.239  0.00  0.00    +0.040 C 
ATOM     28  C   LIG    1        4.739   9.836   0.010  0.00  0.00    +0.080 C 
ENDBRANCH  24  26
ENDBRANCH  20  24
ENDBRANCH  19  21
ENDBRANCH  18  19
ENDBRANCH   1  18
TORSDOF 6
