REMARK  Name = ZINCrD0000071e22.0
REMARK                            x       y       z     vdW  Elec       q    Type
REMARK                         _______ _______ _______ _____ _____    ______ ____
ROOT
ATOM      1  N   LIG    1        7.849   7.326  -1.719  0.00  0.00    -0.720 N 
ATOM      2  H   LIG    1        8.189   8.149  -2.102  0.00  0.00    +0.400 HD
ATOM      3  C   LIG    1        6.521   7.103  -1.675  0.00  0.00    +0.560 C 
ATOM      4  O   LIG    1        6.094   6.070  -1.194  0.00  0.00    -0.510 OA
ENDROOT
BRANCH   1   9
ATOM      5  C   LIG    1       12.327   5.628   0.758  0.00  0.00    +0.520 C 
ATOM      6  N   LIG    1       11.147   5.503   0.119  0.00  0.00    -0.620 N 
ATOM      7  C   LIG    1       11.096   5.407  -1.346  0.00  0.00    +0.280 C 
ATOM      8  C   LIG    1       10.137   6.477  -1.877  0.00  0.00    +0.010 C 
ATOM      9  C   LIG    1        8.778   6.325  -1.190  0.00  0.00    +0.240 C 
ATOM     10  C   LIG    1        8.943   6.529   0.318  0.00  0.00    +0.000 C 
ATOM     11  C   LIG    1        9.888   5.460   0.874  0.00  0.00    +0.280 C 
ATOM     12  O   LIG    1       13.365   5.570   0.133  0.00  0.00    -0.540 OA
BRANCH   5  14
ATOM     13  C   LIG    1       12.280   4.487   2.959  0.00  0.00    +0.050 C 
ATOM     14  C   LIG    1       12.357   5.840   2.250  0.00  0.00    -0.030 C 
ATOM     15  C   LIG    1       13.658   6.546   2.638  0.00  0.00    +0.050 C 
ENDBRANCH   5  14
ENDBRANCH   1   9
BRANCH   3  16
ATOM     16  C   LIG    1        5.585   8.109  -2.207  0.00  0.00    -0.130 A 
ATOM     17  C   LIG    1        6.071   9.297  -2.760  0.00  0.00    +0.070 A 
ATOM     18  C   LIG    1        5.192  10.234  -3.257  0.00  0.00    -0.010 A 
ATOM     19  C   LIG    1        3.825  10.006  -3.212  0.00  0.00    +0.060 A 
ATOM     20  C   LIG    1        3.329   8.836  -2.674  0.00  0.00    -0.020 A 
ATOM     21  C   LIG    1        4.200   7.881  -2.163  0.00  0.00    -0.050 A 
BRANCH  21  22
ATOM     22  S   LIG    1        3.570   6.389  -1.469  0.00  0.00    +0.030 S 
BRANCH  22  23
ATOM     23  C   LIG    1        1.775   6.582  -1.648  0.00  0.00    +0.030 C 
BRANCH  23  24
ATOM     24  C   LIG    1        1.071   5.347  -1.083  0.00  0.00    +0.180 C 
ATOM     25  C   LIG    1       -0.467   5.484  -1.223  0.00  0.00    +0.010 C 
ATOM     26  C   LIG    1       -0.925   4.005  -1.225  0.00  0.00    +0.000 C 
ATOM     27  C   LIG    1        0.338   3.219  -1.627  0.00  0.00    +0.190 C 
ATOM     28  O   LIG    1        1.378   4.179  -1.874  0.00  0.00    -0.360 OA
ENDBRANCH  23  24
ENDBRANCH  22  23
ENDBRANCH  21  22
ENDBRANCH   3  16
TORSDOF 6
