REMARK  Name = ZINCvU0000000FPo.0
REMARK                            x       y       z     vdW  Elec       q    Type
REMARK                         _______ _______ _______ _____ _____    ______ ____
ROOT
ATOM      1  C   LIG    1        3.707  -0.702  -0.035  0.00  0.00    +0.240 C 
ENDROOT
BRANCH   1   2
ATOM      2  C   LIG    1        2.397   0.042  -0.012  0.00  0.00    -0.130 A 
ATOM      3  C   LIG    1        1.205  -0.659  -0.001  0.00  0.00    +0.030 A 
ATOM      4  C   LIG    1        0.003   0.023   0.021  0.00  0.00    +0.010 A 
ATOM      5  C   LIG    1       -0.008   1.405   0.032  0.00  0.00    +0.030 A 
ATOM      6  C   LIG    1        1.184   2.106   0.022  0.00  0.00    +0.010 A 
ATOM      7  C   LIG    1        2.386   1.424  -0.001  0.00  0.00    +0.040 A 
ENDBRANCH   1   2
BRANCH   1   8
ATOM      8  C   LIG    1        4.224  -0.852   1.373  0.00  0.00    +0.530 C 
ATOM      9  N   LIG    1        3.541  -1.596   2.265  0.00  0.00    -0.660 N 
ATOM     10  H   LIG    1        2.684  -1.979   2.022  0.00  0.00    +0.420 HD
ATOM     11  O   LIG    1        5.255  -0.303   1.702  0.00  0.00    -0.480 OA
BRANCH   9  12
ATOM     12  C   LIG    1        4.069  -1.815   3.543  0.00  0.00    +0.150 A 
ATOM     13  C   LIG    1        3.857  -3.028   4.185  0.00  0.00    +0.080 A 
ATOM     14  C   LIG    1        4.382  -3.243   5.444  0.00  0.00    +0.070 A 
ATOM     15  C   LIG    1        5.112  -2.248   6.069  0.00  0.00    -0.000 A 
ATOM     16  C   LIG    1        5.321  -1.037   5.434  0.00  0.00    -0.020 A 
ATOM     17 CL   LIG    1        5.767  -2.520   7.654  0.00  0.00    -0.000 Cl
ATOM     18  C   LIG    1        4.802  -0.818   4.173  0.00  0.00    +0.130 A 
BRANCH  16  19
ATOM     19  N   LIG    1        6.103   0.026   6.106  0.00  0.00    +0.020 N 
ATOM     20  O   LIG    1        6.561  -0.167   7.218  0.00  0.00    -0.130 OA
ATOM     21  O   LIG    1        6.287   1.092   5.548  0.00  0.00    -0.150 OA
ENDBRANCH  16  19
ENDBRANCH   9  12
ENDBRANCH   1   8
BRANCH   1  22
ATOM     22  O   LIG    1        4.656   0.029  -0.815  0.00  0.00    -0.310 OA
BRANCH  22  24
ATOM     23  O   LIG    1        3.969  -1.093  -2.609  0.00  0.00    -0.500 OA
ATOM     24  C   LIG    1        4.709  -0.251  -2.135  0.00  0.00    +0.510 C 
BRANCH  24  25
ATOM     25  C   LIG    1        5.623   0.434  -2.965  0.00  0.00    -0.040 C 
ATOM     26  C   LIG    1        5.677   0.153  -4.293  0.00  0.00    +0.210 C 
BRANCH  26  27
ATOM     27  C   LIG    1        6.592   0.838  -5.125  0.00  0.00    -0.000 A 
ATOM     28  C   LIG    1        6.757   0.650  -6.482  0.00  0.00    +0.030 A 
ATOM     29  C   LIG    1        7.762   1.538  -6.890  0.00  0.00    +0.010 A 
ATOM     30  C   LIG    1        8.170   2.213  -5.790  0.00  0.00    -0.000 A 
ATOM     31 BR   LIG    1        9.518   3.539  -5.753  0.00  0.00    +0.070 Br
ATOM     32  O   LIG    1        7.466   1.790  -4.731  0.00  0.00    -0.150 OA
ENDBRANCH  26  27
ENDBRANCH  24  25
ENDBRANCH  22  24
ENDBRANCH   1  22
TORSDOF 8
