REMARK  Name = ZINCvU0000000JzZ.0
REMARK                            x       y       z     vdW  Elec       q    Type
REMARK                         _______ _______ _______ _____ _____    ______ ____
ROOT
ATOM      1  C   LIG    1       -1.064  -6.799   2.084  0.00  0.00    +0.100 A 
ATOM      2  C   LIG    1       -1.151  -8.146   2.276  0.00  0.00    -0.120 A 
ATOM      3  C   LIG    1       -1.832  -8.520   3.499  0.00  0.00    -0.060 A 
ATOM      4  C   LIG    1       -2.251  -7.468   4.215  0.00  0.00    -0.230 A 
ATOM      5  C   LIG    1       -2.990  -7.570   5.535  0.00  0.00    +0.120 C 
ATOM      6  C   LIG    1       -3.530  -8.994   5.690  0.00  0.00    +0.020 C 
ATOM      7  C   LIG    1       -2.396  -9.988   5.420  0.00  0.00    +0.020 C 
ATOM      8  C   LIG    1       -2.052  -9.963   3.929  0.00  0.00    +0.090 C 
ATOM      9  S   LIG    1       -1.821  -5.958   3.425  0.00  0.00    +0.260 S 
ENDROOT
BRANCH   2  10
ATOM     10  C   LIG    1       -0.602  -9.130   1.327  0.00  0.00    +0.200 A 
ATOM     11  N   LIG    1        0.011  -8.834   0.227  0.00  0.00    -0.500 NA
ATOM     12  C   LIG    1        0.455  -9.848  -0.537  0.00  0.00    +0.090 A 
ATOM     13  C   LIG    1        1.145  -9.790  -1.767  0.00  0.00    +0.060 A 
ATOM     14  C   LIG    1        1.523 -10.943  -2.407  0.00  0.00    +0.040 A 
ATOM     15  C   LIG    1        1.234 -12.184  -1.857  0.00  0.00    +0.040 A 
ATOM     16  C   LIG    1        0.561 -12.265  -0.658  0.00  0.00    +0.060 A 
ATOM     17  C   LIG    1        0.170 -11.106   0.006  0.00  0.00    -0.190 A 
ATOM     18  S   LIG    1       -0.681 -10.874   1.532  0.00  0.00    +0.100 S 
ENDBRANCH   2  10
BRANCH   1  20
ATOM     19  C   LIG    1       -0.433  -4.839   0.908  0.00  0.00    +0.510 C 
ATOM     20  N   LIG    1       -0.460  -6.184   0.993  0.00  0.00    -0.620 N 
ATOM     21  H   LIG    1       -0.059  -6.722   0.294  0.00  0.00    +0.430 HD
ATOM     22  O   LIG    1       -0.935  -4.165   1.783  0.00  0.00    -0.480 OA
BRANCH  19  23
ATOM     23  C   LIG    1        0.221  -4.172  -0.274  0.00  0.00    +0.250 C 
BRANCH  23  24
ATOM     24  O   LIG    1        0.122  -2.753  -0.136  0.00  0.00    -0.280 OA
BRANCH  24  30
ATOM     25  C   LIG    1        0.606  -0.608  -1.056  0.00  0.00    +0.110 A 
ATOM     26  C   LIG    1        1.168   0.159  -2.065  0.00  0.00    -0.030 A 
ATOM     27  C   LIG    1        1.782  -0.457  -3.140  0.00  0.00    +0.020 A 
ATOM     28  C   LIG    1        1.836  -1.836  -3.213  0.00  0.00    +0.010 A 
ATOM     29  C   LIG    1        1.278  -2.606  -2.209  0.00  0.00    -0.040 A 
ATOM     30  C   LIG    1        0.667  -1.996  -1.126  0.00  0.00    +0.100 A 
BRANCH  25  32
ATOM     31  C   LIG    1       -0.017   1.425   0.010  0.00  0.00    +0.250 C 
ATOM     32  O   LIG    1        0.002  -0.004   0.002  0.00  0.00    -0.300 OA
ENDBRANCH  25  32
ENDBRANCH  24  30
ENDBRANCH  23  24
ENDBRANCH  19  23
ENDBRANCH   1  20
TORSDOF 6
