REMARK  Name = ZINCrH00000tj1eS.0
REMARK                            x       y       z     vdW  Elec       q    Type
REMARK                         _______ _______ _______ _____ _____    ______ ____
ROOT
ATOM      1  C   LIG    1        3.486   4.905  -3.848  0.00  0.00    +0.540 C 
ATOM      2  N   LIG    1        4.033   5.487  -4.934  0.00  0.00    -0.660 N 
ATOM      3  H   LIG    1        4.079   5.003  -5.772  0.00  0.00    +0.420 HD
ATOM      4  O   LIG    1        3.518   5.471  -2.775  0.00  0.00    -0.500 OA
ENDROOT
BRANCH   2   5
ATOM      5  C   LIG    1        4.533   6.789  -4.851  0.00  0.00    +0.160 A 
ATOM      6  C   LIG    1        4.046   7.663  -3.890  0.00  0.00    +0.020 A 
ATOM      7  C   LIG    1        4.545   8.948  -3.806  0.00  0.00    +0.040 A 
ATOM      8  C   LIG    1        5.525   9.376  -4.685  0.00  0.00    +0.000 A 
ATOM      9  C   LIG    1        6.016   8.519  -5.650  0.00  0.00    +0.040 A 
ATOM     10  C   LIG    1        5.524   7.219  -5.741  0.00  0.00    -0.080 A 
BRANCH  10  11
ATOM     11  C   LIG    1        6.048   6.295  -6.775  0.00  0.00    -0.050 A 
ATOM     12  C   LIG    1        6.478   5.018  -6.419  0.00  0.00    +0.000 A 
ATOM     13  C   LIG    1        6.961   4.160  -7.387  0.00  0.00    +0.010 A 
ATOM     14  C   LIG    1        7.028   4.569  -8.706  0.00  0.00    +0.000 A 
ATOM     15  C   LIG    1        6.608   5.838  -9.065  0.00  0.00    +0.010 A 
ATOM     16  C   LIG    1        6.119   6.702  -8.106  0.00  0.00    +0.030 A 
ENDBRANCH  10  11
ENDBRANCH   2   5
BRANCH   1  17
ATOM     17  C   LIG    1        2.835   3.551  -3.966  0.00  0.00    +0.010 C 
ATOM     18  C   LIG    1        3.900   2.460  -3.834  0.00  0.00    +0.100 C 
BRANCH  17  19
ATOM     19  S   LIG    1        1.605   3.356  -2.653  0.00  0.00    +0.110 S 
BRANCH  19  26
ATOM     20  N   LIG    1       -0.095   1.143  -2.442  0.00  0.00    -0.530 N 
ATOM     21  C   LIG    1       -0.354  -0.008  -3.093  0.00  0.00    +0.650 A 
ATOM     22  N   LIG    1        0.483  -0.076  -4.149  0.00  0.00    -0.540 N 
ATOM     23  H   LIG    1        0.528  -0.793  -4.801  0.00  0.00    +0.460 HD
ATOM     24  N   LIG    1        1.276   1.080  -4.131  0.00  0.00    -0.280 NA
ATOM     25  O   LIG    1       -1.192  -0.837  -2.784  0.00  0.00    -0.550 OA
ATOM     26  C   LIG    1        0.914   1.800  -3.109  0.00  0.00    +0.240 A 
BRANCH  20  27
ATOM     27  C   LIG    1       -0.775   1.617  -1.234  0.00  0.00    +0.320 C 
BRANCH  27  29
ATOM     28  C   LIG    1       -0.747   1.597   1.264  0.00  0.00    +0.030 C 
ATOM     29  C   LIG    1       -0.036   1.102   0.003  0.00  0.00    +0.000 C 
ENDBRANCH  27  29
ENDBRANCH  20  27
ENDBRANCH  19  26
ENDBRANCH  17  19
ENDBRANCH   1  17
TORSDOF 7
