REMARK  Name = ZINCqH0000037Zit.0
REMARK                            x       y       z     vdW  Elec       q    Type
REMARK                         _______ _______ _______ _____ _____    ______ ____
ROOT
ATOM      1  C   LIG    1       -1.445   4.853   0.040  0.00  0.00    +0.600 C 
ATOM      2  N   LIG    1       -0.843   6.058   0.042  0.00  0.00    -0.650 N 
ATOM      3  H   LIG    1        0.123   6.118   0.108  0.00  0.00    +0.420 HD
ATOM      4  O   LIG    1       -2.659   4.779   0.050  0.00  0.00    -0.460 OA
ENDROOT
BRANCH   1   7
ATOM      5  N   LIG    1        1.064   2.325  -0.002  0.00  0.00    -0.230 N 
ATOM      6  N   LIG    1        0.685   3.553   0.010  0.00  0.00    -0.260 NA
ATOM      7  C   LIG    1       -0.631   3.621   0.023  0.00  0.00    -0.010 A 
ATOM      8  C   LIG    1       -1.118   2.292   0.013  0.00  0.00    +0.000 A 
ATOM      9  C   LIG    1       -0.018   1.503   0.003  0.00  0.00    +0.020 A 
ATOM     10  C   LIG    1        0.003  -0.004  -0.008  0.00  0.00    +0.160 C 
BRANCH   5  15
ATOM     11  C   LIG    1        6.467   0.590  -0.062  0.00  0.00    +0.100 C 
ATOM     12  C   LIG    1        5.032   1.050  -0.046  0.00  0.00    -0.070 A 
ATOM     13  C   LIG    1        4.669   2.200  -0.724  0.00  0.00    +0.040 A 
ATOM     14  C   LIG    1        3.355   2.625  -0.711  0.00  0.00    +0.040 A 
ATOM     15  C   LIG    1        2.398   1.896  -0.017  0.00  0.00    +0.120 A 
ATOM     16  C   LIG    1        2.766   0.745   0.665  0.00  0.00    +0.030 A 
ATOM     17  C   LIG    1        4.081   0.322   0.645  0.00  0.00    +0.040 A 
ENDBRANCH   5  15
ENDBRANCH   1   7
BRANCH   2  18
ATOM     18  C   LIG    1       -1.609   7.221  -0.050  0.00  0.00    +0.340 A 
ATOM     19  C   LIG    1       -0.977   8.454  -0.153  0.00  0.00    -0.020 A 
ATOM     20  C   LIG    1       -1.746   9.600  -0.249  0.00  0.00    +0.090 A 
ATOM     21  C   LIG    1       -3.132   9.473  -0.227  0.00  0.00    +0.020 A 
ATOM     22  C   LIG    1       -3.693   8.210  -0.116  0.00  0.00    +0.250 A 
ATOM     23  N   LIG    1       -2.930   7.137  -0.032  0.00  0.00    -0.440 NA
BRANCH  21  24
ATOM     24  O   LIG    1       -3.926  10.573  -0.312  0.00  0.00    -0.310 OA
BRANCH  24  25
ATOM     25  C   LIG    1       -5.338  10.358  -0.282  0.00  0.00    +0.600 C 
ATOM     26  F   LIG    1       -5.689   9.734   0.920  0.00  0.00    -0.200 F 
ATOM     27  F   LIG    1       -5.709   9.543  -1.357  0.00  0.00    -0.200 F 
ENDBRANCH  24  25
ENDBRANCH  21  24
ENDBRANCH   2  18
TORSDOF 5
