REMARK  Name = ZINCkj000015XiMQ.0
REMARK                            x       y       z     vdW  Elec       q    Type
REMARK                         _______ _______ _______ _____ _____    ______ ____
ROOT
ATOM      1  C   LIG    1       -2.649   3.187   1.605  0.00  0.00    +0.140 C 
ATOM      2  C   LIG    1       -3.473   1.901   1.819  0.00  0.00    +0.050 C 
ATOM      3  C   LIG    1       -3.916   1.975   3.301  0.00  0.00    +0.050 C 
ATOM      4  C   LIG    1       -2.672   2.578   3.999  0.00  0.00    +0.050 C 
ATOM      5  C   LIG    1       -2.139   3.619   2.991  0.00  0.00    +0.170 C 
ENDROOT
BRANCH   1   9
ATOM      6  C   LIG    1       -0.233   3.708  -1.151  0.00  0.00    +0.180 C 
ATOM      7  C   LIG    1       -0.847   2.340  -1.516  0.00  0.00    +0.020 C 
ATOM      8  C   LIG    1       -1.934   2.088  -0.449  0.00  0.00    +0.200 C 
ATOM      9  N   LIG    1       -1.513   2.915   0.714  0.00  0.00    -0.530 NA
ATOM     10  C   LIG    1       -1.001   4.170   0.105  0.00  0.00    +0.180 C 
BRANCH   6  11
ATOM     11  O   LIG    1        1.159   3.566  -0.861  0.00  0.00    -0.570 OA
ATOM     12  H   LIG    1        1.684   3.236  -1.603  0.00  0.00    +0.390 HD
ENDBRANCH   6  11
ENDBRANCH   1   9
BRANCH   5  13
ATOM     13  N   LIG    1       -0.670   3.630   3.007  0.00  0.00    -0.500 N 
ATOM     14  H   LIG    1       -0.331   4.242   2.280  0.00  0.00    +0.420 HD
ATOM     15  H   LIG    1       -0.326   2.695   2.847  0.00  0.00    +0.430 HD
BRANCH  13  16
ATOM     16  C   LIG    1       -0.198   4.110   4.312  0.00  0.00    +0.250 C 
BRANCH  16  17
ATOM     17  C   LIG    1        1.332   4.121   4.329  0.00  0.00    +0.030 C 
BRANCH  17  18
ATOM     18  C   LIG    1        1.824   4.620   5.688  0.00  0.00    +0.050 C 
BRANCH  18  19
ATOM     19  C   LIG    1        3.354   4.631   5.704  0.00  0.00    -0.030 C 
ATOM     20  C   LIG    1        3.889   5.083   7.085  0.00  0.00    +0.010 C 
ATOM     21  C   LIG    1        5.075   6.007   6.747  0.00  0.00    +0.190 C 
ATOM     22  O   LIG    1        5.212   6.019   5.316  0.00  0.00    -0.370 OA
ATOM     23  C   LIG    1        3.909   5.731   4.764  0.00  0.00    +0.200 C 
ENDBRANCH  18  19
ENDBRANCH  17  18
ENDBRANCH  16  17
ENDBRANCH  13  16
ENDBRANCH   5  13
TORSDOF 7
