REMARK  Name = ZINCrH000004m0Wz.0
REMARK                            x       y       z     vdW  Elec       q    Type
REMARK                         _______ _______ _______ _____ _____    ______ ____
ROOT
ATOM      1  N   LIG    1        1.159   3.489   0.003  0.00  0.00    -0.680 N 
ATOM      2  H   LIG    1        1.993   3.983   0.028  0.00  0.00    +0.410 HD
ATOM      3  C   LIG    1       -0.013   4.149  -0.078  0.00  0.00    +0.710 C 
ATOM      4  N   LIG    1       -0.025   5.493  -0.173  0.00  0.00    -0.620 N 
ATOM      5  C   LIG    1        1.231   6.246  -0.292  0.00  0.00    +0.260 C 
ATOM      6  C   LIG    1        1.269   7.318   0.802  0.00  0.00    +0.030 C 
ATOM      7  C   LIG    1        0.009   8.180   0.709  0.00  0.00    +0.040 C 
ATOM      8  C   LIG    1       -1.227   7.306   0.933  0.00  0.00    +0.180 C 
ATOM      9  C   LIG    1       -1.294   6.233  -0.165  0.00  0.00    +0.300 C 
ATOM     10  O   LIG    1       -1.061   3.531  -0.066  0.00  0.00    -0.560 OA
ENDROOT
BRANCH   1  14
ATOM     11  C   LIG    1        1.203  -0.680   0.146  0.00  0.00    +0.080 A 
ATOM     12  C   LIG    1        2.311   0.009  -0.321  0.00  0.00    -0.020 A 
ATOM     13  C   LIG    1        2.297   1.390  -0.367  0.00  0.00    -0.090 A 
ATOM     14  C   LIG    1        1.173   2.088   0.051  0.00  0.00    +0.160 A 
ATOM     15  C   LIG    1        0.062   1.399   0.518  0.00  0.00    +0.050 A 
ATOM     16  C   LIG    1        3.503   2.139  -0.874  0.00  0.00    +0.110 C 
ATOM     17  C   LIG    1        0.076   0.017   0.566  0.00  0.00    +0.090 A 
ATOM     18  F   LIG    1       -1.004  -0.655   1.019  0.00  0.00    -0.130 F 
BRANCH  11  20
ATOM     19  C   LIG    1        2.408  -2.691  -0.255  0.00  0.00    +0.250 C 
ATOM     20  O   LIG    1        1.217  -2.039   0.192  0.00  0.00    -0.310 OA
ENDBRANCH  11  20
ENDBRANCH   1  14
BRANCH   8  21
ATOM     21  O   LIG    1       -2.402   8.117   0.878  0.00  0.00    -0.290 OA
BRANCH  21  22
ATOM     22  C   LIG    1       -3.462   7.719   1.626  0.00  0.00    +0.300 A 
ATOM     23  N   LIG    1       -3.373   6.620   2.355  0.00  0.00    -0.510 NA
ATOM     24  C   LIG    1       -4.377   6.199   3.101  0.00  0.00    +0.300 A 
ATOM     25  C   LIG    1       -5.571   6.892   3.138  0.00  0.00    -0.030 A 
ATOM     26  C   LIG    1       -5.709   8.049   2.382  0.00  0.00    +0.090 A 
ATOM     27  C   LIG    1       -4.635   8.467   1.614  0.00  0.00    +0.030 A 
ATOM     28  F   LIG    1       -4.725   9.588   0.864  0.00  0.00    -0.120 F 
ENDBRANCH  21  22
ENDBRANCH   8  21
TORSDOF 4
