REMARK  Name = ZINCpe00000MJKau.0
REMARK                            x       y       z     vdW  Elec       q    Type
REMARK                         _______ _______ _______ _____ _____    ______ ____
ROOT
ATOM      1  C   LIG    1       -3.168   1.192   0.386  0.00  0.00    +0.350 C 
ATOM      2  N   LIG    1       -2.076   1.005   1.344  0.00  0.00    -0.610 N 
ATOM      3  C   LIG    1       -2.080   0.200   2.424  0.00  0.00    +0.710 C 
ATOM      4  N   LIG    1       -0.927   0.251   3.103  0.00  0.00    -0.560 N 
ATOM      5  C   LIG    1       -0.050   1.100   2.530  0.00  0.00    +0.540 C 
ATOM      6  O   LIG    1        1.073   1.360   2.906  0.00  0.00    -0.460 OA
ATOM      7  O   LIG    1       -3.024  -0.494   2.746  0.00  0.00    -0.540 OA
ATOM      8  C   LIG    1       -0.761   1.658   1.318  0.00  0.00    +0.130 C 
ATOM      9  C   LIG    1       -0.008   1.292   0.043  0.00  0.00    +0.060 C 
ATOM     10  C   LIG    1       -0.765   1.837  -1.171  0.00  0.00    +0.030 C 
ATOM     11  C   LIG    1       -0.892   3.357  -1.052  0.00  0.00    +0.010 C 
ATOM     12  C   LIG    1       -1.666   3.708   0.220  0.00  0.00    +0.030 C 
ATOM     13  C   LIG    1       -0.913   3.170   1.440  0.00  0.00    +0.050 C 
ENDROOT
BRANCH   4  14
ATOM     14  C   LIG    1       -0.653  -0.520   4.318  0.00  0.00    +0.360 C 
BRANCH  14  15
ATOM     15  C   LIG    1       -0.047  -1.848   3.944  0.00  0.00    +0.530 C 
ATOM     16  N   LIG    1        0.290  -2.730   4.906  0.00  0.00    -0.600 N 
ATOM     17  C   LIG    1        0.128  -2.523   6.356  0.00  0.00    +0.280 C 
ATOM     18  C   LIG    1        1.170  -3.460   7.012  0.00  0.00    +0.280 C 
ATOM     19  C   LIG    1        1.123  -4.691   6.069  0.00  0.00    +0.070 C 
ATOM     20  F   LIG    1        2.439  -2.872   7.007  0.00  0.00    -0.180 F 
ATOM     21  F   LIG    1        0.786  -3.809   8.312  0.00  0.00    -0.180 F 
ATOM     22  C   LIG    1        0.887  -4.055   4.683  0.00  0.00    +0.240 C 
ATOM     23  O   LIG    1        0.138  -2.124   2.777  0.00  0.00    -0.520 OA
BRANCH  22  24
ATOM     24  C   LIG    1       -0.069  -4.925   3.864  0.00  0.00    +0.190 C 
BRANCH  24  25
ATOM     25  O   LIG    1       -1.256  -5.172   4.622  0.00  0.00    -0.570 OA
ATOM     26  H   LIG    1       -1.908  -5.719   4.164  0.00  0.00    +0.380 HD
ENDBRANCH  24  25
ENDBRANCH  22  24
ENDBRANCH  14  15
ENDBRANCH   4  14
TORSDOF 4
