REMARK  Name = ZINCvU00000008WH.0
REMARK                            x       y       z     vdW  Elec       q    Type
REMARK                         _______ _______ _______ _____ _____    ______ ____
ROOT
ATOM      1  C   LIG    1       -2.885  -0.242   3.335  0.00  0.00    +0.060 A 
ATOM      2  N   LIG    1       -2.445  -0.126   2.127  0.00  0.00    -0.440 NA
ATOM      3  C   LIG    1       -2.866   0.910   1.431  0.00  0.00    +0.040 A 
ATOM      4  C   LIG    1       -3.716   1.708   2.084  0.00  0.00    -0.060 A 
ATOM      5  S   LIG    1       -3.953   1.043   3.698  0.00  0.00    +0.160 S 
ENDROOT
BRANCH   1   6
ATOM      6  C   LIG    1       -2.516  -1.352   4.285  0.00  0.00    +0.180 C 
BRANCH   6   9
ATOM      7  N   LIG    1       -0.787  -1.792   5.998  0.00  0.00    -0.670 N 
ATOM      8  H   LIG    1       -1.245  -2.622   6.205  0.00  0.00    +0.410 HD
ATOM      9  C   LIG    1       -1.301  -0.950   5.080  0.00  0.00    +0.520 C 
ATOM     10  O   LIG    1       -0.785   0.132   4.893  0.00  0.00    -0.500 OA
BRANCH   7  16
ATOM     11  C   LIG    1        3.487   0.637   6.055  0.00  0.00    +0.100 C 
ATOM     12  C   LIG    1        2.496  -0.294   6.704  0.00  0.00    -0.070 A 
ATOM     13  C   LIG    1        2.766  -0.831   7.949  0.00  0.00    -0.010 A 
ATOM     14  C   LIG    1        1.859  -1.685   8.549  0.00  0.00    +0.030 A 
ATOM     15  C   LIG    1        0.677  -2.001   7.907  0.00  0.00    -0.120 A 
ATOM     16  C   LIG    1        0.406  -1.469   6.654  0.00  0.00    +0.150 A 
ATOM     17  C   LIG    1       -0.313  -2.928   8.564  0.00  0.00    +0.090 C 
ATOM     18  C   LIG    1        1.319  -0.611   6.055  0.00  0.00    +0.010 A 
ENDBRANCH   7  16
ENDBRANCH   6   9
ENDBRANCH   1   6
BRANCH   3  19
ATOM     19  C   LIG    1       -2.428   1.171   0.013  0.00  0.00    +0.410 C 
BRANCH  19  20
ATOM     20  N   LIG    1       -1.161   1.905   0.019  0.00  0.00    -0.540 N 
ATOM     21  C   LIG    1       -1.169   3.264   0.033  0.00  0.00    +0.600 A 
ATOM     22  N   LIG    1       -0.089   3.985   0.034  0.00  0.00    -0.510 NA
ATOM     23  C   LIG    1        1.144   3.419   0.027  0.00  0.00    +0.170 A 
ATOM     24  C   LIG    1        2.306   4.194   0.029  0.00  0.00    -0.020 A 
ATOM     25  C   LIG    1        3.538   3.577   0.021  0.00  0.00    +0.100 A 
ATOM     26  C   LIG    1        3.639   2.192   0.013  0.00  0.00    -0.050 A 
ATOM     27  C   LIG    1        2.506   1.406   0.011  0.00  0.00    +0.120 A 
ATOM     28 CL   LIG    1        5.206   1.443   0.005  0.00  0.00    -0.040 Cl
ATOM     29 CL   LIG    1        2.198   5.927   0.039  0.00  0.00    -0.030 Cl
ATOM     30  C   LIG    1        1.251   2.010   0.018  0.00  0.00    -0.170 A 
ATOM     31  C   LIG    1        0.009   1.224   0.017  0.00  0.00    +0.550 A 
ATOM     32  O   LIG    1        0.031   0.006   0.009  0.00  0.00    -0.480 OA
ENDBRANCH  19  20
ENDBRANCH   3  19
TORSDOF 5
