REMARK  Name = ZINCqH0000002np3.0
REMARK                            x       y       z     vdW  Elec       q    Type
REMARK                         _______ _______ _______ _____ _____    ______ ____
ROOT
ATOM      1  N   LIG    1       -0.020   1.094   2.454  0.00  0.00    -0.530 N 
ATOM      2  C   LIG    1       -0.365  -0.094   3.002  0.00  0.00    +0.550 A 
ATOM      3  C   LIG    1        0.380  -0.537   4.189  0.00  0.00    -0.200 A 
ATOM      4  C   LIG    1        0.102  -1.748   4.821  0.00  0.00    +0.100 A 
ATOM      5  C   LIG    1        0.827  -2.115   5.934  0.00  0.00    -0.010 A 
ATOM      6  C   LIG    1        1.829  -1.290   6.429  0.00  0.00    +0.070 A 
ATOM      7  C   LIG    1        2.120  -0.090   5.820  0.00  0.00    +0.040 A 
ATOM      8  C   LIG    1        1.399   0.305   4.689  0.00  0.00    +0.160 A 
ATOM      9  N   LIG    1        1.654   1.476   4.061  0.00  0.00    -0.510 NA
ATOM     10  O   LIG    1       -1.256  -0.773   2.527  0.00  0.00    -0.500 OA
ATOM     11  C   LIG    1        0.979   1.847   3.001  0.00  0.00    +0.340 A 
ENDROOT
BRANCH   1  12
ATOM     12  C   LIG    1       -0.729   1.579   1.267  0.00  0.00    +0.300 C 
BRANCH  12  13
ATOM     13  C   LIG    1       -0.013   1.086   0.008  0.00  0.00    +0.010 C 
BRANCH  13  14
ATOM     14  C   LIG    1       -0.753   1.593  -1.232  0.00  0.00    +0.020 C 
BRANCH  14  15
ATOM     15  C   LIG    1       -0.037   1.099  -2.490  0.00  0.00    +0.000 C 
BRANCH  15  17
ATOM     16  C   LIG    1       -0.060   1.113  -4.989  0.00  0.00    +0.000 C 
ATOM     17  C   LIG    1       -0.777   1.606  -3.730  0.00  0.00    -0.010 C 
ENDBRANCH  15  17
ENDBRANCH  14  15
ENDBRANCH  13  14
ENDBRANCH  12  13
ENDBRANCH   1  12
BRANCH  11  18
ATOM     18  S   LIG    1        1.378   3.389   2.247  0.00  0.00    +0.040 S 
BRANCH  18  19
ATOM     19  C   LIG    1        2.713   3.936   3.339  0.00  0.00    +0.040 C 
ATOM     20  C   LIG    1        3.170   5.339   2.931  0.00  0.00    +0.080 C 
ATOM     21  C   LIG    1        3.086   5.515   1.426  0.00  0.00    +0.020 C 
ATOM     22  C   LIG    1        4.064   4.650   0.652  0.00  0.00    +0.010 C 
ATOM     23  C   LIG    1        3.711   3.168   0.792  0.00  0.00    +0.270 C 
ATOM     24  N   LIG    1        4.348   2.645   2.011  0.00  0.00    -0.720 N 
ATOM     25  H   LIG    1        5.106   2.043   1.939  0.00  0.00    +0.400 HD
ATOM     26  C   LIG    1        3.892   2.993   3.215  0.00  0.00    +0.540 C 
ATOM     27  O   LIG    1        4.421   2.552   4.213  0.00  0.00    -0.520 OA
ENDBRANCH  18  19
ENDBRANCH  11  18
TORSDOF 7
