REMARK  Name = ZINCrg000000ol45.0
REMARK                            x       y       z     vdW  Elec       q    Type
REMARK                         _______ _______ _______ _____ _____    ______ ____
ROOT
ATOM      1  C   LIG    1        0.067  -2.829  -0.060  0.00  0.00    +0.570 C 
ATOM      2  N   LIG    1        0.034  -4.171  -0.183  0.00  0.00    -0.610 N 
ATOM      3  C   LIG    1        0.677  -4.833  -1.327  0.00  0.00    +0.270 C 
ATOM      4  C   LIG    1        1.672  -5.875  -0.788  0.00  0.00    +0.260 C 
ATOM      5  N   LIG    1        0.987  -6.702   0.215  0.00  0.00    -0.610 N 
ATOM      6  C   LIG    1        0.339  -6.040   1.356  0.00  0.00    +0.290 C 
ATOM      7  C   LIG    1        0.953  -8.043   0.091  0.00  0.00    +0.520 C 
ATOM      8  O   LIG    1        0.384  -8.715   0.925  0.00  0.00    -0.510 OA
ATOM      9  C   LIG    1       -0.651  -4.998   0.820  0.00  0.00    +0.290 C 
ATOM     10  O   LIG    1       -0.381  -2.300   0.939  0.00  0.00    -0.520 OA
ENDROOT
BRANCH   1  16
ATOM     11  C   LIG    1        1.663  -1.083  -0.848  0.00  0.00    +0.180 A 
ATOM     12  C   LIG    1        2.197  -0.308  -1.867  0.00  0.00    -0.080 A 
ATOM     13  C   LIG    1        1.736  -0.452  -3.160  0.00  0.00    +0.070 A 
ATOM     14  C   LIG    1        0.732  -1.361  -3.449  0.00  0.00    -0.030 A 
ATOM     15  C   LIG    1        0.186  -2.135  -2.448  0.00  0.00    +0.080 A 
ATOM     16  C   LIG    1        0.646  -2.003  -1.136  0.00  0.00    -0.170 A 
BRANCH  11  17
ATOM     17  O   LIG    1        2.119  -0.946   0.422  0.00  0.00    -0.300 OA
BRANCH  17  19
ATOM     18  C   LIG    1        3.537   0.024   2.122  0.00  0.00    +0.070 C 
ATOM     19  C   LIG    1        3.157   0.012   0.640  0.00  0.00    +0.180 C 
ENDBRANCH  17  19
ENDBRANCH  11  17
ENDBRANCH   1  16
BRANCH   7  20
ATOM     20  C   LIG    1        1.623  -8.709  -1.084  0.00  0.00    +0.170 C 
ATOM     21  C   LIG    1        3.135  -8.480  -1.008  0.00  0.00    +0.170 C 
ATOM     22  N   LIG    1        3.789  -9.195  -2.113  0.00  0.00    -0.530 NA
ATOM     23  C   LIG    1        3.493 -10.633  -2.050  0.00  0.00    +0.150 C 
ATOM     24  C   LIG    1        1.978 -10.841  -2.116  0.00  0.00    +0.230 C 
ATOM     25  O   LIG    1        1.356 -10.113  -1.053  0.00  0.00    -0.350 OA
BRANCH  22  26
ATOM     26  C   LIG    1        5.239  -8.955  -2.110  0.00  0.00    +0.170 C 
ATOM     27  C   LIG    1        5.849  -9.502  -3.402  0.00  0.00    +0.040 C 
ENDBRANCH  22  26
ENDBRANCH   7  20
TORSDOF 5
