REMARK  Name = ZINCvU0000000IsP.0
REMARK                            x       y       z     vdW  Elec       q    Type
REMARK                         _______ _______ _______ _____ _____    ______ ____
ROOT
ATOM      1  C   LIG    1       -0.165   7.912  -0.102  0.00  0.00    +0.540 C 
ATOM      2  N   LIG    1        0.091   8.837   0.845  0.00  0.00    -0.660 N 
ATOM      3  H   LIG    1        0.727   8.644   1.552  0.00  0.00    +0.420 HD
ATOM      4  O   LIG    1       -1.031   8.111  -0.926  0.00  0.00    -0.500 OA
ENDROOT
BRANCH   2   5
ATOM      5  C   LIG    1       -0.561  10.076   0.807  0.00  0.00    +0.140 A 
ATOM      6  C   LIG    1        0.109  11.226   1.204  0.00  0.00    +0.020 A 
ATOM      7  C   LIG    1       -0.532  12.448   1.161  0.00  0.00    +0.030 A 
ATOM      8  C   LIG    1       -1.849  12.526   0.733  0.00  0.00    +0.070 A 
ATOM      9  C   LIG    1       -2.521  11.377   0.341  0.00  0.00    +0.040 A 
ATOM     10  C   LIG    1       -1.879  10.155   0.378  0.00  0.00    +0.050 A 
BRANCH   8  11
ATOM     11  O   LIG    1       -2.482  13.729   0.696  0.00  0.00    -0.260 OA
BRANCH  11  12
ATOM     12  C   LIG    1       -2.187  14.573  -0.326  0.00  0.00    +0.120 A 
ATOM     13  C   LIG    1       -1.271  14.196  -1.298  0.00  0.00    -0.060 A 
ATOM     14  C   LIG    1       -0.976  15.055  -2.338  0.00  0.00    +0.050 A 
ATOM     15  C   LIG    1       -1.586  16.294  -2.408  0.00  0.00    -0.020 A 
ATOM     16  C   LIG    1       -2.496  16.675  -1.438  0.00  0.00    +0.050 A 
ATOM     17  C   LIG    1       -2.798  15.817  -0.398  0.00  0.00    -0.020 A 
ENDBRANCH  11  12
ENDBRANCH   8  11
ENDBRANCH   2   5
BRANCH   1  19
ATOM     18  C   LIG    1        1.979   6.881  -0.802  0.00  0.00    +0.100 C 
ATOM     19  C   LIG    1        0.626   6.629  -0.135  0.00  0.00    +0.000 C 
BRANCH  19  20
ATOM     20  S   LIG    1       -0.288   5.382  -1.076  0.00  0.00    +0.150 S 
BRANCH  20  21
ATOM     21  C   LIG    1        0.759   3.986  -0.831  0.00  0.00    +0.120 A 
ATOM     22  N   LIG    1        1.875   3.963  -0.139  0.00  0.00    -0.280 NA
ATOM     23  N   LIG    1        2.377   2.779  -0.173  0.00  0.00    -0.260 NA
ATOM     24  C   LIG    1        1.603   1.999  -0.889  0.00  0.00    +0.220 A 
ATOM     25  O   LIG    1        0.566   2.748  -1.325  0.00  0.00    -0.200 OA
BRANCH  24  26
ATOM     26  C   LIG    1        1.828   0.567  -1.172  0.00  0.00    -0.040 A 
ATOM     27  C   LIG    1        0.913  -0.146  -1.950  0.00  0.00    +0.090 A 
ATOM     28  C   LIG    1        1.131  -1.481  -2.216  0.00  0.00    +0.000 A 
ATOM     29  C   LIG    1        2.249  -2.119  -1.703  0.00  0.00    +0.130 A 
ATOM     30  C   LIG    1        3.158  -1.418  -0.926  0.00  0.00    +0.000 A 
ATOM     31  F   LIG    1        2.455  -3.429  -1.962  0.00  0.00    -0.130 F 
ATOM     32  C   LIG    1        2.953  -0.081  -0.658  0.00  0.00    +0.110 A 
ENDBRANCH  24  26
ENDBRANCH  20  21
ENDBRANCH  19  20
ENDBRANCH   1  19
TORSDOF 7
