REMARK  Name = ZINCpk00000RjLfl.0
REMARK                            x       y       z     vdW  Elec       q    Type
REMARK                         _______ _______ _______ _____ _____    ______ ____
ROOT
ATOM      1  C   LIG    1       -0.983   6.285   3.799  0.00  0.00    +0.070 C 
ATOM      2  C   LIG    1       -1.218   4.972   3.048  0.00  0.00    +0.160 C 
ATOM      3  O   LIG    1       -1.775   4.006   3.941  0.00  0.00    -0.370 OA
ATOM      4  C   LIG    1       -3.121   3.637   3.638  0.00  0.00    +0.180 C 
ATOM      5  C   LIG    1       -3.391   2.224   4.159  0.00  0.00    +0.080 C 
ATOM      6  C   LIG    1       -3.461   1.266   2.998  0.00  0.00    -0.040 C 
ATOM      7  C   LIG    1       -2.809   0.131   3.045  0.00  0.00    -0.050 C 
ATOM      8  C   LIG    1       -2.880  -0.828   1.883  0.00  0.00    +0.240 C 
ATOM      9  O   LIG    1       -1.557  -1.128   1.436  0.00  0.00    -0.360 OA
ATOM     10  C   LIG    1       -1.296  -0.768   0.079  0.00  0.00    +0.230 C 
ATOM     11  C   LIG    1        0.002  -0.004   0.002  0.00  0.00    +0.510 C 
ATOM     12  N   LIG    1       -0.016   1.343   0.009  0.00  0.00    -0.730 N 
ATOM     13  H   LIG    1       -0.869   1.810   0.012  0.00  0.00    +0.400 HD
ATOM     14  C   LIG    1        1.232   2.107   0.002  0.00  0.00    +0.310 C 
ATOM     15  C   LIG    1        1.427   2.801   1.350  0.00  0.00    +0.290 C 
ATOM     16  N   LIG    1        0.127   3.278   1.850  0.00  0.00    -0.720 N 
ATOM     17  H   LIG    1       -0.686   2.763   1.716  0.00  0.00    +0.400 HD
ATOM     18  O   LIG    1        1.054  -0.604  -0.063  0.00  0.00    -0.510 OA
ATOM     19  C   LIG    1        0.096   4.462   2.512  0.00  0.00    +0.520 C 
ATOM     20  O   LIG    1        1.111   5.106   2.674  0.00  0.00    -0.510 OA
ENDROOT
BRANCH  15  21
ATOM     21  C   LIG    1        2.024   1.830   2.335  0.00  0.00    -0.130 A 
ATOM     22  C   LIG    1        1.203   1.125   3.195  0.00  0.00    +0.070 A 
ATOM     23  C   LIG    1        1.751   0.234   4.099  0.00  0.00    +0.000 A 
ATOM     24  C   LIG    1        3.120   0.047   4.145  0.00  0.00    +0.040 A 
ATOM     25  C   LIG    1        3.943   0.751   3.285  0.00  0.00    -0.010 A 
ATOM     26  C   LIG    1        3.395   1.639   2.376  0.00  0.00    +0.110 A 
ATOM     27  F   LIG    1        4.198   2.323   1.532  0.00  0.00    -0.140 F 
ENDBRANCH  15  21
TORSDOF 1
