REMARK  Name = ZINCvU0000000HES.0
REMARK                            x       y       z     vdW  Elec       q    Type
REMARK                         _______ _______ _______ _____ _____    ______ ____
ROOT
ATOM      1  C   LIG    1        3.217  -0.195  -3.927  0.00  0.00    +0.190 C 
ATOM      2  C   LIG    1        4.328  -0.989  -3.291  0.00  0.00    +0.120 A 
ATOM      3  N   LIG    1        5.165  -1.765  -3.921  0.00  0.00    -0.230 NA
ATOM      4  N   LIG    1        6.057  -2.339  -3.007  0.00  0.00    -0.330 N 
ATOM      5  C   LIG    1        5.738  -1.880  -1.752  0.00  0.00    +0.330 A 
ATOM      6  N   LIG    1        6.247  -2.097  -0.550  0.00  0.00    -0.470 NA
ATOM      7  C   LIG    1        5.750  -1.522   0.535  0.00  0.00    +0.280 A 
ATOM      8  C   LIG    1        4.655  -0.650   0.462  0.00  0.00    +0.010 A 
ATOM      9  C   LIG    1        4.080  -0.385  -0.776  0.00  0.00    +0.020 A 
ATOM     10  C   LIG    1        4.632  -1.021  -1.914  0.00  0.00    -0.180 A 
ENDROOT
BRANCH   4  11
ATOM     11  C   LIG    1        7.094  -3.227  -3.319  0.00  0.00    +0.160 A 
ATOM     12  C   LIG    1        8.288  -3.178  -2.611  0.00  0.00    +0.020 A 
ATOM     13  C   LIG    1        9.307  -4.059  -2.917  0.00  0.00    +0.030 A 
ATOM     14  C   LIG    1        9.144  -4.980  -3.935  0.00  0.00    +0.010 A 
ATOM     15  C   LIG    1        7.958  -5.027  -4.646  0.00  0.00    +0.030 A 
ATOM     16  C   LIG    1        6.934  -4.154  -4.340  0.00  0.00    +0.020 A 
ENDBRANCH   4  11
BRANCH   7  17
ATOM     17  C   LIG    1        6.361  -1.804   1.848  0.00  0.00    -0.170 A 
ATOM     18  C   LIG    1        7.412  -2.624   2.059  0.00  0.00    +0.080 A 
ATOM     19  C   LIG    1        7.809  -2.727   3.374  0.00  0.00    +0.010 A 
ATOM     20  C   LIG    1        7.089  -2.006   4.241  0.00  0.00    -0.020 A 
ATOM     21  S   LIG    1        5.830  -1.128   3.383  0.00  0.00    +0.150 S 
ENDBRANCH   7  17
BRANCH   9  22
ATOM     22  C   LIG    1        2.925   0.527  -0.899  0.00  0.00    +0.510 C 
ATOM     23  O   LIG    1        2.033   0.276  -1.684  0.00  0.00    -0.480 OA
BRANCH  22  24
ATOM     24  O   LIG    1        2.860   1.638  -0.139  0.00  0.00    -0.330 OA
BRANCH  24  25
ATOM     25  C   LIG    1        1.696   2.489  -0.313  0.00  0.00    +0.160 C 
ATOM     26  C   LIG    1        2.068   3.941   0.003  0.00  0.00    +0.060 C 
ATOM     27  C   LIG    1        0.810   4.810  -0.044  0.00  0.00    +0.040 C 
ATOM     28  C   LIG    1       -0.166   4.368   1.047  0.00  0.00    +0.030 C 
ATOM     29  C   LIG    1       -0.625   2.928   0.766  0.00  0.00    +0.030 C 
ATOM     30  C   LIG    1        0.603   2.055   0.638  0.00  0.00    +0.350 C 
ATOM     31  O   LIG    1        0.706   1.034   1.276  0.00  0.00    -0.430 OA
ENDBRANCH  24  25
ENDBRANCH  22  24
ENDBRANCH   9  22
TORSDOF 5
