REMARK  Name = ZINCpe000027pH9p.2
REMARK                            x       y       z     vdW  Elec       q    Type
REMARK                         _______ _______ _______ _____ _____    ______ ____
ROOT
ATOM      1  C   LIG    1       -3.747  -0.737  -4.051  0.00  0.00    +0.100 C 
ATOM      2  C   LIG    1       -3.478  -2.040  -3.294  0.00  0.00    +0.180 C 
ENDROOT
BRANCH   2   3
ATOM      3  N   LIG    1       -4.674  -2.892  -3.346  0.00  0.00    -0.370 N 
ATOM      4  C   LIG    1       -4.420  -4.135  -2.608  0.00  0.00    +0.270 C 
ATOM      5  C   LIG    1       -5.689  -4.990  -2.589  0.00  0.00    +0.060 C 
ATOM      6  C   LIG    1       -6.093  -5.324  -4.028  0.00  0.00    +0.120 C 
ATOM      7  C   LIG    1       -6.282  -4.021  -4.810  0.00  0.00    +0.070 C 
ATOM      8  C   LIG    1       -4.992  -3.201  -4.745  0.00  0.00    +0.260 C 
ATOM      9  H   LIG    1       -5.451  -2.405  -2.925  0.00  0.00    +0.420 HD
BRANCH   6  10
ATOM     10  C   LIG    1       -7.384  -6.100  -4.022  0.00  0.00    +0.170 A 
ATOM     11  N   LIG    1       -7.719  -7.052  -4.850  0.00  0.00    -0.280 NA
ATOM     12  N   LIG    1       -8.890  -7.493  -4.552  0.00  0.00    -0.290 NA
ATOM     13  C   LIG    1       -9.355  -6.842  -3.521  0.00  0.00    +0.400 A 
ATOM     14  N   LIG    1       -8.411  -5.943  -3.152  0.00  0.00    -0.580 N 
ATOM     15  H   LIG    1       -8.461  -5.314  -2.415  0.00  0.00    +0.430 HD
ENDBRANCH   6  10
ENDBRANCH   2   3
BRANCH   2  16
ATOM     16  C   LIG    1       -3.147  -1.727  -1.857  0.00  0.00    +0.510 C 
ATOM     17  N   LIG    1       -1.870  -1.488  -1.497  0.00  0.00    -1.100 NA
ATOM     18  O   LIG    1       -4.029  -1.690  -1.026  0.00  0.00    -0.630 OA
BRANCH  17  19
ATOM     19  S   LIG    1       -1.506  -1.144   0.081  0.00  0.00    +2.660 S 
ATOM     20  O   LIG    1       -2.108   0.111   0.368  0.00  0.00    -1.010 OA
ATOM     21  O   LIG    1       -1.780  -2.325   0.823  0.00  0.00    -1.010 OA
BRANCH  19  22
ATOM     22  C   LIG    1        0.236  -0.893   0.172  0.00  0.00    -0.630 A 
ATOM     23  C   LIG    1        0.762   0.372  -0.010  0.00  0.00    +0.120 A 
ATOM     24  C   LIG    1        2.128   0.569   0.061  0.00  0.00    -0.010 A 
ATOM     25  C   LIG    1        2.969  -0.500   0.314  0.00  0.00    +0.050 A 
ATOM     26  C   LIG    1        2.442  -1.765   0.496  0.00  0.00    -0.020 A 
ATOM     27  C   LIG    1        1.075  -1.962   0.426  0.00  0.00    +0.120 A 
ENDBRANCH  19  22
ENDBRANCH  17  19
ENDBRANCH   2  16
TORSDOF 5
