REMARK  Name = ZINCpk00000K7I1i.2
REMARK                            x       y       z     vdW  Elec       q    Type
REMARK                         _______ _______ _______ _____ _____    ______ ____
ROOT
ATOM      1  C   LIG    1        0.080  -1.188  -0.016  0.00  0.00    -0.020 A 
ATOM      2  C   LIG    1       -0.058   0.147  -0.218  0.00  0.00    +0.190 A 
ATOM      3  N   LIG    1        1.174   0.675  -0.287  0.00  0.00    -0.470 NA
ATOM      4  C   LIG    1        2.050  -0.278  -0.136  0.00  0.00    +0.210 A 
ATOM      5  O   LIG    1        1.407  -1.441   0.033  0.00  0.00    -0.190 OA
ENDROOT
BRANCH   1  10
ATOM      6  C   LIG    1       -3.356  -2.690   0.181  0.00  0.00    -0.040 A 
ATOM      7  C   LIG    1       -3.055  -4.025   0.384  0.00  0.00    +0.110 A 
ATOM      8  C   LIG    1       -1.738  -4.440   0.457  0.00  0.00    +0.050 A 
ATOM      9  C   LIG    1       -0.714  -3.524   0.328  0.00  0.00    +0.100 A 
ATOM     10  C   LIG    1       -1.011  -2.175   0.123  0.00  0.00    -0.000 A 
ATOM     11  C   LIG    1       -2.342  -1.763   0.056  0.00  0.00    +0.120 A 
BRANCH   6  13
ATOM     12  O   LIG    1       -5.665  -3.072   0.220  0.00  0.00    -0.150 OA
ATOM     13  N   LIG    1       -4.769  -2.255   0.104  0.00  0.00    +0.030 N 
ATOM     14  O   LIG    1       -5.035  -1.080  -0.074  0.00  0.00    -0.150 OA
ENDBRANCH   6  13
ENDBRANCH   1  10
BRANCH   4  15
ATOM     15  C   LIG    1        3.547  -0.101  -0.151  0.00  0.00    +0.200 C 
BRANCH  15  16
ATOM     16  C   LIG    1        4.042   0.173   1.271  0.00  0.00    +0.190 C 
BRANCH  16  17
ATOM     17  N   LIG    1        5.500   0.346   1.256  0.00  0.00    -0.540 NA
ATOM     18  C   LIG    1        6.176  -0.907   0.890  0.00  0.00    +0.180 C 
ATOM     19  C   LIG    1        7.685  -0.665   0.809  0.00  0.00    +0.180 C 
ATOM     20  N   LIG    1        8.169  -0.168   2.104  0.00  0.00    -0.530 NA
ATOM     21  C   LIG    1        7.494   1.084   2.471  0.00  0.00    +0.180 C 
ATOM     22  C   LIG    1        5.985   0.843   2.552  0.00  0.00    +0.190 C 
BRANCH  20  23
ATOM     23  C   LIG    1        9.628   0.005   2.090  0.00  0.00    +0.180 C 
BRANCH  23  24
ATOM     24  C   LIG    1       10.151   0.042   3.527  0.00  0.00    +0.170 C 
BRANCH  24  25
ATOM     25  O   LIG    1        9.919  -1.222   4.151  0.00  0.00    -0.560 OA
ATOM     26  H   LIG    1       10.227  -1.271   5.067  0.00  0.00    +0.380 HD
ENDBRANCH  24  25
ENDBRANCH  23  24
ENDBRANCH  20  23
ENDBRANCH  16  17
ENDBRANCH  15  16
ENDBRANCH   4  15
TORSDOF 8
