REMARK  Name = ZINCnE00000fmm1R.1
REMARK                            x       y       z     vdW  Elec       q    Type
REMARK                         _______ _______ _______ _____ _____    ______ ____
ROOT
ATOM      1  C   LIG    1        5.016   0.857  -0.042  0.00  0.00    +0.010 C 
ATOM      2  C   LIG    1        4.888   0.068   1.262  0.00  0.00    +0.070 C 
ENDROOT
BRANCH   1   3
ATOM      3  C   LIG    1        6.424   1.379  -0.177  0.00  0.00    +0.540 C 
ATOM      4  N   LIG    1        7.384   0.596  -0.707  0.00  0.00    -0.730 N 
ATOM      5  H   LIG    1        7.170  -0.303  -1.002  0.00  0.00    +0.400 HD
ATOM      6  O   LIG    1        6.692   2.503   0.191  0.00  0.00    -0.520 OA
BRANCH   4   7
ATOM      7  C   LIG    1        8.753   1.103  -0.838  0.00  0.00    +0.230 C 
ATOM      8  C   LIG    1        8.858   1.925  -2.139  0.00  0.00    +0.010 C 
ATOM      9  C   LIG    1       10.046   2.843  -2.028  0.00  0.00    +0.000 C 
ATOM     10  C   LIG    1       11.318   2.236  -2.650  0.00  0.00    +0.000 C 
ATOM     11  C   LIG    1       11.490   0.741  -2.318  0.00  0.00    +0.000 C 
ATOM     12  C   LIG    1       11.150   0.426  -0.886  0.00  0.00    +0.030 C 
ATOM     13  C   LIG    1        9.676  -0.022  -0.819  0.00  0.00    +0.010 C 
ENDBRANCH   4   7
ENDBRANCH   1   3
BRANCH   1  14
ATOM     14  S   LIG    1        3.857   2.247  -0.023  0.00  0.00    +0.020 S 
BRANCH  14  19
ATOM     15  C   LIG    1        1.206  -0.648  -0.013  0.00  0.00    +0.180 A 
ATOM     16  C   LIG    1        0.002  -0.004   0.002  0.00  0.00    -0.270 A 
ATOM     17  C   LIG    1       -0.017   1.402   0.010  0.00  0.00    +0.490 A 
ATOM     18  N   LIG    1        1.158   2.067   0.002  0.00  0.00    -0.640 NA
ATOM     19  C   LIG    1        2.329   1.371  -0.013  0.00  0.00    +0.320 A 
ATOM     20  O   LIG    1       -1.075   2.009   0.018  0.00  0.00    -0.620 OA
ATOM     21  N   LIG    1        2.337   0.052  -0.020  0.00  0.00    -0.620 NA
BRANCH  15  22
ATOM     22  C   LIG    1        1.253  -2.154  -0.022  0.00  0.00    +0.080 C 
BRANCH  22  24
ATOM     23  C   LIG    1        1.429  -4.181  -1.472  0.00  0.00    +0.000 C 
ATOM     24  C   LIG    1        1.381  -2.652  -1.463  0.00  0.00    +0.010 C 
ENDBRANCH  22  24
ENDBRANCH  15  22
ENDBRANCH  14  19
ENDBRANCH   1  14
TORSDOF 6
