REMARK  Name = ZINCvU00000007G0.0
REMARK                            x       y       z     vdW  Elec       q    Type
REMARK                         _______ _______ _______ _____ _____    ______ ____
ROOT
ATOM      1  N   LIG    1        3.659   3.492  -0.498  0.00  0.00    -0.730 N 
ATOM      2  H   LIG    1        2.817   3.975  -0.489  0.00  0.00    +0.400 HD
ATOM      3  C   LIG    1        3.669   2.153  -0.351  0.00  0.00    +0.560 C 
ATOM      4  O   LIG    1        4.724   1.548  -0.363  0.00  0.00    -0.510 OA
ENDROOT
BRANCH   3   5
ATOM      5  C   LIG    1        2.401   1.420  -0.177  0.00  0.00    -0.150 A 
ATOM      6  C   LIG    1        1.187   2.110  -0.162  0.00  0.00    +0.050 A 
ATOM      7  C   LIG    1        0.005   1.420   0.002  0.00  0.00    +0.020 A 
ATOM      8  C   LIG    1        0.016   0.043   0.153  0.00  0.00    +0.060 A 
ATOM      9  C   LIG    1        1.209  -0.652   0.141  0.00  0.00    +0.010 A 
ATOM     10  C   LIG    1        2.407   0.026  -0.023  0.00  0.00    +0.140 A 
BRANCH  10  11
ATOM     11  O   LIG    1        3.580  -0.655  -0.035  0.00  0.00    -0.250 OA
BRANCH  11  12
ATOM     12  C   LIG    1        4.249  -0.795   1.140  0.00  0.00    +0.150 A 
ATOM     13  C   LIG    1        3.677  -0.347   2.322  0.00  0.00    -0.080 A 
ATOM     14  C   LIG    1        4.357  -0.495   3.515  0.00  0.00    +0.040 A 
ATOM     15  C   LIG    1        5.610  -1.078   3.531  0.00  0.00    -0.040 A 
ATOM     16  C   LIG    1        6.185  -1.519   2.353  0.00  0.00    +0.050 A 
ATOM     17  C   LIG    1        5.507  -1.379   1.158  0.00  0.00    -0.010 A 
ENDBRANCH  11  12
ENDBRANCH  10  11
ENDBRANCH   3   5
BRANCH   1  18
ATOM     18  C   LIG    1        4.918   4.220  -0.672  0.00  0.00    +0.300 C 
BRANCH  18  20
ATOM     19  C   LIG    1        3.838   5.960  -2.103  0.00  0.00    +0.070 C 
ATOM     20  C   LIG    1        4.628   5.715  -0.815  0.00  0.00    +0.070 C 
BRANCH  20  21
ATOM     21  C   LIG    1        5.927   6.476  -0.871  0.00  0.00    +0.300 A 
ATOM     22  N   LIG    1        6.854   6.306  -1.768  0.00  0.00    -0.460 NA
ATOM     23  C   LIG    1        7.886   7.154  -1.526  0.00  0.00    +0.050 A 
ATOM     24  C   LIG    1        9.107   7.391  -2.161  0.00  0.00    +0.070 A 
ATOM     25  C   LIG    1        9.963   8.332  -1.662  0.00  0.00    +0.010 A 
ATOM     26  C   LIG    1        9.632   9.058  -0.528  0.00  0.00    +0.050 A 
ATOM     27  C   LIG    1        8.432   8.842   0.116  0.00  0.00    +0.020 A 
ATOM     28  C   LIG    1        7.550   7.890  -0.377  0.00  0.00    +0.050 A 
ATOM     29  N   LIG    1        6.305   7.438   0.014  0.00  0.00    -0.550 N 
BRANCH  29  30
ATOM     30  C   LIG    1        5.534   7.908   1.168  0.00  0.00    +0.650 C 
ATOM     31  F   LIG    1        4.168   7.783   0.898  0.00  0.00    -0.180 F 
ATOM     32  F   LIG    1        5.840   9.250   1.418  0.00  0.00    -0.180 F 
ENDBRANCH  29  30
ENDBRANCH  20  21
ENDBRANCH  18  20
ENDBRANCH   1  18
TORSDOF 7
