REMARK  Name = ZINCpe00000bhEnN.0
REMARK                            x       y       z     vdW  Elec       q    Type
REMARK                         _______ _______ _______ _____ _____    ______ ____
ROOT
ATOM      1  C   LIG    1        1.256   1.968   0.001  0.00  0.00    -0.120 A 
ATOM      2  C   LIG    1        1.241   3.366   0.008  0.00  0.00    +0.090 A 
ATOM      3  C   LIG    1        2.429   4.069   0.000  0.00  0.00    +0.010 A 
ATOM      4  C   LIG    1        3.638   3.403  -0.015  0.00  0.00    +0.120 A 
ATOM      5  C   LIG    1        3.669   2.005  -0.023  0.00  0.00    -0.160 A 
ATOM      6  C   LIG    1        4.782   1.037  -0.039  0.00  0.00    +0.570 C 
ATOM      7  O   LIG    1        5.961   1.334  -0.049  0.00  0.00    -0.510 OA
ATOM      8  N   LIG    1        4.307  -0.220  -0.023  0.00  0.00    -0.600 N 
ATOM      9  C   LIG    1        2.840  -0.169  -0.013  0.00  0.00    +0.370 C 
ATOM     10  C   LIG    1        2.470   1.293  -0.009  0.00  0.00    -0.020 A 
ENDROOT
BRANCH   8  11
ATOM     11  C   LIG    1        5.118  -1.440  -0.030  0.00  0.00    +0.290 C 
ATOM     12  C   LIG    1        6.000  -1.461  -1.284  0.00  0.00    +0.060 C 
ATOM     13  C   LIG    1        6.918  -2.686  -1.214  0.00  0.00    +0.100 C 
ATOM     14  C   LIG    1        7.699  -2.646   0.073  0.00  0.00    +0.520 C 
ATOM     15  N   LIG    1        7.200  -2.059   1.172  0.00  0.00    -0.670 N 
ATOM     16  H   LIG    1        7.732  -2.061   1.983  0.00  0.00    +0.420 HD
ATOM     17  O   LIG    1        8.798  -3.154   0.118  0.00  0.00    -0.500 OA
ATOM     18  C   LIG    1        5.996  -1.468   1.192  0.00  0.00    +0.520 C 
ATOM     19  O   LIG    1        5.607  -0.946   2.215  0.00  0.00    -0.480 OA
ENDBRANCH   8  11
BRANCH   1  22
ATOM     20  N   LIG    1       -1.191   1.869   0.018  0.00  0.00    -0.720 N 
ATOM     21  H   LIG    1       -1.204   2.839   0.023  0.00  0.00    +0.400 HD
ATOM     22  C   LIG    1       -0.014   1.211   0.009  0.00  0.00    +0.560 C 
ATOM     23  O   LIG    1        0.002  -0.004   0.002  0.00  0.00    -0.530 OA
BRANCH  20  24
ATOM     24  C   LIG    1       -2.449   1.120   0.020  0.00  0.00    +0.260 C 
BRANCH  24  26
ATOM     25  C   LIG    1       -3.634   2.900  -1.272  0.00  0.00    +0.020 C 
ATOM     26  C   LIG    1       -3.626   2.098   0.031  0.00  0.00    -0.030 C 
ATOM     27  C   LIG    1       -4.936   1.319   0.158  0.00  0.00    +0.030 C 
ENDBRANCH  24  26
ENDBRANCH  20  24
ENDBRANCH   1  22
TORSDOF 4
