REMARK  Name = ZINCpe000000TGt0.0
REMARK                            x       y       z     vdW  Elec       q    Type
REMARK                         _______ _______ _______ _____ _____    ______ ____
ROOT
ATOM      1  N   LIG    1       -2.833  -4.971  -1.779  0.00  0.00    -0.490 N 
ATOM      2  C   LIG    1       -3.859  -4.380  -2.446  0.00  0.00    +0.290 A 
ATOM      3  C   LIG    1       -3.959  -3.033  -2.513  0.00  0.00    -0.060 A 
ATOM      4  C   LIG    1       -2.996  -2.227  -1.889  0.00  0.00    +0.110 A 
ATOM      5  C   LIG    1       -1.963  -2.819  -1.216  0.00  0.00    +0.050 A 
ATOM      6  C   LIG    1       -1.887  -4.228  -1.173  0.00  0.00    +0.530 A 
ATOM      7  O   LIG    1       -0.968  -4.772  -0.582  0.00  0.00    -0.520 OA
ENDROOT
BRANCH   5   8
ATOM      8  N   LIG    1       -0.987  -2.036  -0.583  0.00  0.00    -0.680 N 
ATOM      9  H   LIG    1       -0.466  -1.401  -1.098  0.00  0.00    +0.400 HD
ATOM     10  C   LIG    1       -0.773  -2.167   0.741  0.00  0.00    +0.720 C 
ATOM     11  N   LIG    1        0.232  -1.491   1.331  0.00  0.00    -0.620 N 
ATOM     12  C   LIG    1        1.093  -0.614   0.533  0.00  0.00    +0.280 C 
ATOM     13  O   LIG    1       -1.487  -2.895   1.403  0.00  0.00    -0.570 OA
BRANCH  11  14
ATOM     14  C   LIG    1        0.465  -1.633   2.771  0.00  0.00    +0.390 C 
BRANCH  14  15
ATOM     15  C   LIG    1        1.423  -2.770   3.015  0.00  0.00    -0.270 A 
ATOM     16  C   LIG    1        1.086  -4.065   3.217  0.00  0.00    +0.260 A 
ATOM     17  N   LIG    1        2.227  -4.764   3.394  0.00  0.00    -0.380 N 
ATOM     18  N   LIG    1        3.300  -3.867   3.307  0.00  0.00    -0.300 NA
ATOM     19  C   LIG    1        2.326  -6.204   3.640  0.00  0.00    +0.360 C 
ATOM     20  C   LIG    1        2.817  -2.672   3.080  0.00  0.00    +0.240 A 
ENDBRANCH  14  15
ENDBRANCH  11  14
ENDBRANCH   5   8
BRANCH   1  21
ATOM     21  C   LIG    1       -2.751  -6.433  -1.723  0.00  0.00    +0.380 C 
BRANCH  21  22
ATOM     22  C   LIG    1       -1.950  -6.936  -2.896  0.00  0.00    +0.450 C 
ATOM     23  O   LIG    1       -1.493  -6.154  -3.696  0.00  0.00    -0.490 OA
BRANCH  22  24
ATOM     24  O   LIG    1       -1.743  -8.253  -3.051  0.00  0.00    -0.350 OA
BRANCH  24  26
ATOM     25  C   LIG    1       -0.833 -10.191  -4.213  0.00  0.00    +0.070 C 
ATOM     26  C   LIG    1       -0.962  -8.666  -4.203  0.00  0.00    +0.200 C 
ENDBRANCH  24  26
ENDBRANCH  22  24
ENDBRANCH  21  22
ENDBRANCH   1  21
TORSDOF 7
