REMARK  Name = ZINCrD00000F5LIn.0
REMARK                            x       y       z     vdW  Elec       q    Type
REMARK                         _______ _______ _______ _____ _____    ______ ____
ROOT
ATOM      1  C   LIG    1       -2.977   1.282  -4.032  0.00  0.00    +0.540 C 
ATOM      2  N   LIG    1       -3.508   2.062  -4.995  0.00  0.00    -0.610 N 
ATOM      3  C   LIG    1       -3.703   3.521  -4.909  0.00  0.00    +0.240 C 
ATOM      4  C   LIG    1       -3.728   4.003  -6.383  0.00  0.00    +0.040 C 
ATOM      5  C   LIG    1       -4.486   2.839  -7.075  0.00  0.00    +0.040 C 
ATOM      6  C   LIG    1       -3.994   1.598  -6.302  0.00  0.00    +0.250 C 
ATOM      7  O   LIG    1       -2.869   0.087  -4.210  0.00  0.00    -0.520 OA
ENDROOT
BRANCH   1  11
ATOM      8  O   LIG    1        0.396   3.526  -1.453  0.00  0.00    -0.520 OA
ATOM      9  C   LIG    1       -0.459   2.737  -1.795  0.00  0.00    +0.520 C 
ATOM     10  C   LIG    1       -1.386   2.921  -2.976  0.00  0.00    +0.080 C 
ATOM     11  C   LIG    1       -2.518   1.895  -2.734  0.00  0.00    +0.000 C 
ATOM     12  C   LIG    1       -1.804   0.844  -1.852  0.00  0.00    +0.310 C 
ATOM     13  N   LIG    1       -0.721   1.571  -1.179  0.00  0.00    -0.620 N 
BRANCH  13  14
ATOM     14  C   LIG    1       -0.013   1.086   0.008  0.00  0.00    +0.430 C 
BRANCH  14  15
ATOM     15  C   LIG    1       -0.718   1.572   1.248  0.00  0.00    -0.040 A 
ATOM     16  C   LIG    1       -1.708   0.929   1.893  0.00  0.00    -0.040 A 
ATOM     17  C   LIG    1       -2.070   1.736   2.996  0.00  0.00    -0.070 A 
ATOM     18  C   LIG    1       -1.286   2.828   2.953  0.00  0.00    +0.170 A 
ATOM     19  O   LIG    1       -0.469   2.723   1.893  0.00  0.00    -0.170 OA
ENDBRANCH  14  15
ENDBRANCH  13  14
ENDBRANCH   1  11
BRANCH   6  20
ATOM     20  C   LIG    1       -2.873   0.933  -7.059  0.00  0.00    -0.050 C 
ATOM     21  C   LIG    1       -2.983  -0.335  -7.428  0.00  0.00    +0.040 C 
BRANCH  21  22
ATOM     22  C   LIG    1       -1.884  -0.987  -8.171  0.00  0.00    -0.060 A 
ATOM     23  C   LIG    1       -0.731  -0.268  -8.490  0.00  0.00    +0.010 A 
ATOM     24  C   LIG    1        0.293  -0.883  -9.180  0.00  0.00    +0.000 A 
ATOM     25  C   LIG    1        0.175  -2.208  -9.563  0.00  0.00    +0.000 A 
ATOM     26  C   LIG    1       -0.967  -2.924  -9.254  0.00  0.00    +0.000 A 
ATOM     27  C   LIG    1       -1.996  -2.322  -8.561  0.00  0.00    +0.010 A 
ENDBRANCH  21  22
ENDBRANCH   6  20
TORSDOF 5
