REMARK  Name = ZINCvU00000004X0.0
REMARK                            x       y       z     vdW  Elec       q    Type
REMARK                         _______ _______ _______ _____ _____    ______ ____
ROOT
ATOM      1  C   LIG    1        2.463   1.310  -0.014  0.00  0.00    -0.110 A 
ATOM      2  C   LIG    1        2.383  -0.078  -0.034  0.00  0.00    +0.040 A 
ATOM      3  C   LIG    1        1.123  -0.694  -0.025  0.00  0.00    +0.200 A 
ATOM      4  N   LIG    1        0.002  -0.004   0.002  0.00  0.00    -0.440 NA
ATOM      5  C   LIG    1       -0.016   1.329   0.022  0.00  0.00    +0.130 A 
ATOM      6  C   LIG    1       -1.231   2.039   0.056  0.00  0.00    +0.050 A 
ATOM      7  C   LIG    1       -1.217   3.400   0.072  0.00  0.00    +0.040 A 
ATOM      8  C   LIG    1       -0.017   4.107   0.065  0.00  0.00    +0.030 A 
ATOM      9  C   LIG    1        1.180   3.453   0.037  0.00  0.00    +0.050 A 
ATOM     10  C   LIG    1        1.202   2.055   0.015  0.00  0.00    -0.060 A 
ENDROOT
BRANCH   3  11
ATOM     11  C   LIG    1        1.050  -2.175  -0.046  0.00  0.00    -0.060 A 
ATOM     12  C   LIG    1        2.220  -2.932  -0.080  0.00  0.00    +0.020 A 
ATOM     13  C   LIG    1        2.147  -4.310  -0.094  0.00  0.00    +0.010 A 
ATOM     14  C   LIG    1        0.915  -4.940  -0.086  0.00  0.00    +0.030 A 
ATOM     15  C   LIG    1       -0.249  -4.194  -0.058  0.00  0.00    +0.010 A 
ATOM     16  C   LIG    1       -0.188  -2.815  -0.038  0.00  0.00    +0.070 A 
ENDBRANCH   3  11
BRANCH   1  17
ATOM     17  C   LIG    1        3.762   2.003  -0.024  0.00  0.00    +0.410 C 
ATOM     18  O   LIG    1        3.804   3.212  -0.109  0.00  0.00    -0.370 OA
BRANCH  17  19
ATOM     19  C   LIG    1        5.040   1.210   0.073  0.00  0.00    +0.210 C 
BRANCH  19  29
ATOM     20  C   LIG    1        6.486   0.488   2.710  0.00  0.00    +0.330 C 
ATOM     21  N   LIG    1        6.718   1.701   1.920  0.00  0.00    -0.480 N 
ATOM     22  C   LIG    1        7.613   2.710   2.215  0.00  0.00    +0.060 A 
ATOM     23  C   LIG    1        8.518   2.930   3.244  0.00  0.00    +0.020 A 
ATOM     24  C   LIG    1        9.281   4.078   3.249  0.00  0.00    +0.040 A 
ATOM     25  C   LIG    1        9.151   5.013   2.232  0.00  0.00    +0.000 A 
ATOM     26  C   LIG    1        8.266   4.813   1.210  0.00  0.00    +0.080 A 
ATOM     27  C   LIG    1        7.482   3.657   1.185  0.00  0.00    +0.040 A 
ATOM     28  N   LIG    1        6.538   3.184   0.331  0.00  0.00    -0.440 NA
ATOM     29  C   LIG    1        6.095   2.038   0.759  0.00  0.00    +0.260 A 
ENDBRANCH  19  29
BRANCH  19  30
ATOM     30  C   LIG    1        5.499   0.852  -1.279  0.00  0.00    +0.210 C 
ATOM     31  N   LIG    1        5.853   0.576  -2.322  0.00  0.00    -0.360 NA
ENDBRANCH  19  30
ENDBRANCH  17  19
ENDBRANCH   1  17
TORSDOF 5
