REMARK  Name = ZINCpk00000KfKPi.0
REMARK                            x       y       z     vdW  Elec       q    Type
REMARK                         _______ _______ _______ _____ _____    ______ ____
ROOT
ATOM      1  O   LIG    1       -1.846   3.526   3.208  0.00  0.00    -0.530 OA
ATOM      2  C   LIG    1       -1.338   4.144   2.297  0.00  0.00    +0.500 C 
ATOM      3  N   LIG    1       -0.755   3.484   1.277  0.00  0.00    -0.730 N 
ATOM      4  H   LIG    1       -0.348   3.979   0.548  0.00  0.00    +0.410 HD
ENDROOT
BRANCH   3   5
ATOM      5  C   LIG    1       -0.735   2.019   1.269  0.00  0.00    +0.260 C 
BRANCH   5   6
ATOM      6  C   LIG    1       -0.019   1.526   0.010  0.00  0.00    +0.030 C 
BRANCH   6   7
ATOM      7  C   LIG    1        0.002  -0.004   0.002  0.00  0.00    +0.190 C 
BRANCH   7   8
ATOM      8  O   LIG    1        0.671  -0.465  -1.174  0.00  0.00    -0.380 OA
BRANCH   8   9
ATOM      9  C   LIG    1        0.746  -1.888  -1.280  0.00  0.00    +0.300 C 
BRANCH   9  10
ATOM     10  C   LIG    1        1.467  -2.260  -2.550  0.00  0.00    -0.020 A 
ATOM     11  C   LIG    1        2.794  -2.439  -2.677  0.00  0.00    -0.030 A 
ATOM     12  C   LIG    1        3.034  -2.778  -4.029  0.00  0.00    -0.070 A 
ATOM     13  C   LIG    1        1.840  -2.777  -4.648  0.00  0.00    +0.180 A 
ATOM     14  O   LIG    1        0.894  -2.463  -3.747  0.00  0.00    -0.170 OA
ENDBRANCH   9  10
ENDBRANCH   8   9
ENDBRANCH   7   8
ENDBRANCH   6   7
ENDBRANCH   5   6
ENDBRANCH   3   5
BRANCH   2  15
ATOM     15  C   LIG    1       -1.358   5.651   2.306  0.00  0.00    +0.340 C 
BRANCH  15  16
ATOM     16  N   LIG    1       -2.044   6.124   3.511  0.00  0.00    -0.560 N 
ATOM     17  C   LIG    1       -1.404   6.369   4.663  0.00  0.00    +0.530 C 
ATOM     18  C   LIG    1       -2.404   6.919   5.674  0.00  0.00    +0.020 C 
ATOM     19  C   LIG    1       -1.994   8.339   6.008  0.00  0.00    +0.040 C 
ATOM     20  C   LIG    1       -3.167   9.246   6.314  0.00  0.00    +0.020 C 
ATOM     21  C   LIG    1       -4.119   9.239   5.111  0.00  0.00    +0.020 C 
ATOM     22  C   LIG    1       -4.740   7.849   5.022  0.00  0.00    +0.060 C 
ATOM     23  C   LIG    1       -3.727   6.752   4.962  0.00  0.00    +0.000 C 
ATOM     24  O   LIG    1       -0.223   6.183   4.867  0.00  0.00    -0.470 OA
ATOM     25  C   LIG    1       -3.367   6.354   3.554  0.00  0.00    +0.540 C 
ATOM     26  O   LIG    1       -4.136   6.256   2.622  0.00  0.00    -0.470 OA
ENDBRANCH  15  16
ENDBRANCH   2  15
TORSDOF 8
