REMARK  Name = ZINCb80000003WvW.0
REMARK                            x       y       z     vdW  Elec       q    Type
REMARK                         _______ _______ _______ _____ _____    ______ ____
ROOT
ATOM      1  O   LIG    1        4.206  -1.545   0.355  0.00  0.00    -0.470 OA
ATOM      2  C   LIG    1        3.798  -0.406   0.284  0.00  0.00    +0.540 C 
ATOM      3  N   LIG    1        4.528   0.706   0.007  0.00  0.00    -0.700 N 
ATOM      4  H   LIG    1        5.498   0.719   0.008  0.00  0.00    +0.420 HD
ATOM      5  C   LIG    1        3.768   1.798  -0.269  0.00  0.00    +0.540 C 
ATOM      6  C   LIG    1        2.370   1.296  -0.467  0.00  0.00    +0.000 C 
ATOM      7  C   LIG    1        1.223   2.166   0.002  0.00  0.00    +0.110 C 
ATOM      8  C   LIG    1       -0.015   1.295   0.009  0.00  0.00    -0.040 C 
ATOM      9  C   LIG    1        0.002  -0.004   0.002  0.00  0.00    -0.040 C 
ATOM     10  C   LIG    1        1.263  -0.842   0.011  0.00  0.00    +0.110 C 
ATOM     11  O   LIG    1        4.146   2.947  -0.341  0.00  0.00    -0.470 OA
ATOM     12  C   LIG    1        2.386   0.058   0.482  0.00  0.00    +0.000 C 
ENDROOT
TORSDOF 0
