REMARK  Name = ZINCvU00000005fl.0
REMARK                            x       y       z     vdW  Elec       q    Type
REMARK                         _______ _______ _______ _____ _____    ______ ____
ROOT
ATOM      1  C   LIG    1       -1.122  -2.051   0.038  0.00  0.00    +0.360 A 
ATOM      2  N   LIG    1       -1.137  -0.741   0.047  0.00  0.00    -0.530 NA
ATOM      3  C   LIG    1        0.009  -0.021   0.049  0.00  0.00    +0.160 A 
ATOM      4  C   LIG    1       -0.006   1.377   0.058  0.00  0.00    +0.030 A 
ATOM      5  C   LIG    1        1.183   2.071   0.060  0.00  0.00    +0.060 A 
ATOM      6  C   LIG    1        2.399   1.401   0.053  0.00  0.00    -0.010 A 
ATOM      7  C   LIG    1        2.441   0.024   0.043  0.00  0.00    +0.100 A 
ATOM      8  C   LIG    1        1.250  -0.700   0.041  0.00  0.00    -0.190 A 
ATOM      9  C   LIG    1        1.236  -2.169   0.032  0.00  0.00    +0.560 A 
ATOM     10  O   LIG    1        2.271  -2.809   0.026  0.00  0.00    -0.490 OA
ATOM     11  N   LIG    1        0.030  -2.784   0.031  0.00  0.00    -0.520 N 
ENDROOT
BRANCH   1  12
ATOM     12  S   LIG    1       -2.662  -2.908   0.037  0.00  0.00    +0.070 S 
BRANCH  12  14
ATOM     13  C   LIG    1       -3.655  -0.715  -1.254  0.00  0.00    +0.090 C 
ATOM     14  C   LIG    1       -3.803  -1.503   0.049  0.00  0.00    +0.020 C 
BRANCH  14  15
ATOM     15  C   LIG    1       -5.218  -2.007   0.173  0.00  0.00    +0.540 C 
ATOM     16  N   LIG    1       -6.192  -1.180   0.602  0.00  0.00    -0.660 N 
ATOM     17  H   LIG    1       -5.973  -0.281   0.892  0.00  0.00    +0.420 HD
ATOM     18  O   LIG    1       -5.480  -3.156  -0.112  0.00  0.00    -0.500 OA
BRANCH  16  19
ATOM     19  C   LIG    1       -7.521  -1.619   0.629  0.00  0.00    +0.170 A 
ATOM     20  C   LIG    1       -7.811  -2.943   0.928  0.00  0.00    +0.060 A 
ATOM     21  C   LIG    1       -9.124  -3.373   0.954  0.00  0.00    -0.010 A 
ATOM     22  C   LIG    1      -10.150  -2.485   0.681  0.00  0.00    +0.040 A 
ATOM     23  C   LIG    1       -9.865  -1.166   0.382  0.00  0.00    +0.070 A 
ATOM     24 CL   LIG    1       -9.488  -5.029   1.328  0.00  0.00    -0.050 Cl
ATOM     25  C   LIG    1       -8.554  -0.728   0.361  0.00  0.00    -0.060 A 
ATOM     26 CL   LIG    1       -8.198   0.930  -0.008  0.00  0.00    -0.050 Cl
ENDBRANCH  16  19
ENDBRANCH  14  15
ENDBRANCH  12  14
ENDBRANCH   1  12
BRANCH  11  27
ATOM     27  C   LIG    1       -0.039  -4.247   0.021  0.00  0.00    +0.310 C 
BRANCH  27  28
ATOM     28  C   LIG    1       -0.059  -4.766   1.460  0.00  0.00    +0.140 C 
ATOM     29  C   LIG    1       -0.060  -6.316   1.473  0.00  0.00    +0.020 C 
ATOM     30  C   LIG    1        0.556  -6.599   2.870  0.00  0.00    +0.020 C 
ATOM     31  C   LIG    1        1.557  -5.435   3.030  0.00  0.00    +0.190 C 
ATOM     32  O   LIG    1        1.146  -4.386   2.144  0.00  0.00    -0.370 OA
ENDBRANCH  27  28
ENDBRANCH  11  27
TORSDOF 6
