REMARK  Name = ZINCtV00000L6jWO.0
REMARK                            x       y       z     vdW  Elec       q    Type
REMARK                         _______ _______ _______ _____ _____    ______ ____
ROOT
ATOM      1  P   LIG    1       -1.174  -2.359   0.000  0.00  0.00    +2.660 P 
ATOM      2  C   LIG    1       -0.431  -2.974  -1.553  0.00  0.00    -0.710 C 
ATOM      3  C   LIG    1       -1.111  -3.934  -2.188  0.00  0.00    +0.220 C 
ATOM      4  O   LIG    1       -2.258  -4.462  -1.754  0.00  0.00    -0.270 OA
ATOM      5  C   LIG    1       -3.146  -3.971  -0.887  0.00  0.00    +0.230 C 
ATOM      6  O   LIG    1       -0.421  -2.867   1.168  0.00  0.00    -1.010 OA
ATOM      7  C   LIG    1       -2.880  -3.017   0.012  0.00  0.00    -0.730 C 
ENDROOT
BRANCH   5   8
ATOM      8  C   LIG    1       -4.521  -4.519  -0.923  0.00  0.00    -0.080 A 
ATOM      9  C   LIG    1       -5.487  -4.045  -0.036  0.00  0.00    +0.050 A 
ATOM     10  C   LIG    1       -6.768  -4.556  -0.079  0.00  0.00    +0.010 A 
ATOM     11  C   LIG    1       -7.092  -5.544  -0.991  0.00  0.00    +0.030 A 
ATOM     12  C   LIG    1       -6.136  -6.022  -1.870  0.00  0.00    +0.010 A 
ATOM     13  C   LIG    1       -4.853  -5.515  -1.841  0.00  0.00    +0.050 A 
ENDBRANCH   5   8
BRANCH   3  14
ATOM     14  C   LIG    1       -0.554  -4.448  -3.459  0.00  0.00    -0.070 A 
ATOM     15  C   LIG    1        0.639  -3.928  -3.962  0.00  0.00    +0.050 A 
ATOM     16  C   LIG    1        1.157  -4.415  -5.144  0.00  0.00    +0.010 A 
ATOM     17  C   LIG    1        0.489  -5.409  -5.838  0.00  0.00    +0.030 A 
ATOM     18  C   LIG    1       -0.697  -5.925  -5.347  0.00  0.00    +0.010 A 
ATOM     19  C   LIG    1       -1.222  -5.450  -4.163  0.00  0.00    +0.040 A 
ENDBRANCH   3  14
BRANCH   1  20
ATOM     20  N   LIG    1       -1.197  -0.720   0.009  0.00  0.00    -1.110 N 
ATOM     21  H   LIG    1       -2.044  -0.247   0.019  0.00  0.00    +0.410 HD
BRANCH  20  26
ATOM     22  C   LIG    1        1.177   2.091   0.002  0.00  0.00    +0.250 A 
ATOM     23  C   LIG    1        2.388   1.407  -0.014  0.00  0.00    -0.110 A 
ATOM     24  C   LIG    1        2.403   0.026  -0.021  0.00  0.00    +0.100 A 
ATOM     25  C   LIG    1        1.216  -0.681  -0.013  0.00  0.00    -0.110 A 
ATOM     26  C   LIG    1        0.002  -0.004   0.002  0.00  0.00    +0.230 A 
ATOM     27  C   LIG    1       -0.017   1.383   0.010  0.00  0.00    -0.120 A 
BRANCH  22  29
ATOM     28  C   LIG    1       -0.113   4.206   0.026  0.00  0.00    +0.260 C 
ATOM     29  N   LIG    1        1.163   3.487   0.010  0.00  0.00    -0.640 N 
ATOM     30  C   LIG    1        2.424   4.233   0.002  0.00  0.00    +0.280 C 
ENDBRANCH  22  29
ENDBRANCH  20  26
ENDBRANCH   1  20
TORSDOF 5
