REMARK  Name = ZINCrg000000ozZs.0
REMARK                            x       y       z     vdW  Elec       q    Type
REMARK                         _______ _______ _______ _____ _____    ______ ____
ROOT
ATOM      1  N   LIG    1       -0.004  -0.005   0.011  0.00  0.00    -0.460 N 
ATOM      2  C   LIG    1       -1.013  -0.681  -0.587  0.00  0.00    +0.470 A 
ATOM      3  C   LIG    1       -1.023  -2.038  -0.627  0.00  0.00    -0.150 A 
ATOM      4  C   LIG    1        0.017  -2.764  -0.048  0.00  0.00    +0.270 A 
ATOM      5  C   LIG    1        1.059  -2.075   0.569  0.00  0.00    -0.250 A 
ATOM      6  C   LIG    1        1.028  -0.656   0.581  0.00  0.00    +0.550 A 
ATOM      7  O   LIG    1        1.930  -0.029   1.110  0.00  0.00    -0.510 OA
ENDROOT
BRANCH   5   8
ATOM      8  C   LIG    1        2.174  -2.804   1.192  0.00  0.00    +0.590 C 
ATOM      9  O   LIG    1        2.141  -4.018   1.265  0.00  0.00    -0.540 OA
ATOM     10  N   LIG    1        3.232  -2.128   1.681  0.00  0.00    -0.840 N 
ATOM     11  H   LIG    1        4.000  -2.611   2.024  0.00  0.00    +0.400 HD
ATOM     12  H   LIG    1        3.226  -1.158   1.689  0.00  0.00    +0.410 HD
ENDBRANCH   5   8
BRANCH   3  13
ATOM     13  N   LIG    1       -2.141  -2.749  -1.289  0.00  0.00    +0.050 N 
ATOM     14  O   LIG    1       -2.151  -3.966  -1.326  0.00  0.00    -0.140 OA
ATOM     15  O   LIG    1       -3.050  -2.116  -1.796  0.00  0.00    -0.160 OA
ENDBRANCH   3  13
BRANCH   1  16
ATOM     16  C   LIG    1       -0.032   1.460   0.033  0.00  0.00    +0.350 C 
BRANCH  16  18
ATOM     17  N   LIG    1       -0.897   3.250   1.505  0.00  0.00    -0.600 N 
ATOM     18  C   LIG    1       -0.749   1.930   1.272  0.00  0.00    +0.500 C 
ATOM     19  O   LIG    1       -1.194   1.122   2.059  0.00  0.00    -0.520 OA
ATOM     20  C   LIG    1       -0.360   4.226   0.554  0.00  0.00    +0.290 C 
BRANCH  17  21
ATOM     21  C   LIG    1       -1.595   3.707   2.709  0.00  0.00    +0.350 C 
BRANCH  21  25
ATOM     22  C   LIG    1        1.217   4.188   5.888  0.00  0.00    -0.070 A 
ATOM     23  C   LIG    1        0.939   5.248   5.045  0.00  0.00    +0.000 A 
ATOM     24  C   LIG    1        0.029   5.092   4.016  0.00  0.00    +0.020 A 
ATOM     25  C   LIG    1       -0.603   3.877   3.830  0.00  0.00    -0.120 A 
ATOM     26  C   LIG    1       -0.330   2.819   4.677  0.00  0.00    +0.030 A 
ATOM     27  C   LIG    1        0.584   2.973   5.703  0.00  0.00    +0.000 A 
BRANCH  22  29
ATOM     28  C   LIG    1        1.480   4.835   8.268  0.00  0.00    +0.030 C 
ATOM     29  C   LIG    1        2.209   4.358   7.010  0.00  0.00    +0.050 C 
ENDBRANCH  22  29
ENDBRANCH  21  25
ENDBRANCH  17  21
ENDBRANCH  16  18
ENDBRANCH   1  16
TORSDOF 7
