REMARK  Name = ZINCpe000000Ywep.0
REMARK                            x       y       z     vdW  Elec       q    Type
REMARK                         _______ _______ _______ _____ _____    ______ ____
ROOT
ATOM      1  C   LIG    1       -6.492   6.200  -3.236  0.00  0.00    +0.220 C 
ENDROOT
BRANCH   1   2
ATOM      2  O   LIG    1       -7.196   4.984  -2.976  0.00  0.00    -0.540 OA
ATOM      3  H   LIG    1       -7.659   4.971  -2.127  0.00  0.00    +0.370 HD
ENDBRANCH   1   2
BRANCH   1   4
ATOM      4  C   LIG    1       -7.479   7.369  -3.242  0.00  0.00    +0.170 C 
BRANCH   4   5
ATOM      5  O   LIG    1       -8.389   7.219  -4.333  0.00  0.00    -0.300 OA
BRANCH   5   9
ATOM      6  C   LIG    1      -11.272  10.139  -4.787  0.00  0.00    -0.070 A 
ATOM      7  C   LIG    1      -11.216   9.065  -5.679  0.00  0.00    +0.110 A 
ATOM      8  C   LIG    1      -10.253   8.093  -5.524  0.00  0.00    -0.010 A 
ATOM      9  C   LIG    1       -9.337   8.179  -4.483  0.00  0.00    +0.160 A 
ATOM     10  C   LIG    1       -9.392   9.243  -3.590  0.00  0.00    -0.070 A 
ATOM     11  C   LIG    1      -10.348  10.223  -3.741  0.00  0.00    +0.110 A 
BRANCH   6  13
ATOM     12  N   LIG    1      -13.064  11.956  -5.069  0.00  0.00    -0.420 NA
ATOM     13  C   LIG    1      -12.271  11.152  -4.944  0.00  0.00    +0.250 C 
ENDBRANCH   6  13
ENDBRANCH   5   9
ENDBRANCH   4   5
ENDBRANCH   1   4
BRANCH   1  14
ATOM     14  C   LIG    1       -5.443   6.425  -2.145  0.00  0.00    +0.170 C 
BRANCH  14  15
ATOM     15  N   LIG    1       -4.428   5.365  -2.217  0.00  0.00    -0.520 NA
ATOM     16  C   LIG    1       -3.654   5.461  -3.463  0.00  0.00    +0.150 C 
ATOM     17  C   LIG    1       -2.650   4.306  -3.525  0.00  0.00    +0.230 C 
ATOM     18  O   LIG    1       -1.815   4.345  -2.364  0.00  0.00    -0.380 OA
ATOM     19  C   LIG    1       -2.537   4.253  -1.133  0.00  0.00    +0.170 C 
ATOM     20  C   LIG    1       -3.539   5.407  -1.047  0.00  0.00    +0.170 C 
BRANCH  19  21
ATOM     21  C   LIG    1       -1.558   4.338   0.040  0.00  0.00    +0.340 C 
BRANCH  21  22
ATOM     22  N   LIG    1       -0.675   3.169   0.025  0.00  0.00    -0.370 N 
ATOM     23  C   LIG    1        0.674   3.192   0.013  0.00  0.00    +0.230 A 
ATOM     24  C   LIG    1        1.109   1.911   0.002  0.00  0.00    -0.130 A 
ATOM     25  C   LIG    1       -0.013   1.076   0.008  0.00  0.00    +0.230 A 
ATOM     26  N   LIG    1       -1.083   1.829   0.017  0.00  0.00    -0.300 NA
ENDBRANCH  21  22
ENDBRANCH  19  21
ENDBRANCH  14  15
ENDBRANCH   1  14
TORSDOF 9
