REMARK  Name = ZINCqH00000380lm.0
REMARK                            x       y       z     vdW  Elec       q    Type
REMARK                         _______ _______ _______ _____ _____    ______ ____
ROOT
ATOM      1  C   LIG    1       -3.934  -1.010   1.149  0.00  0.00    +0.600 C 
ATOM      2  N   LIG    1       -3.539  -0.700   2.400  0.00  0.00    -0.610 N 
ATOM      3  C   LIG    1       -3.518  -1.724   3.453  0.00  0.00    +0.260 C 
ATOM      4  C   LIG    1       -4.362  -1.231   4.635  0.00  0.00    +0.290 C 
ATOM      5  N   LIG    1       -3.945   0.138   4.970  0.00  0.00    -0.610 N 
ATOM      6  C   LIG    1       -3.972   1.164   3.918  0.00  0.00    +0.280 C 
ATOM      7  C   LIG    1       -3.551   0.448   6.221  0.00  0.00    +0.560 C 
ATOM      8  O   LIG    1       -3.661  -0.368   7.111  0.00  0.00    -0.530 OA
ATOM      9  C   LIG    1       -3.122   0.669   2.735  0.00  0.00    +0.290 C 
ATOM     10  O   LIG    1       -3.854  -0.180   0.263  0.00  0.00    -0.520 OA
ENDROOT
BRANCH   1  15
ATOM     11  C   LIG    1       -4.973  -6.269   0.475  0.00  0.00    +0.140 C 
ATOM     12  C   LIG    1       -4.933  -4.764   0.549  0.00  0.00    -0.200 A 
ATOM     13  C   LIG    1       -5.912  -3.958   0.124  0.00  0.00    +0.000 A 
ATOM     14  C   LIG    1       -5.672  -2.614   0.285  0.00  0.00    +0.090 A 
ATOM     15  C   LIG    1       -4.460  -2.346   0.857  0.00  0.00    -0.270 A 
ATOM     16  S   LIG    1       -3.628  -3.862   1.178  0.00  0.00    +0.210 S 
ENDBRANCH   1  15
BRANCH   7  17
ATOM     17  C   LIG    1       -2.968   1.807   6.512  0.00  0.00    -0.130 C 
ATOM     18  C   LIG    1       -3.229   2.406   7.895  0.00  0.00    +0.090 C 
ATOM     19  C   LIG    1       -3.942   2.976   6.667  0.00  0.00    +0.060 C 
BRANCH  17  20
ATOM     20  C   LIG    1       -1.635   2.093   5.870  0.00  0.00    -0.030 A 
ATOM     21  C   LIG    1       -1.330   3.374   5.451  0.00  0.00    +0.020 A 
ATOM     22  C   LIG    1       -0.105   3.638   4.866  0.00  0.00    +0.040 A 
ATOM     23  C   LIG    1        0.811   2.619   4.692  0.00  0.00    +0.030 A 
ATOM     24  C   LIG    1        0.505   1.335   5.107  0.00  0.00    -0.030 A 
ATOM     25 CL   LIG    1        1.657   0.054   4.888  0.00  0.00    -0.060 Cl
ATOM     26  C   LIG    1       -0.718   1.073   5.697  0.00  0.00    +0.030 A 
ENDBRANCH  17  20
ENDBRANCH   7  17
TORSDOF 3
