REMARK  Name = ZINCbu0000000GwB.0
REMARK                            x       y       z     vdW  Elec       q    Type
REMARK                         _______ _______ _______ _____ _____    ______ ____
ROOT
ATOM      1  C   LIG    1        0.718  -0.497  -1.257  0.00  0.00    +0.000 C 
ATOM      2  C   LIG    1       -0.031  -0.062  -2.429  0.00  0.00    +0.030 C 
ATOM      3  C   LIG    1        0.609  -0.555  -3.745  0.00  0.00    +0.060 C 
ATOM      4  C   LIG    1        1.786   0.328  -4.058  0.00  0.00    +0.250 C 
ATOM      5  N   LIG    1        3.067  -0.217  -3.560  0.00  0.00    -0.510 N 
ATOM      6  C   LIG    1        2.983  -0.794  -2.201  0.00  0.00    +0.260 C 
ATOM      7  H   LIG    1        3.378  -0.936  -4.196  0.00  0.00    +0.430 HD
ATOM      8  H   LIG    1        3.752   0.524  -3.553  0.00  0.00    +0.430 HD
ATOM      9  C   LIG    1        2.165   0.044  -1.255  0.00  0.00    +0.060 C 
ENDROOT
BRANCH   1  11
ATOM     10  C   LIG    1       -0.019   1.526   0.010  0.00  0.00    +0.020 C 
ATOM     11  C   LIG    1        0.002  -0.004   0.002  0.00  0.00    -0.060 C 
ATOM     12  C   LIG    1       -1.433  -0.534   0.013  0.00  0.00    +0.030 C 
ATOM     13  C   LIG    1        0.742  -0.511   1.242  0.00  0.00    +0.030 C 
ENDBRANCH   1  11
TORSDOF 1
