REMARK  Name = ZINCvU0000000DWT.0
REMARK                            x       y       z     vdW  Elec       q    Type
REMARK                         _______ _______ _______ _____ _____    ______ ____
ROOT
ATOM      1  C   LIG    1        3.778   1.359  -0.925  0.00  0.00    -0.260 A 
ATOM      2  C   LIG    1        4.700   0.333  -1.022  0.00  0.00    +0.340 A 
ATOM      3  N   LIG    1        4.210  -0.724  -0.353  0.00  0.00    -0.360 N 
ATOM      4  N   LIG    1        2.965  -0.400   0.194  0.00  0.00    -0.280 NA
ATOM      5  C   LIG    1        2.662   0.838  -0.127  0.00  0.00    +0.160 A 
ENDROOT
BRANCH   1  10
ATOM      6  N   LIG    1        7.348   3.762  -0.982  0.00  0.00    -0.510 N 
ATOM      7  C   LIG    1        6.328   2.935  -0.826  0.00  0.00    +0.550 C 
ATOM      8  C   LIG    1        5.089   3.348  -1.490  0.00  0.00    -0.300 C 
ATOM      9  S   LIG    1        5.511   4.881  -2.278  0.00  0.00    +0.120 S 
ATOM     10  C   LIG    1        3.893   2.703  -1.503  0.00  0.00    +0.320 C 
ATOM     11  O   LIG    1        6.412   1.907  -0.179  0.00  0.00    -0.460 OA
ATOM     12  C   LIG    1        7.188   4.877  -1.705  0.00  0.00    +0.270 C 
ATOM     13  S   LIG    1        8.378   6.066  -2.023  0.00  0.00    -0.370 S 
BRANCH   6  15
ATOM     14  C   LIG    1        9.492   2.642  -1.341  0.00  0.00    +0.050 C 
ATOM     15  C   LIG    1        8.643   3.461  -0.367  0.00  0.00    +0.290 C 
ENDBRANCH   6  15
ENDBRANCH   1  10
BRANCH   5  16
ATOM     16  C   LIG    1        1.430   1.569   0.249  0.00  0.00    -0.020 A 
ATOM     17  C   LIG    1        0.213   0.891   0.331  0.00  0.00    +0.050 A 
ATOM     18  C   LIG    1       -0.933   1.573   0.676  0.00  0.00    +0.020 A 
ATOM     19  C   LIG    1       -0.875   2.939   0.954  0.00  0.00    -0.030 A 
ATOM     20  C   LIG    1        0.341   3.616   0.872  0.00  0.00    +0.020 A 
ATOM     21  C   LIG    1        1.487   2.936   0.522  0.00  0.00    +0.040 A 
BRANCH  19  22
ATOM     22  C   LIG    1       -2.108   3.671   1.331  0.00  0.00    -0.050 A 
ATOM     23  C   LIG    1       -2.054   5.036   1.610  0.00  0.00    +0.020 A 
ATOM     24  C   LIG    1       -3.205   5.713   1.955  0.00  0.00    +0.010 A 
ATOM     25  C   LIG    1       -4.410   5.038   2.034  0.00  0.00    +0.000 A 
ATOM     26  C   LIG    1       -4.469   3.683   1.764  0.00  0.00    +0.010 A 
ATOM     27  C   LIG    1       -3.325   2.996   1.413  0.00  0.00    +0.020 A 
ENDBRANCH  19  22
ENDBRANCH   5  16
BRANCH   3  28
ATOM     28  C   LIG    1        4.881  -2.019  -0.214  0.00  0.00    +0.350 C 
BRANCH  28  29
ATOM     29  C   LIG    1        5.007  -2.371   1.270  0.00  0.00    +0.210 C 
BRANCH  29  30
ATOM     30  C   LIG    1        5.682  -3.672   1.410  0.00  0.00    +0.200 C 
ATOM     31  N   LIG    1        6.202  -4.676   1.518  0.00  0.00    -0.410 NA
ENDBRANCH  29  30
ENDBRANCH  28  29
ENDBRANCH   3  28
TORSDOF 7
