REMARK  Name = ZINCpk00000y6mG2.0
REMARK                            x       y       z     vdW  Elec       q    Type
REMARK                         _______ _______ _______ _____ _____    ______ ____
ROOT
ATOM      1  C   LIG    1       -0.175  -4.399   2.772  0.00  0.00    -0.130 C 
ATOM      2  C   LIG    1        0.774  -4.987   3.818  0.00  0.00    +0.100 C 
ATOM      3  C   LIG    1       -0.254  -5.885   3.125  0.00  0.00    +0.070 C 
ENDROOT
BRANCH   1   4
ATOM      4  C   LIG    1       -1.286  -3.507   3.265  0.00  0.00    -0.030 A 
ATOM      5  C   LIG    1       -2.293  -4.032   4.053  0.00  0.00    +0.050 A 
ATOM      6  C   LIG    1       -3.312  -3.217   4.511  0.00  0.00    +0.080 A 
ATOM      7  C   LIG    1       -3.331  -1.874   4.172  0.00  0.00    +0.030 A 
ATOM      8  O   LIG    1       -4.208  -0.875   4.482  0.00  0.00    -0.290 OA
ATOM      9  C   LIG    1       -3.946   0.175   3.532  0.00  0.00    +0.570 C 
ATOM     10  O   LIG    1       -2.563  -0.017   3.182  0.00  0.00    -0.280 OA
ATOM     11  F   LIG    1       -4.135   1.430   4.120  0.00  0.00    -0.110 F 
ATOM     12  F   LIG    1       -4.762   0.031   2.404  0.00  0.00    -0.150 F 
ATOM     13  C   LIG    1       -2.320  -1.347   3.373  0.00  0.00    +0.040 A 
ATOM     14  C   LIG    1       -1.299  -2.168   2.922  0.00  0.00    +0.070 A 
ENDBRANCH   1   4
BRANCH   1  17
ATOM     15  N   LIG    1       -0.390  -3.957   0.348  0.00  0.00    -0.720 N 
ATOM     16  H   LIG    1       -1.323  -4.216   0.413  0.00  0.00    +0.410 HD
ATOM     17  C   LIG    1        0.407  -4.031   1.432  0.00  0.00    +0.560 C 
ATOM     18  O   LIG    1        1.594  -3.803   1.329  0.00  0.00    -0.520 OA
BRANCH  15  19
ATOM     19  C   LIG    1        0.151  -3.484  -0.928  0.00  0.00    +0.360 C 
BRANCH  19  23
ATOM     20  O   LIG    1       -2.804  -1.350  -4.010  0.00  0.00    -0.530 OA
ATOM     21  C   LIG    1       -2.389  -2.374  -3.492  0.00  0.00    +0.520 A 
ATOM     22  C   LIG    1       -1.369  -2.327  -2.520  0.00  0.00    -0.100 A 
ATOM     23  C   LIG    1       -0.938  -3.496  -1.971  0.00  0.00    +0.160 A 
ATOM     24  N   LIG    1       -1.480  -4.653  -2.357  0.00  0.00    -0.530 NA
ATOM     25  C   LIG    1       -2.426  -4.697  -3.258  0.00  0.00    +0.590 A 
ATOM     26  N   LIG    1       -2.896  -3.576  -3.839  0.00  0.00    -0.630 N 
ATOM     27  H   LIG    1       -3.599  -3.633  -4.506  0.00  0.00    +0.420 HD
ENDBRANCH  19  23
ENDBRANCH  15  19
ENDBRANCH   1  17
TORSDOF 4
