REMARK  Name = ZINCrg00000xgnod.0
REMARK                            x       y       z     vdW  Elec       q    Type
REMARK                         _______ _______ _______ _____ _____    ______ ____
ROOT
ATOM      1  C   LIG    1        5.011   3.242  -0.842  0.00  0.00    +0.520 C 
ATOM      2  N   LIG    1        3.895   2.825  -0.211  0.00  0.00    -0.710 N 
ATOM      3  H   LIG    1        3.501   3.368   0.489  0.00  0.00    +0.400 HD
ATOM      4  O   LIG    1        5.503   2.562  -1.717  0.00  0.00    -0.520 OA
ENDROOT
BRANCH   2   5
ATOM      5  C   LIG    1        3.278   1.549  -0.582  0.00  0.00    +0.230 C 
ATOM      6  C   LIG    1        2.443   0.917   0.545  0.00  0.00    +0.030 C 
ATOM      7  C   LIG    1        1.248   1.716  -0.001  0.00  0.00    +0.240 C 
ATOM      8  C   LIG    1        1.961   1.707  -1.363  0.00  0.00    -0.010 C 
BRANCH   7   9
ATOM      9  N   LIG    1       -0.011   0.966   0.007  0.00  0.00    -0.740 N 
ATOM     10  H   LIG    1        0.002  -0.004   0.002  0.00  0.00    +0.390 HD
ATOM     11  C   LIG    1       -1.187   1.624   0.017  0.00  0.00    +0.610 C 
ATOM     12  O   LIG    1       -1.204   2.842   0.023  0.00  0.00    -0.640 OA
BRANCH  11  13
ATOM     13  C   LIG    1       -2.392   0.906   0.018  0.00  0.00    -1.290 C 
ATOM     14  P   LIG    1       -3.800   1.694   0.029  0.00  0.00    +2.860 P 
ATOM     15  C   LIG    1       -5.169   0.491   0.029  0.00  0.00    -0.510 C 
ATOM     16  C   LIG    1       -3.918   2.749  -1.453  0.00  0.00    -0.490 C 
BRANCH  14  17
ATOM     17  O   LIG    1       -3.892   2.611   1.349  0.00  0.00    -0.870 OA
ATOM     18  H   LIG    1       -3.836   2.115   2.178  0.00  0.00    +0.440 HD
ENDBRANCH  14  17
ENDBRANCH  11  13
ENDBRANCH   7   9
ENDBRANCH   2   5
BRANCH   1  19
ATOM     19  C   LIG    1        5.645   4.555  -0.460  0.00  0.00    +0.170 C 
ATOM     20  C   LIG    1        6.449   5.096  -1.644  0.00  0.00    +0.080 C 
ATOM     21  C   LIG    1        6.577   4.342   0.734  0.00  0.00    +0.060 C 
BRANCH  19  23
ATOM     22  C   LIG    1        4.936   6.765   0.279  0.00  0.00    +0.520 C 
ATOM     23  N   LIG    1        4.600   5.516  -0.099  0.00  0.00    -0.730 N 
ATOM     24  H   LIG    1        3.667   5.253  -0.132  0.00  0.00    +0.400 HD
ATOM     25  O   LIG    1        6.102   7.094   0.320  0.00  0.00    -0.500 OA
BRANCH  22  26
ATOM     26  C   LIG    1        3.861   7.754   0.651  0.00  0.00    +0.200 C 
BRANCH  26  27
ATOM     27  O   LIG    1        4.463   8.999   1.013  0.00  0.00    -0.350 OA
BRANCH  27  29
ATOM     28  C   LIG    1        2.712   9.536   2.590  0.00  0.00    +0.020 C 
ATOM     29  C   LIG    1        3.526  10.011   1.384  0.00  0.00    +0.110 C 
ATOM     30  C   LIG    1        2.584  10.290   0.211  0.00  0.00    +0.020 C 
ATOM     31  C   LIG    1        4.277  11.293   1.750  0.00  0.00    +0.070 C 
ENDBRANCH  27  29
ENDBRANCH  26  27
ENDBRANCH  22  26
ENDBRANCH  19  23
ENDBRANCH   1  19
TORSDOF 9
