REMARK  Name = ZINCpk00000wOqSZ.0
REMARK                            x       y       z     vdW  Elec       q    Type
REMARK                         _______ _______ _______ _____ _____    ______ ____
ROOT
ATOM      1  C   LIG    1       -0.513   1.424  -4.808  0.00  0.00    +0.500 C 
ATOM      2  N   LIG    1       -0.966   1.736  -3.578  0.00  0.00    -0.520 N 
ATOM      3  H   LIG    1       -1.761   2.283  -3.479  0.00  0.00    +0.430 HD
ATOM      4  O   LIG    1        0.481   0.741  -4.933  0.00  0.00    -0.510 OA
ENDROOT
BRANCH   1  13
ATOM      5  C   LIG    1       -0.913  -0.963  -7.551  0.00  0.00    +0.080 C 
ATOM      6  C   LIG    1       -1.230   0.463  -8.006  0.00  0.00    +0.170 C 
ATOM      7  C   LIG    1       -0.823   0.722  -9.466  0.00  0.00    +0.090 C 
ATOM      8  C   LIG    1        0.630   1.220  -9.274  0.00  0.00    +0.090 C 
ATOM      9  C   LIG    1        0.651   1.787  -7.873  0.00  0.00    +0.550 C 
ATOM     10  O   LIG    1        1.572   2.416  -7.396  0.00  0.00    -0.500 OA
ATOM     11  S   LIG    1       -2.983   0.937  -7.740  0.00  0.00    -0.230 S 
ATOM     12  C   LIG    1       -2.696   1.405  -5.983  0.00  0.00    +0.170 C 
ATOM     13  C   LIG    1       -1.242   1.923  -6.029  0.00  0.00    +0.270 C 
ATOM     14  N   LIG    1       -0.505   1.494  -7.223  0.00  0.00    -0.610 N 
ENDBRANCH   1  13
BRANCH   2  15
ATOM     15  N   LIG    1       -0.288   1.272  -2.443  0.00  0.00    -0.520 N 
ATOM     16  H   LIG    1        0.507   0.726  -2.543  0.00  0.00    +0.430 HD
ATOM     17  C   LIG    1       -0.742   1.585  -1.213  0.00  0.00    +0.520 C 
ATOM     18  O   LIG    1       -1.736   2.268  -1.088  0.00  0.00    -0.510 OA
BRANCH  17  19
ATOM     19  C   LIG    1       -0.013   1.086   0.008  0.00  0.00    +0.250 C 
BRANCH  19  20
ATOM     20  O   LIG    1       -0.682   1.547   1.184  0.00  0.00    -0.280 OA
BRANCH  20  21
ATOM     21  C   LIG    1       -0.149   1.182   2.380  0.00  0.00    +0.140 A 
ATOM     22  C   LIG    1        0.991   0.392   2.421  0.00  0.00    -0.070 A 
ATOM     23  C   LIG    1        1.534   0.028   3.637  0.00  0.00    +0.090 A 
ATOM     24  C   LIG    1        0.936   0.440   4.814  0.00  0.00    -0.130 A 
ATOM     25  C   LIG    1       -0.204   1.223   4.776  0.00  0.00    +0.090 A 
ATOM     26 BR   LIG    1        1.678  -0.066   6.478  0.00  0.00    -0.050 Br
ATOM     27  C   LIG    1       -0.747   1.595   3.561  0.00  0.00    +0.000 A 
ENDBRANCH  20  21
ENDBRANCH  19  20
ENDBRANCH  17  19
ENDBRANCH   2  15
TORSDOF 5
