REMARK  Name = ZINCrH000004phBl.0
REMARK                            x       y       z     vdW  Elec       q    Type
REMARK                         _______ _______ _______ _____ _____    ______ ____
ROOT
ATOM      1  N   LIG    1        3.425   1.724  -0.909  0.00  0.00    -0.730 N 
ATOM      2  H   LIG    1        3.318   2.672  -1.088  0.00  0.00    +0.400 HD
ATOM      3  C   LIG    1        4.435   1.040  -1.482  0.00  0.00    +0.520 C 
ATOM      4  O   LIG    1        4.569  -0.144  -1.259  0.00  0.00    -0.530 OA
ENDROOT
BRANCH   1   6
ATOM      5  C   LIG    1        3.070   0.998   1.399  0.00  0.00    +0.040 C 
ATOM      6  C   LIG    1        2.489   1.037  -0.016  0.00  0.00    +0.280 C 
BRANCH   6   7
ATOM      7  C   LIG    1        1.176   1.776   0.000  0.00  0.00    -0.090 A 
ATOM      8  C   LIG    1        1.158   3.158   0.008  0.00  0.00    +0.000 A 
ATOM      9  C   LIG    1       -0.048   3.828   0.025  0.00  0.00    +0.000 A 
ATOM     10  C   LIG    1       -1.245   3.125   0.037  0.00  0.00    -0.070 A 
ATOM     11  C   LIG    1       -2.525   3.919   0.072  0.00  0.00    +0.070 C 
ATOM     12  C   LIG    1       -3.706   3.051  -0.372  0.00  0.00    +0.020 C 
ATOM     13  C   LIG    1       -3.683   1.759   0.454  0.00  0.00    +0.020 C 
ATOM     14  C   LIG    1       -2.487   0.921   0.005  0.00  0.00    +0.080 C 
ATOM     15  C   LIG    1       -1.228   1.748   0.017  0.00  0.00    -0.070 A 
ATOM     16  C   LIG    1       -0.013   1.076   0.008  0.00  0.00    +0.010 A 
ENDBRANCH   6   7
ENDBRANCH   1   6
BRANCH   3  17
ATOM     17  C   LIG    1        5.398   1.747  -2.401  0.00  0.00    +0.050 C 
BRANCH  17  18
ATOM     18  C   LIG    1        6.440   0.751  -2.913  0.00  0.00    +0.310 C 
BRANCH  18  19
ATOM     19  N   LIG    1        7.377   1.438  -3.806  0.00  0.00    -0.750 N 
ATOM     20  H   LIG    1        7.269   2.385  -3.985  0.00  0.00    +0.390 HD
ATOM     21  C   LIG    1        8.387   0.754  -4.379  0.00  0.00    +0.700 C 
ATOM     22  N   LIG    1        9.248   1.386  -5.200  0.00  0.00    -0.740 N 
ATOM     23  H   LIG    1        9.140   2.334  -5.379  0.00  0.00    +0.390 HD
ATOM     24  O   LIG    1        8.521  -0.433  -4.154  0.00  0.00    -0.580 OA
BRANCH  22  25
ATOM     25  C   LIG    1       10.346   0.643  -5.823  0.00  0.00    +0.250 C 
ATOM     26  C   LIG    1       11.534   0.587  -4.861  0.00  0.00    +0.000 C 
ATOM     27  C   LIG    1       12.681  -0.190  -5.511  0.00  0.00    +0.010 C 
ATOM     28  C   LIG    1       13.104   0.512  -6.803  0.00  0.00    +0.000 C 
ATOM     29  C   LIG    1       11.915   0.568  -7.766  0.00  0.00    +0.020 C 
ATOM     30  C   LIG    1       10.769   1.345  -7.115  0.00  0.00    +0.010 C 
ENDBRANCH  22  25
ENDBRANCH  18  19
ENDBRANCH  17  18
ENDBRANCH   3  17
TORSDOF 6
