REMARK  Name = ZINCqH0000007jzw.0
REMARK                            x       y       z     vdW  Elec       q    Type
REMARK                         _______ _______ _______ _____ _____    ______ ____
ROOT
ATOM      1  C   LIG    1        4.673   4.291  -0.296  0.00  0.00    -0.110 A 
ATOM      2  C   LIG    1        5.900   3.644  -0.413  0.00  0.00    +0.050 A 
ATOM      3  C   LIG    1        7.068   4.382  -0.461  0.00  0.00    +0.030 A 
ATOM      4  C   LIG    1        7.028   5.763  -0.391  0.00  0.00    +0.050 A 
ATOM      5  C   LIG    1        5.819   6.423  -0.274  0.00  0.00    +0.050 A 
ATOM      6  C   LIG    1        4.631   5.697  -0.230  0.00  0.00    -0.090 A 
ENDROOT
BRANCH   1   9
ATOM      7  N   LIG    1        3.470   2.159  -0.215  0.00  0.00    -0.660 N 
ATOM      8  H   LIG    1        4.325   1.707  -0.155  0.00  0.00    +0.410 HD
ATOM      9  C   LIG    1        3.420   3.506  -0.245  0.00  0.00    +0.550 C 
ATOM     10  O   LIG    1        2.346   4.075  -0.231  0.00  0.00    -0.500 OA
BRANCH   7  14
ATOM     11  C   LIG    1        0.021  -0.093  -0.420  0.00  0.00    +0.310 A 
ATOM     12  C   LIG    1       -0.022   1.117   0.260  0.00  0.00    -0.020 A 
ATOM     13  C   LIG    1        1.125   1.887   0.340  0.00  0.00    +0.120 A 
ATOM     14  C   LIG    1        2.285   1.414  -0.270  0.00  0.00    +0.050 A 
ATOM     15  C   LIG    1        2.252   0.195  -0.932  0.00  0.00    +0.280 A 
ATOM     16  N   LIG    1        1.140  -0.512  -0.987  0.00  0.00    -0.520 NA
BRANCH  11  18
ATOM     17  C   LIG    1       -0.992  -2.090  -1.217  0.00  0.00    +0.260 C 
ATOM     18  O   LIG    1       -1.099  -0.856  -0.504  0.00  0.00    -0.310 OA
ENDBRANCH  11  18
ENDBRANCH   7  14
ENDBRANCH   1   9
BRANCH   6  19
ATOM     19  C   LIG    1        3.335   6.398  -0.111  0.00  0.00    +0.460 C 
ATOM     20  O   LIG    1        2.985   6.850   0.962  0.00  0.00    -0.440 OA
BRANCH  19  21
ATOM     21  C   LIG    1        2.466   6.548  -1.294  0.00  0.00    -0.150 A 
ATOM     22  C   LIG    1        2.822   5.952  -2.507  0.00  0.00    +0.090 A 
ATOM     23  C   LIG    1        2.005   6.092  -3.607  0.00  0.00    -0.030 A 
ATOM     24  C   LIG    1        0.835   6.832  -3.516  0.00  0.00    +0.130 A 
ATOM     25  C   LIG    1        0.478   7.430  -2.316  0.00  0.00    -0.020 A 
ATOM     26  F   LIG    1        0.040   6.971  -4.599  0.00  0.00    -0.130 F 
ATOM     27  C   LIG    1        1.286   7.293  -1.208  0.00  0.00    +0.110 A 
ENDBRANCH  19  21
ENDBRANCH   6  19
TORSDOF 5
