REMARK  Name = ZINCah0000002JCz.0
REMARK                            x       y       z     vdW  Elec       q    Type
REMARK                         _______ _______ _______ _____ _____    ______ ____
ROOT
ATOM      1  C   LIG    1       -0.801   1.617   1.229  0.00  0.00    +0.210 C 
ATOM      2  C   LIG    1       -0.013   1.086   0.008  0.00  0.00    +0.220 C 
ATOM      3  O   LIG    1       -0.767   1.591  -1.107  0.00  0.00    -0.300 OA
ATOM      4  C   LIG    1       -1.402   2.737  -0.737  0.00  0.00    +0.110 A 
ATOM      5  C   LIG    1       -1.940   3.753  -1.522  0.00  0.00    -0.010 A 
ATOM      6  C   LIG    1       -2.557   4.836  -0.929  0.00  0.00    +0.050 A 
ATOM      7  C   LIG    1       -2.646   4.922   0.448  0.00  0.00    -0.020 A 
ATOM      8  C   LIG    1       -2.110   3.918   1.235  0.00  0.00    +0.080 A 
ATOM      9  C   LIG    1       -1.491   2.838   0.646  0.00  0.00    -0.180 A 
ENDROOT
BRANCH   1  10
ATOM     10  O   LIG    1        0.085   1.982   2.289  0.00  0.00    -0.550 OA
ATOM     11  H   LIG    1        0.616   1.249   2.629  0.00  0.00    +0.380 HD
ENDBRANCH   1  10
TORSDOF 1
