REMARK  Name = ZINCvU0000000BYd.0
REMARK                            x       y       z     vdW  Elec       q    Type
REMARK                         _______ _______ _______ _____ _____    ______ ____
ROOT
ATOM      1  C   LIG    1       -2.549   5.353   0.104  0.00  0.00    +0.570 C 
ATOM      2  N   LIG    1       -3.728   5.997   0.006  0.00  0.00    -0.610 N 
ATOM      3  C   LIG    1       -4.992   5.248   0.009  0.00  0.00    +0.260 C 
ATOM      4  C   LIG    1       -5.901   5.827   1.104  0.00  0.00    +0.030 C 
ATOM      5  C   LIG    1       -6.063   7.333   0.880  0.00  0.00    +0.060 C 
ATOM      6  C   LIG    1       -4.697   8.015   0.978  0.00  0.00    -0.010 C 
ATOM      7  C   LIG    1       -3.775   7.461  -0.113  0.00  0.00    +0.300 C 
ATOM      8  O   LIG    1       -1.515   5.988   0.194  0.00  0.00    -0.530 OA
ENDROOT
BRANCH   1  12
ATOM      9  C   LIG    1       -2.452   1.066   0.075  0.00  0.00    +0.180 A 
ATOM     10  C   LIG    1       -3.068   1.777  -0.933  0.00  0.00    -0.100 A 
ATOM     11  C   LIG    1       -3.103   3.161  -0.928  0.00  0.00    +0.100 A 
ATOM     12  C   LIG    1       -2.511   3.882   0.103  0.00  0.00    -0.170 A 
ATOM     13  C   LIG    1       -1.850   3.155   1.185  0.00  0.00    +0.020 A 
ATOM     14  C   LIG    1       -1.237   3.827   2.249  0.00  0.00    +0.020 A 
ATOM     15  C   LIG    1       -0.631   3.111   3.239  0.00  0.00    +0.040 A 
ATOM     16  C   LIG    1       -0.613   1.720   3.207  0.00  0.00    +0.000 A 
ATOM     17  C   LIG    1       -1.201   1.035   2.186  0.00  0.00    +0.060 A 
ATOM     18  C   LIG    1       -1.829   1.740   1.148  0.00  0.00    -0.080 A 
BRANCH   9  20
ATOM     19  C   LIG    1       -3.083  -0.909  -1.081  0.00  0.00    +0.250 C 
ATOM     20  O   LIG    1       -2.440  -0.289   0.034  0.00  0.00    -0.310 OA
ENDBRANCH   9  20
ENDBRANCH   1  12
BRANCH   6  21
ATOM     21  C   LIG    1       -4.862   9.501   0.790  0.00  0.00    +0.530 C 
ATOM     22  N   LIG    1       -3.784  10.309   0.833  0.00  0.00    -0.670 N 
ATOM     23  H   LIG    1       -2.895   9.929   0.902  0.00  0.00    +0.420 HD
ATOM     24  O   LIG    1       -5.964   9.969   0.600  0.00  0.00    -0.510 OA
BRANCH  22  25
ATOM     25  C   LIG    1       -3.949  11.700   0.777  0.00  0.00    +0.150 A 
ATOM     26  C   LIG    1       -5.144  12.275   1.187  0.00  0.00    +0.070 A 
ATOM     27  C   LIG    1       -5.304  13.646   1.131  0.00  0.00    +0.030 A 
ATOM     28  C   LIG    1       -4.275  14.447   0.667  0.00  0.00    +0.090 A 
ATOM     29  C   LIG    1       -3.081  13.875   0.258  0.00  0.00    +0.030 A 
ATOM     30  F   LIG    1       -4.435  15.787   0.613  0.00  0.00    -0.130 F 
ATOM     31  C   LIG    1       -2.914  12.505   0.318  0.00  0.00    -0.040 A 
ATOM     32 CL   LIG    1       -1.415  11.790  -0.189  0.00  0.00    -0.050 Cl
ENDBRANCH  22  25
ENDBRANCH   6  21
TORSDOF 4
