REMARK  Name = ZINCqH0000037P0H.0
REMARK                            x       y       z     vdW  Elec       q    Type
REMARK                         _______ _______ _______ _____ _____    ______ ____
ROOT
ATOM      1  N   LIG    1        1.887   0.564  -3.224  0.00  0.00    -0.730 N 
ATOM      2  H   LIG    1        1.479   1.193  -2.609  0.00  0.00    +0.400 HD
ATOM      3  C   LIG    1        3.229   0.450  -3.280  0.00  0.00    +0.710 C 
ATOM      4  N   LIG    1        4.004   1.210  -2.481  0.00  0.00    -0.680 N 
ATOM      5  H   LIG    1        3.600   1.886  -1.914  0.00  0.00    +0.410 HD
ATOM      6  O   LIG    1        3.740  -0.339  -4.051  0.00  0.00    -0.570 OA
ENDROOT
BRANCH   4   7
ATOM      7  C   LIG    1        5.393   1.024  -2.469  0.00  0.00    +0.140 A 
ATOM      8  C   LIG    1        6.105   1.188  -1.288  0.00  0.00    +0.000 A 
ATOM      9  C   LIG    1        7.473   1.000  -1.274  0.00  0.00    -0.020 A 
ATOM     10  C   LIG    1        8.138   0.656  -2.444  0.00  0.00    +0.100 A 
ATOM     11  C   LIG    1        7.426   0.497  -3.626  0.00  0.00    +0.010 A 
ATOM     12  C   LIG    1        6.058   0.681  -3.638  0.00  0.00    +0.050 A 
BRANCH  10  13
ATOM     13  N   LIG    1        9.524   0.469  -2.432  0.00  0.00    -0.490 N 
ATOM     14  C   LIG    1        9.881  -0.861  -2.942  0.00  0.00    +0.180 C 
ATOM     15  C   LIG    1       11.403  -0.976  -3.051  0.00  0.00    +0.030 C 
ATOM     16  C   LIG    1       12.026  -0.755  -1.670  0.00  0.00    -0.030 C 
ATOM     17  C   LIG    1       11.600   0.617  -1.140  0.00  0.00    +0.030 C 
ATOM     18  C   LIG    1       13.551  -0.809  -1.782  0.00  0.00    +0.010 C 
ATOM     19  C   LIG    1       10.072   0.686  -1.087  0.00  0.00    +0.170 C 
ENDBRANCH  10  13
ENDBRANCH   4   7
BRANCH   1  20
ATOM     20  C   LIG    1        1.045  -0.262  -4.093  0.00  0.00    +0.260 C 
ATOM     21  C   LIG    1        0.810  -1.622  -3.432  0.00  0.00    +0.030 C 
BRANCH  20  22
ATOM     22  C   LIG    1       -0.298   0.436  -4.315  0.00  0.00    +0.130 C 
BRANCH  22  28
ATOM     23  C   LIG    1        0.713   5.297  -5.444  0.00  0.00    +0.150 C 
ATOM     24  C   LIG    1        0.361   3.839  -5.585  0.00  0.00    +0.080 A 
ATOM     25  N   LIG    1        0.101   3.218  -6.707  0.00  0.00    -0.290 NA
ATOM     26  N   LIG    1       -0.179   1.878  -6.411  0.00  0.00    -0.470 N 
ATOM     27  H   LIG    1       -0.406   1.187  -7.053  0.00  0.00    +0.440 HD
ATOM     28  C   LIG    1       -0.079   1.718  -5.075  0.00  0.00    +0.090 A 
ATOM     29  C   LIG    1        0.249   2.917  -4.540  0.00  0.00    -0.120 A 
ENDBRANCH  22  28
ENDBRANCH  20  22
ENDBRANCH   1  20
TORSDOF 5
