REMARK  Name = ZINCqH0000037P0H.1
REMARK                            x       y       z     vdW  Elec       q    Type
REMARK                         _______ _______ _______ _____ _____    ______ ____
ROOT
ATOM      1  N   LIG    1        0.032   3.769   0.606  0.00  0.00    -0.730 N 
ATOM      2  H   LIG    1        0.817   3.398   0.174  0.00  0.00    +0.400 HD
ATOM      3  C   LIG    1       -1.125   3.079   0.609  0.00  0.00    +0.710 C 
ATOM      4  N   LIG    1       -1.191   1.870   0.018  0.00  0.00    -0.690 N 
ATOM      5  H   LIG    1       -0.426   1.527  -0.471  0.00  0.00    +0.400 HD
ATOM      6  O   LIG    1       -2.110   3.545   1.151  0.00  0.00    -0.580 OA
ENDROOT
BRANCH   4   7
ATOM      7  C   LIG    1       -2.363   1.107   0.110  0.00  0.00    +0.140 A 
ATOM      8  C   LIG    1       -2.286  -0.277   0.192  0.00  0.00    +0.000 A 
ATOM      9  C   LIG    1       -3.441  -1.028   0.288  0.00  0.00    -0.020 A 
ATOM     10  C   LIG    1       -4.679  -0.401   0.291  0.00  0.00    +0.100 A 
ATOM     11  C   LIG    1       -4.756   0.983   0.204  0.00  0.00    +0.010 A 
ATOM     12  C   LIG    1       -3.601   1.735   0.113  0.00  0.00    +0.050 A 
BRANCH  10  13
ATOM     13  N   LIG    1       -5.849  -1.162   0.384  0.00  0.00    -0.490 N 
ATOM     14  C   LIG    1       -6.670  -0.730   1.522  0.00  0.00    +0.180 C 
ATOM     15  C   LIG    1       -8.003  -1.482   1.506  0.00  0.00    +0.030 C 
ATOM     16  C   LIG    1       -7.735  -2.987   1.588  0.00  0.00    -0.030 C 
ATOM     17  C   LIG    1       -6.839  -3.403   0.419  0.00  0.00    +0.030 C 
ATOM     18  C   LIG    1       -9.060  -3.748   1.513  0.00  0.00    +0.010 C 
ATOM     19  C   LIG    1       -5.540  -2.595   0.466  0.00  0.00    +0.170 C 
ENDBRANCH  10  13
ENDBRANCH   4   7
BRANCH   1  20
ATOM     20  C   LIG    1        0.104   5.081   1.254  0.00  0.00    +0.260 C 
ATOM     21  C   LIG    1        0.389   4.898   2.746  0.00  0.00    +0.020 C 
BRANCH  20  22
ATOM     22  C   LIG    1        1.227   5.903   0.618  0.00  0.00    +0.140 C 
BRANCH  22  26
ATOM     23  C   LIG    1        0.321   8.384  -3.736  0.00  0.00    +0.140 C 
ATOM     24  C   LIG    1        0.494   7.287  -2.717  0.00  0.00    +0.090 A 
ATOM     25  C   LIG    1        0.833   7.453  -1.417  0.00  0.00    -0.120 A 
ATOM     26  C   LIG    1        0.888   6.188  -0.822  0.00  0.00    +0.080 A 
ATOM     27  N   LIG    1        0.599   5.295  -1.734  0.00  0.00    -0.280 NA
ATOM     28  N   LIG    1        0.341   5.965  -2.937  0.00  0.00    -0.480 N 
ATOM     29  H   LIG    1        0.099   5.551  -3.780  0.00  0.00    +0.440 HD
ENDBRANCH  22  26
ENDBRANCH  20  22
ENDBRANCH   1  20
TORSDOF 5
