REMARK  Name = ZINCqH00000085S9.0
REMARK                            x       y       z     vdW  Elec       q    Type
REMARK                         _______ _______ _______ _____ _____    ______ ____
ROOT
ATOM      1  C   LIG    1       -0.754   1.590  -1.232  0.00  0.00    +0.150 C 
ENDROOT
BRANCH   1   2
ATOM      2  C   LIG    1       -0.053   1.097  -2.471  0.00  0.00    +0.450 A 
ATOM      3  N   LIG    1        1.014   0.360  -2.335  0.00  0.00    -0.580 NA
ATOM      4  C   LIG    1        1.678  -0.114  -3.402  0.00  0.00    +0.540 A 
ATOM      5  C   LIG    1        1.184   0.228  -4.751  0.00  0.00    -0.210 A 
ATOM      6  C   LIG    1        0.054   1.014  -4.835  0.00  0.00    +0.050 A 
ATOM      7  S   LIG    1       -0.351   1.290  -6.519  0.00  0.00    +0.200 S 
ATOM      8  C   LIG    1        1.020   0.334  -7.081  0.00  0.00    -0.220 A 
ATOM      9  C   LIG    1        1.639  -0.101  -8.406  0.00  0.00    +0.130 C 
ATOM     10  C   LIG    1        2.557  -1.285  -8.043  0.00  0.00    +0.050 C 
ATOM     11  C   LIG    1        2.899  -0.971  -6.573  0.00  0.00    +0.110 C 
ATOM     12  C   LIG    1        1.718  -0.147  -6.061  0.00  0.00    -0.050 A 
ATOM     13  O   LIG    1        2.673  -0.807  -3.260  0.00  0.00    -0.480 OA
ATOM     14  N   LIG    1       -0.550   1.439  -3.670  0.00  0.00    -0.590 N 
ATOM     15  H   LIG    1       -1.345   1.994  -3.718  0.00  0.00    +0.430 HD
ENDBRANCH   1   2
BRANCH   1  16
ATOM     16  C   LIG    1       -0.016   1.080   0.008  0.00  0.00    +0.100 C 
BRANCH  16  19
ATOM     17  N   LIG    1       -0.242   1.246   2.466  0.00  0.00    -0.670 N 
ATOM     18  H   LIG    1        0.511   0.639   2.546  0.00  0.00    +0.420 HD
ATOM     19  C   LIG    1       -0.717   1.573   1.248  0.00  0.00    +0.520 C 
ATOM     20  O   LIG    1       -1.709   2.265   1.150  0.00  0.00    -0.520 OA
BRANCH  17  24
ATOM     21  C   LIG    1       -2.005   2.844   5.891  0.00  0.00    -0.100 A 
ATOM     22  C   LIG    1       -2.789   2.535   4.786  0.00  0.00    +0.050 A 
ATOM     23  C   LIG    1       -2.204   2.006   3.652  0.00  0.00    +0.050 A 
ATOM     24  C   LIG    1       -0.834   1.783   3.617  0.00  0.00    +0.140 A 
ATOM     25  C   LIG    1       -0.052   2.086   4.723  0.00  0.00    +0.010 A 
ATOM     26  C   LIG    1       -0.634   2.620   5.855  0.00  0.00    +0.010 A 
BRANCH  21  28
ATOM     27  C   LIG    1       -1.341   3.737   8.459  0.00  0.00    +0.120 C 
ATOM     28  S   LIG    1       -2.751   3.518   7.338  0.00  0.00    -0.120 S 
ENDBRANCH  21  28
ENDBRANCH  17  24
ENDBRANCH  16  19
ENDBRANCH   1  16
TORSDOF 5
