REMARK  Name = ZINCrD000000Ag8Q.0
REMARK                            x       y       z     vdW  Elec       q    Type
REMARK                         _______ _______ _______ _____ _____    ______ ____
ROOT
ATOM      1  O   LIG    1        1.060  -0.596  -0.011  0.00  0.00    -0.520 OA
ATOM      2  C   LIG    1        0.002  -0.004   0.002  0.00  0.00    +0.530 C 
ATOM      3  N   LIG    1       -0.016   1.344   0.009  0.00  0.00    -0.620 N 
ATOM      4  C   LIG    1       -1.226   2.186   0.019  0.00  0.00    +0.260 C 
ATOM      5  C   LIG    1       -0.775   3.537  -0.585  0.00  0.00    +0.040 C 
ATOM      6  C   LIG    1        0.660   3.674  -0.013  0.00  0.00    +0.060 C 
ATOM      7  C   LIG    1        1.167   2.217   0.003  0.00  0.00    +0.320 C 
ENDROOT
BRANCH   7   8
ATOM      8  C   LIG    1        1.990   1.973   1.241  0.00  0.00    +0.090 A 
ATOM      9  N   LIG    1        3.263   1.845   1.246  0.00  0.00    -0.450 NA
ATOM     10  C   LIG    1        3.870   1.631   2.429  0.00  0.00    +0.080 A 
ATOM     11  C   LIG    1        5.237   1.457   2.720  0.00  0.00    +0.080 A 
ATOM     12  C   LIG    1        5.649   1.250   4.002  0.00  0.00    +0.030 A 
ATOM     13  C   LIG    1        4.732   1.206   5.043  0.00  0.00    +0.040 A 
ATOM     14  C   LIG    1        3.390   1.373   4.788  0.00  0.00    +0.060 A 
ATOM     15  C   LIG    1        2.951   1.586   3.483  0.00  0.00    -0.180 A 
ATOM     16  S   LIG    1        1.342   1.841   2.814  0.00  0.00    +0.100 S 
ENDBRANCH   7   8
BRANCH   2  17
ATOM     17  C   LIG    1       -1.293  -0.775   0.010  0.00  0.00    +0.080 C 
BRANCH  17  18
ATOM     18  C   LIG    1       -0.993  -2.276  -0.001  0.00  0.00    +0.300 C 
BRANCH  18  19
ATOM     19  N   LIG    1       -2.251  -3.025   0.007  0.00  0.00    -1.120 NA
ATOM     20  H   LIG    1       -3.081  -2.578   0.235  0.00  0.00    +0.420 HD
BRANCH  19  21
ATOM     21  S   LIG    1       -2.257  -4.637  -0.372  0.00  0.00    +2.720 S 
ATOM     22  O   LIG    1       -1.510  -4.769  -1.574  0.00  0.00    -0.950 OA
ATOM     23  O   LIG    1       -3.603  -5.075  -0.242  0.00  0.00    -0.950 OA
BRANCH  21  24
ATOM     24  C   LIG    1       -1.339  -5.471   0.879  0.00  0.00    -0.800 A 
ATOM     25  C   LIG    1       -1.850  -5.964   2.008  0.00  0.00    +0.170 A 
ATOM     26  C   LIG    1       -0.934  -6.582   2.842  0.00  0.00    -0.020 A 
ATOM     27  C   LIG    1        0.322  -6.584   2.393  0.00  0.00    +0.000 A 
ATOM     28  S   LIG    1        0.393  -5.775   0.833  0.00  0.00    +0.220 S 
ENDBRANCH  21  24
ENDBRANCH  19  21
ENDBRANCH  18  19
ENDBRANCH  17  18
ENDBRANCH   2  17
TORSDOF 6
