REMARK  Name = ZINCrH000004vJpE.0
REMARK                            x       y       z     vdW  Elec       q    Type
REMARK                         _______ _______ _______ _____ _____    ______ ____
ROOT
ATOM      1  O   LIG    1        1.162  -2.914  -2.401  0.00  0.00    -0.520 OA
ATOM      2  C   LIG    1        1.740  -2.131  -3.126  0.00  0.00    +0.510 C 
ATOM      3  C   LIG    1        2.828  -1.311  -2.499  0.00  0.00    +0.330 C 
ATOM      4  N   LIG    1        2.859   0.011  -3.101  0.00  0.00    -0.600 N 
ATOM      5  C   LIG    1        3.296   0.257  -4.450  0.00  0.00    +0.350 C 
ATOM      6  C   LIG    1        2.309  -0.132  -5.507  0.00  0.00    -0.130 A 
ATOM      7  C   LIG    1        2.283   0.677  -6.641  0.00  0.00    +0.050 A 
ATOM      8  C   LIG    1        1.422   0.420  -7.685  0.00  0.00    -0.010 A 
ATOM      9  C   LIG    1        0.565  -0.663  -7.607  0.00  0.00    +0.050 A 
ATOM     10  C   LIG    1        0.582  -1.465  -6.492  0.00  0.00    -0.030 A 
ATOM     11  C   LIG    1        1.455  -1.211  -5.420  0.00  0.00    +0.180 A 
ATOM     12  C   LIG    1        2.464   1.062  -2.356  0.00  0.00    +0.530 C 
ATOM     13  O   LIG    1        2.394   2.166  -2.854  0.00  0.00    -0.510 OA
ATOM     14  N   LIG    1        1.355  -2.092  -4.368  0.00  0.00    -0.650 N 
ATOM     15  H   LIG    1        0.871  -2.894  -4.619  0.00  0.00    +0.400 HD
ENDROOT
BRANCH  12  16
ATOM     16  C   LIG    1        2.110   0.866  -0.905  0.00  0.00    -0.040 C 
ATOM     17  C   LIG    1        1.616   2.194  -0.296  0.00  0.00    +0.070 C 
ATOM     18  C   LIG    1        0.073   2.111  -0.403  0.00  0.00    +0.030 C 
ATOM     19  C   LIG    1       -0.211   0.620  -0.094  0.00  0.00    +0.020 C 
ATOM     20  C   LIG    1        0.948  -0.135  -0.776  0.00  0.00    +0.040 C 
BRANCH  16  21
ATOM     21  C   LIG    1        3.310   0.364  -0.144  0.00  0.00    -0.020 A 
ATOM     22  C   LIG    1        3.185   0.005   1.185  0.00  0.00    +0.000 A 
ATOM     23  C   LIG    1        4.286  -0.462   1.883  0.00  0.00    +0.140 A 
ATOM     24  C   LIG    1        5.514  -0.558   1.253  0.00  0.00    -0.040 A 
ATOM     25  C   LIG    1        5.640  -0.194  -0.076  0.00  0.00    +0.140 A 
ATOM     26  F   LIG    1        6.838  -0.287  -0.693  0.00  0.00    -0.130 F 
ATOM     27  F   LIG    1        4.162  -0.818   3.181  0.00  0.00    -0.120 F 
ATOM     28  C   LIG    1        4.536   0.267  -0.774  0.00  0.00    -0.030 A 
ENDBRANCH  16  21
ENDBRANCH  12  16
TORSDOF 2
