REMARK  Name = ZINCvU00000003X8.0
REMARK                            x       y       z     vdW  Elec       q    Type
REMARK                         _______ _______ _______ _____ _____    ______ ____
ROOT
ATOM      1  C   LIG    1        1.015   3.567  -0.459  0.00  0.00    +0.180 C 
ENDROOT
BRANCH   1   2
ATOM      2  C   LIG    1        1.112   2.066  -0.549  0.00  0.00    +0.460 A 
ATOM      3  N   LIG    1        0.015   1.363  -0.499  0.00  0.00    -0.570 NA
ATOM      4  C   LIG    1        0.038   0.022  -0.575  0.00  0.00    +0.540 A 
ATOM      5  C   LIG    1        1.339  -0.658  -0.718  0.00  0.00    -0.220 A 
ATOM      6  C   LIG    1        2.470   0.137  -0.766  0.00  0.00    +0.060 A 
ATOM      7  S   LIG    1        3.904  -0.864  -0.937  0.00  0.00    +0.200 S 
ATOM      8  C   LIG    1        2.959  -2.341  -0.942  0.00  0.00    -0.020 A 
ATOM      9  C   LIG    1        1.656  -2.077  -0.821  0.00  0.00    +0.040 A 
ATOM     10  O   LIG    1       -0.998  -0.621  -0.526  0.00  0.00    -0.460 OA
ATOM     11  N   LIG    1        2.324   1.505  -0.679  0.00  0.00    -0.580 N 
ATOM     12  H   LIG    1        3.111   2.072  -0.712  0.00  0.00    +0.430 HD
BRANCH   9  13
ATOM     13  C   LIG    1        0.623  -3.133  -0.796  0.00  0.00    -0.150 A 
ATOM     14  C   LIG    1        0.510  -4.134  -1.692  0.00  0.00    +0.020 A 
ATOM     15  C   LIG    1       -0.536  -5.004  -1.457  0.00  0.00    +0.000 A 
ATOM     16  C   LIG    1       -1.280  -4.716  -0.386  0.00  0.00    -0.060 A 
ATOM     17  S   LIG    1       -0.655  -3.275   0.404  0.00  0.00    +0.180 S 
ENDBRANCH   9  13
ENDBRANCH   1   2
BRANCH   1  18
ATOM     18  S   LIG    1       -0.725   4.052  -0.290  0.00  0.00    +0.140 S 
BRANCH  18  22
ATOM     19  C   LIG    1       -0.944   8.284  -0.038  0.00  0.00    +0.300 A 
ATOM     20  N   LIG    1        0.280   7.877  -0.160  0.00  0.00    -0.340 NA
ATOM     21  N   LIG    1        0.449   6.512  -0.244  0.00  0.00    -0.270 NA
ATOM     22  C   LIG    1       -0.640   5.809  -0.200  0.00  0.00    -0.010 A 
ATOM     23  S   LIG    1       -2.019   6.890  -0.029  0.00  0.00    +0.100 S 
BRANCH  19  24
ATOM     24  N   LIG    1       -1.345   9.611   0.068  0.00  0.00    -0.620 N 
ATOM     25  H   LIG    1       -2.289   9.833   0.070  0.00  0.00    +0.430 HD
BRANCH  24  29
ATOM     26  C   LIG    1        1.509  12.633   0.375  0.00  0.00    +0.110 A 
ATOM     27  C   LIG    1        0.283  12.895  -0.219  0.00  0.00    +0.010 A 
ATOM     28  C   LIG    1       -0.663  11.894  -0.321  0.00  0.00    +0.040 A 
ATOM     29  C   LIG    1       -0.387  10.625   0.171  0.00  0.00    +0.120 A 
ATOM     30  C   LIG    1        0.839  10.365   0.770  0.00  0.00    +0.060 A 
ATOM     31  C   LIG    1        1.786  11.366   0.867  0.00  0.00    -0.050 A 
BRANCH  26  33
ATOM     32  C   LIG    1        3.680  13.279   1.099  0.00  0.00    +0.250 C 
ATOM     33  O   LIG    1        2.440  13.619   0.476  0.00  0.00    -0.320 OA
ENDBRANCH  26  33
ENDBRANCH  24  29
ENDBRANCH  19  24
ENDBRANCH  18  22
ENDBRANCH   1  18
TORSDOF 7
