REMARK  Name = ZINCqH0000037MQB.0
REMARK                            x       y       z     vdW  Elec       q    Type
REMARK                         _______ _______ _______ _____ _____    ______ ____
ROOT
ATOM      1  N   LIG    1        7.237  -0.819   2.874  0.00  0.00    -0.500 N 
ATOM      2  H   LIG    1        6.520  -0.284   3.251  0.00  0.00    +0.440 HD
ATOM      3  C   LIG    1        7.370  -0.921   1.537  0.00  0.00    +0.610 C 
ATOM      4  O   LIG    1        8.269  -1.591   1.065  0.00  0.00    -0.510 OA
ENDROOT
BRANCH   3   5
ATOM      5  C   LIG    1        6.432  -0.224   0.651  0.00  0.00    -0.060 A 
ATOM      6  C   LIG    1        6.453  -0.242  -0.714  0.00  0.00    +0.060 A 
ATOM      7  C   LIG    1        5.382   0.556  -1.145  0.00  0.00    -0.010 A 
ATOM      8  C   LIG    1        4.761   1.020  -0.038  0.00  0.00    +0.010 A 
ATOM      9  O   LIG    1        5.401   0.553   1.042  0.00  0.00    -0.160 OA
BRANCH   8  10
ATOM     10  C   LIG    1        3.553   1.920  -0.021  0.00  0.00    +0.340 C 
BRANCH  10  11
ATOM     11  O   LIG    1        2.366   1.124  -0.015  0.00  0.00    -0.300 OA
BRANCH  11  12
ATOM     12  C   LIG    1        1.179   1.786   0.000  0.00  0.00    +0.150 A 
ATOM     13  C   LIG    1       -0.013   1.076   0.008  0.00  0.00    +0.000 A 
ATOM     14  C   LIG    1       -1.218   1.751   0.017  0.00  0.00    +0.090 A 
ATOM     15  C   LIG    1       -1.237   3.134   0.029  0.00  0.00    -0.130 A 
ATOM     16  C   LIG    1       -0.050   3.844   0.022  0.00  0.00    +0.090 A 
ATOM     17 BR   LIG    1       -2.889   4.055   0.048  0.00  0.00    -0.050 Br
ATOM     18  C   LIG    1        1.157   3.173   0.008  0.00  0.00    -0.060 A 
ENDBRANCH  11  12
ENDBRANCH  10  11
ENDBRANCH   8  10
ENDBRANCH   3   5
BRANCH   1  19
ATOM     19  N   LIG    1        8.133  -1.485   3.721  0.00  0.00    -0.490 N 
ATOM     20  H   LIG    1        8.849  -2.019   3.344  0.00  0.00    +0.450 HD
BRANCH  19  26
ATOM     21  C   LIG    1        5.731   0.313   7.457  0.00  0.00    +0.140 C 
ATOM     22  C   LIG    1        6.853  -0.525   6.899  0.00  0.00    +0.230 A 
ATOM     23  C   LIG    1        7.731  -1.177   7.750  0.00  0.00    -0.130 A 
ATOM     24  C   LIG    1        8.749  -1.937   7.196  0.00  0.00    +0.230 A 
ATOM     25  N   LIG    1        8.852  -2.017   5.880  0.00  0.00    -0.570 NA
ATOM     26  C   LIG    1        7.996  -1.380   5.094  0.00  0.00    +0.580 A 
ATOM     27  C   LIG    1        9.727  -2.664   8.083  0.00  0.00    +0.140 C 
ATOM     28  N   LIG    1        7.014  -0.642   5.591  0.00  0.00    -0.580 NA
ENDBRANCH  19  26
ENDBRANCH   1  19
TORSDOF 6
