REMARK  Name = ZINCrD00000hQ4HA.0
REMARK                            x       y       z     vdW  Elec       q    Type
REMARK                         _______ _______ _______ _____ _____    ______ ____
ROOT
ATOM      1  C   LIG    1       -0.229   1.333   0.035  0.00  0.00    +0.530 C 
ATOM      2  N   LIG    1        0.957   1.973  -0.001  0.00  0.00    -0.620 N 
ATOM      3  C   LIG    1        1.145   3.431   0.021  0.00  0.00    +0.240 C 
ATOM      4  C   LIG    1        2.662   3.699  -0.063  0.00  0.00    +0.250 C 
ATOM      5  C   LIG    1        3.211   2.393  -0.698  0.00  0.00    -0.080 C 
ATOM      6  C   LIG    1        4.668   2.158  -0.294  0.00  0.00    +0.050 C 
ATOM      7  C   LIG    1        3.064   2.420  -2.220  0.00  0.00    +0.050 C 
ATOM      8  C   LIG    1        2.281   1.327  -0.063  0.00  0.00    +0.270 C 
ATOM      9  O   LIG    1       -0.264   0.121   0.013  0.00  0.00    -0.530 OA
ENDROOT
BRANCH   4  10
ATOM     10  N   LIG    1        2.938   4.853  -0.922  0.00  0.00    -0.720 N 
ATOM     11  H   LIG    1        3.133   4.721  -1.863  0.00  0.00    +0.400 HD
ATOM     12  C   LIG    1        2.921   6.097  -0.406  0.00  0.00    +0.530 C 
ATOM     13  O   LIG    1        2.677   6.262   0.771  0.00  0.00    -0.530 OA
BRANCH  12  14
ATOM     14  C   LIG    1        3.204   7.285  -1.290  0.00  0.00    -0.070 C 
ATOM     15  C   LIG    1        2.172   7.338  -2.418  0.00  0.00    +0.050 C 
ATOM     16  C   LIG    1        4.607   7.152  -1.887  0.00  0.00    +0.050 C 
BRANCH  14  17
ATOM     17  C   LIG    1        3.122   8.568  -0.461  0.00  0.00    +0.020 C 
ATOM     18  C   LIG    1        1.682   9.028  -0.179  0.00  0.00    +0.010 C 
ATOM     19  C   LIG    1        2.178  10.465  -0.424  0.00  0.00    +0.010 C 
ATOM     20  C   LIG    1        3.287   9.850  -1.294  0.00  0.00    +0.010 C 
ENDBRANCH  14  17
ENDBRANCH  12  14
ENDBRANCH   4  10
BRANCH   1  21
ATOM     21  C   LIG    1       -1.510   2.123   0.098  0.00  0.00    +0.070 C 
BRANCH  21  24
ATOM     22  C   LIG    1       -4.623   0.876  -0.722  0.00  0.00    +0.150 C 
ATOM     23  C   LIG    1       -4.056   1.867   0.309  0.00  0.00    +0.030 C 
ATOM     24  C   LIG    1       -2.701   1.163   0.122  0.00  0.00    +0.010 C 
ATOM     25  C   LIG    1       -3.193   0.757  -1.277  0.00  0.00    +0.010 C 
BRANCH  22  26
ATOM     26  O   LIG    1       -5.544   1.470  -1.639  0.00  0.00    -0.380 OA
BRANCH  26  28
ATOM     27  C   LIG    1       -7.474   1.311  -3.086  0.00  0.00    +0.040 C 
ATOM     28  C   LIG    1       -6.548   0.572  -2.117  0.00  0.00    +0.160 C 
ENDBRANCH  26  28
ENDBRANCH  22  26
ENDBRANCH  21  24
ENDBRANCH   1  21
TORSDOF 7
