REMARK  Name = ZINCrD0000074CcA.1
REMARK                            x       y       z     vdW  Elec       q    Type
REMARK                         _______ _______ _______ _____ _____    ______ ____
ROOT
ATOM      1  C   LIG    1        3.297   8.466   0.409  0.00  0.00    +0.520 C 
ATOM      2  N   LIG    1        4.282   9.065   1.107  0.00  0.00    -0.720 N 
ATOM      3  H   LIG    1        5.184   9.086   0.751  0.00  0.00    +0.410 HD
ATOM      4  O   LIG    1        2.169   8.438   0.855  0.00  0.00    -0.520 OA
ENDROOT
BRANCH   1   5
ATOM      5  C   LIG    1        3.596   7.830  -0.924  0.00  0.00    +0.210 C 
BRANCH   5   6
ATOM      6  N   LIG    1        2.365   7.250  -1.477  0.00  0.00    -0.670 NA
ATOM      7  H   LIG    1        1.637   7.945  -1.547  0.00  0.00    +0.350 HD
BRANCH   6   8
ATOM      8  C   LIG    1        2.619   6.620  -2.779  0.00  0.00    +0.210 C 
ATOM      9  C   LIG    1        2.538   7.677  -3.882  0.00  0.00    +0.010 C 
BRANCH   8  15
ATOM     10  C   LIG    1       -1.943   4.727  -1.973  0.00  0.00    +0.090 C 
ATOM     11  C   LIG    1       -0.597   4.646  -2.645  0.00  0.00    -0.090 A 
ATOM     12  C   LIG    1       -0.311   3.595  -3.496  0.00  0.00    +0.000 A 
ATOM     13  C   LIG    1        0.925   3.519  -4.109  0.00  0.00    +0.000 A 
ATOM     14  C   LIG    1        1.873   4.498  -3.879  0.00  0.00    -0.090 A 
ATOM     15  C   LIG    1        1.586   5.552  -3.031  0.00  0.00    -0.070 A 
ATOM     16  C   LIG    1        3.219   4.418  -4.552  0.00  0.00    +0.090 C 
ATOM     17  C   LIG    1        0.351   5.626  -2.414  0.00  0.00    +0.040 A 
ENDBRANCH   8  15
ENDBRANCH   6   8
ENDBRANCH   5   6
ENDBRANCH   1   5
BRANCH   2  18
ATOM     18  C   LIG    1        3.991   9.683   2.403  0.00  0.00    +0.300 C 
BRANCH  18  19
ATOM     19  C   LIG    1        5.254  10.278   2.970  0.00  0.00    +0.510 C 
ATOM     20  N   LIG    1        5.227  10.903   4.164  0.00  0.00    -0.670 N 
ATOM     21  H   LIG    1        4.386  11.017   4.633  0.00  0.00    +0.410 HD
ATOM     22  O   LIG    1        6.295  10.194   2.353  0.00  0.00    -0.510 OA
BRANCH  20  23
ATOM     23  C   LIG    1        6.413  11.389   4.726  0.00  0.00    +0.130 A 
ATOM     24  C   LIG    1        7.511  10.551   4.866  0.00  0.00    -0.070 A 
ATOM     25  C   LIG    1        8.681  11.034   5.418  0.00  0.00    +0.020 A 
ATOM     26  C   LIG    1        8.757  12.349   5.839  0.00  0.00    +0.020 A 
ATOM     27  C   LIG    1        7.664  13.185   5.706  0.00  0.00    +0.020 A 
ATOM     28  C   LIG    1        7.428   9.116   4.412  0.00  0.00    +0.080 C 
ATOM     29  C   LIG    1        6.492  12.709   5.151  0.00  0.00    -0.090 A 
ATOM     30  C   LIG    1        5.301  13.620   5.007  0.00  0.00    +0.080 C 
ENDBRANCH  20  23
ENDBRANCH  18  19
ENDBRANCH   2  18
TORSDOF 7
