REMARK  Name = ZINCpk00000eakmI.0
REMARK                            x       y       z     vdW  Elec       q    Type
REMARK                         _______ _______ _______ _____ _____    ______ ____
ROOT
ATOM      1  C   LIG    1       -1.523   3.193   1.314  0.00  0.00    +0.540 C 
ATOM      2  N   LIG    1       -2.512   3.481   2.183  0.00  0.00    -0.600 N 
ATOM      3  C   LIG    1       -3.920   3.316   1.797  0.00  0.00    +0.290 C 
ATOM      4  C   LIG    1       -4.612   2.427   2.842  0.00  0.00    +0.030 C 
ATOM      5  C   LIG    1       -4.409   3.032   4.233  0.00  0.00    +0.270 C 
ATOM      6  C   LIG    1       -2.914   3.081   4.557  0.00  0.00    +0.020 C 
ATOM      7  C   LIG    1       -2.203   3.971   3.533  0.00  0.00    +0.300 C 
ATOM      8  O   LIG    1       -1.785   2.688   0.243  0.00  0.00    -0.510 OA
ENDROOT
BRANCH   5   9
ATOM      9  N   LIG    1       -5.098   2.208   5.229  0.00  0.00    -0.550 N 
ATOM     10  C   LIG    1       -4.847   0.882   5.487  0.00  0.00    +0.490 A 
ATOM     11  N   LIG    1       -5.642   0.482   6.427  0.00  0.00    -0.280 NA
ATOM     12  N   LIG    1       -6.446   1.565   6.809  0.00  0.00    -0.550 N 
ATOM     13  H   LIG    1       -7.134   1.558   7.492  0.00  0.00    +0.460 HD
ATOM     14  C   LIG    1       -6.082   2.622   6.052  0.00  0.00    +0.650 A 
ATOM     15  O   LIG    1       -6.556   3.743   6.102  0.00  0.00    -0.550 OA
ENDBRANCH   5   9
BRANCH   1  16
ATOM     16  C   LIG    1       -0.092   3.499   1.672  0.00  0.00    +0.150 C 
ATOM     17  C   LIG    1        0.443   2.413   2.607  0.00  0.00    +0.060 C 
BRANCH  16  18
ATOM     18  C   LIG    1        0.743   3.538   0.418  0.00  0.00    -0.150 A 
ATOM     19  C   LIG    1        1.329   4.723   0.014  0.00  0.00    +0.060 A 
ATOM     20  C   LIG    1        2.099   4.758  -1.133  0.00  0.00    -0.010 A 
ATOM     21  C   LIG    1        2.284   3.608  -1.878  0.00  0.00    +0.050 A 
ATOM     22  C   LIG    1        1.699   2.422  -1.476  0.00  0.00    -0.020 A 
ATOM     23  C   LIG    1        0.928   2.386  -0.327  0.00  0.00    +0.140 A 
ATOM     24  F   LIG    1        0.356   1.227   0.067  0.00  0.00    -0.130 F 
ENDBRANCH  16  18
BRANCH  16  26
ATOM     25  C   LIG    1        1.273   5.098   2.824  0.00  0.00    +0.220 C 
ATOM     26  O   LIG    1       -0.026   4.767   2.328  0.00  0.00    -0.360 OA
ENDBRANCH  16  26
ENDBRANCH   1  16
TORSDOF 4
