REMARK  Name = ZINCpk00000y6wZf.0
REMARK                            x       y       z     vdW  Elec       q    Type
REMARK                         _______ _______ _______ _____ _____    ______ ____
ROOT
ATOM      1  N   LIG    1        7.183   3.912  -2.670  0.00  0.00    -0.670 N 
ATOM      2  H   LIG    1        6.303   4.205  -2.956  0.00  0.00    +0.410 HD
ATOM      3  C   LIG    1        7.362   3.442  -1.419  0.00  0.00    +0.710 C 
ATOM      4  N   LIG    1        6.299   3.240  -0.616  0.00  0.00    -0.630 N 
ATOM      5  C   LIG    1        6.461   2.623   0.710  0.00  0.00    +0.320 C 
ATOM      6  C   LIG    1        5.466   1.463   0.831  0.00  0.00    +0.210 C 
ATOM      7  N   LIG    1        4.113   1.950   0.534  0.00  0.00    -0.470 N 
ATOM      8  C   LIG    1        4.012   2.430  -0.851  0.00  0.00    +0.200 C 
ATOM      9  C   LIG    1        4.946   3.629  -1.042  0.00  0.00    +0.290 C 
ATOM     10  O   LIG    1        8.484   3.200  -1.016  0.00  0.00    -0.570 OA
ENDROOT
BRANCH   7  11
ATOM     11  C   LIG    1        3.162   0.967   0.791  0.00  0.00    +0.300 A 
ATOM     12  C   LIG    1        1.816   1.237   0.571  0.00  0.00    -0.010 A 
ATOM     13  C   LIG    1        0.880   0.252   0.831  0.00  0.00    +0.070 A 
ATOM     14  C   LIG    1        1.325  -0.976   1.306  0.00  0.00    +0.020 A 
ATOM     15  C   LIG    1        2.679  -1.175   1.502  0.00  0.00    +0.280 A 
ATOM     16  F   LIG    1        0.444  -1.965   1.573  0.00  0.00    -0.130 F 
ATOM     17  N   LIG    1        3.547  -0.215   1.244  0.00  0.00    -0.490 NA
ENDBRANCH   7  11
BRANCH   1  21
ATOM     18  C   LIG    1       10.339   4.104  -5.250  0.00  0.00    +0.550 A 
ATOM     19  N   LIG    1        9.373   5.004  -5.346  0.00  0.00    -0.550 NA
ATOM     20  C   LIG    1        8.335   4.973  -4.526  0.00  0.00    +0.340 A 
ATOM     21  C   LIG    1        8.267   3.978  -3.557  0.00  0.00    -0.010 A 
ATOM     22  C   LIG    1        9.304   3.052  -3.484  0.00  0.00    +0.380 A 
ATOM     23  N   LIG    1       10.308   3.142  -4.340  0.00  0.00    -0.550 NA
BRANCH  18  25
ATOM     24  C   LIG    1       11.465   5.224  -7.142  0.00  0.00    +0.310 C 
ATOM     25  N   LIG    1       11.411   4.168  -6.127  0.00  0.00    -0.590 N 
ATOM     26  C   LIG    1       12.491   3.182  -6.039  0.00  0.00    +0.300 C 
ENDBRANCH  18  25
ENDBRANCH   1  21
TORSDOF 3
