REMARK  Name = ZINCnE000001Ty1p.0
REMARK                            x       y       z     vdW  Elec       q    Type
REMARK                         _______ _______ _______ _____ _____    ______ ____
ROOT
ATOM      1  C   LIG    1       -1.866   1.237  -3.349  0.00  0.00    +0.060 C 
ENDROOT
BRANCH   1   7
ATOM      2  C   LIG    1       -0.878   3.105   1.196  0.00  0.00    -0.100 C 
ATOM      3  C   LIG    1       -0.736   1.583   1.264  0.00  0.00    +0.030 C 
ATOM      4  C   LIG    1       -0.013   1.086   0.008  0.00  0.00    +0.260 C 
ATOM      5  N   LIG    1       -0.729   1.575  -1.178  0.00  0.00    -0.610 N 
ATOM      6  C   LIG    1       -0.997   3.015  -1.297  0.00  0.00    +0.250 C 
ATOM      7  C   LIG    1       -1.132   0.720  -2.138  0.00  0.00    +0.510 C 
ATOM      8  O   LIG    1       -0.905  -0.467  -2.028  0.00  0.00    -0.550 OA
ATOM      9  C   LIG    1       -1.712   3.490  -0.028  0.00  0.00    +0.030 C 
BRANCH   2  11
ATOM     10  O   LIG    1       -1.428   2.995   3.494  0.00  0.00    -0.700 OA
ATOM     11  C   LIG    1       -1.562   3.601   2.445  0.00  0.00    +0.500 C 
ATOM     12  O   LIG    1       -2.249   4.607   2.405  0.00  0.00    -0.700 OA
ENDBRANCH   2  11
ENDBRANCH   1   7
BRANCH   1  13
ATOM     13  C   LIG    1       -2.208   0.069  -4.276  0.00  0.00    +0.060 C 
BRANCH  13  14
ATOM     14  C   LIG    1       -2.952   0.594  -5.505  0.00  0.00    +0.200 C 
BRANCH  14  15
ATOM     15  O   LIG    1       -3.272  -0.497  -6.371  0.00  0.00    -0.300 OA
BRANCH  15  16
ATOM     16  C   LIG    1       -3.939  -0.200  -7.517  0.00  0.00    +0.150 A 
ATOM     17  C   LIG    1       -4.284   1.113  -7.799  0.00  0.00    -0.040 A 
ATOM     18  C   LIG    1       -4.958   1.414  -8.968  0.00  0.00    +0.080 A 
ATOM     19  C   LIG    1       -5.299   0.405  -9.851  0.00  0.00    -0.070 A 
ATOM     20  C   LIG    1       -4.960  -0.907  -9.569  0.00  0.00    +0.090 A 
ATOM     21 CL   LIG    1       -6.151   0.785 -11.314  0.00  0.00    -0.060 Cl
ATOM     22  C   LIG    1       -4.281  -1.211  -8.404  0.00  0.00    -0.060 A 
ATOM     23 CL   LIG    1       -3.857  -2.857  -8.051  0.00  0.00    -0.040 Cl
ENDBRANCH  15  16
ENDBRANCH  14  15
ENDBRANCH  13  14
ENDBRANCH   1  13
TORSDOF 6
