REMARK  Name = ZINCpk00000xDwnJ.1
REMARK                            x       y       z     vdW  Elec       q    Type
REMARK                         _______ _______ _______ _____ _____    ______ ____
ROOT
ATOM      1  C   LIG    1       -5.337   6.720  -0.302  0.00  0.00    -0.010 C 
ATOM      2  C   LIG    1       -5.894   6.616  -1.725  0.00  0.00    +0.060 C 
ATOM      3  C   LIG    1       -5.929   5.142  -2.141  0.00  0.00    +0.080 C 
ATOM      4  C   LIG    1       -4.523   4.551  -2.024  0.00  0.00    +0.080 C 
ATOM      5  N   LIG    1       -4.058   4.657  -0.636  0.00  0.00    -0.360 N 
ATOM      6  H   LIG    1       -4.714   4.193  -0.027  0.00  0.00    +0.420 HD
ATOM      7  C   LIG    1       -3.953   6.071  -0.253  0.00  0.00    +0.260 C 
ENDROOT
BRANCH   1  10
ATOM      8  C   LIG    1       -6.230  10.269   0.819  0.00  0.00    +0.300 C 
ATOM      9  N   LIG    1       -6.312   8.834   0.536  0.00  0.00    -0.610 N 
ATOM     10  C   LIG    1       -5.226   8.171   0.090  0.00  0.00    +0.530 C 
ATOM     11  O   LIG    1       -4.160   8.742   0.006  0.00  0.00    -0.530 OA
ATOM     12  C   LIG    1       -7.575   8.119   0.736  0.00  0.00    +0.280 C 
ENDBRANCH   1  10
BRANCH   4  13
ATOM     13  C   LIG    1       -4.553   3.101  -2.433  0.00  0.00    +0.490 C 
ATOM     14  O   LIG    1       -4.367   2.792  -3.598  0.00  0.00    -0.640 OA
ATOM     15  O   LIG    1       -4.762   2.236  -1.600  0.00  0.00    -0.670 OA
ENDBRANCH   4  13
BRANCH   5  16
ATOM     16  C   LIG    1       -2.740   4.019  -0.512  0.00  0.00    +0.270 C 
BRANCH  16  17
ATOM     17  C   LIG    1       -2.314   4.010   0.957  0.00  0.00    +0.090 C 
BRANCH  17  18
ATOM     18  C   LIG    1       -0.963   3.355   1.084  0.00  0.00    -0.120 A 
ATOM     19  C   LIG    1       -0.870   1.990   1.284  0.00  0.00    +0.070 A 
ATOM     20  C   LIG    1        0.365   1.386   1.404  0.00  0.00    -0.010 A 
ATOM     21  C   LIG    1        1.529   2.145   1.314  0.00  0.00    +0.120 A 
ATOM     22  O   LIG    1        2.832   1.757   1.387  0.00  0.00    -0.300 OA
ATOM     23  C   LIG    1        3.652   2.903   1.673  0.00  0.00    +0.240 C 
ATOM     24  C   LIG    1        2.833   4.069   1.072  0.00  0.00    +0.070 C 
ATOM     25  C   LIG    1        1.422   3.515   1.113  0.00  0.00    -0.170 A 
ATOM     26  C   LIG    1        0.189   4.117   0.996  0.00  0.00    +0.070 A 
ENDBRANCH  17  18
ENDBRANCH  16  17
ENDBRANCH   5  16
TORSDOF 5
