REMARK  Name = ZINCpk00000xDwnJ.0
REMARK                            x       y       z     vdW  Elec       q    Type
REMARK                         _______ _______ _______ _____ _____    ______ ____
ROOT
ATOM      1  C   LIG    1       -0.436  -0.105  -0.089  0.00  0.00    -0.010 C 
ATOM      2  C   LIG    1       -1.097  -0.715  -1.329  0.00  0.00    +0.060 C 
ATOM      3  C   LIG    1       -0.898  -2.233  -1.307  0.00  0.00    +0.080 C 
ATOM      4  C   LIG    1        0.598  -2.545  -1.234  0.00  0.00    +0.080 C 
ATOM      5  N   LIG    1        1.165  -1.958  -0.014  0.00  0.00    -0.350 N 
ATOM      6  H   LIG    1        2.139  -2.211   0.058  0.00  0.00    +0.430 HD
ATOM      7  C   LIG    1        1.043  -0.496  -0.061  0.00  0.00    +0.260 C 
ENDROOT
BRANCH   1  10
ATOM      8  C   LIG    1       -1.857   3.441   0.126  0.00  0.00    +0.300 C 
ATOM      9  N   LIG    1       -1.692   1.994   0.281  0.00  0.00    -0.610 N 
ATOM     10  C   LIG    1       -0.559   1.396  -0.139  0.00  0.00    +0.520 C 
ATOM     11  O   LIG    1        0.358   2.065  -0.563  0.00  0.00    -0.530 OA
ATOM     12  C   LIG    1       -2.757   1.196   0.894  0.00  0.00    +0.290 C 
ENDBRANCH   1  10
BRANCH   4  13
ATOM     13  C   LIG    1        0.798  -4.038  -1.212  0.00  0.00    +0.490 C 
ATOM     14  O   LIG    1        0.413  -4.719  -2.148  0.00  0.00    -0.630 OA
ATOM     15  O   LIG    1        1.345  -4.566  -0.259  0.00  0.00    -0.670 OA
ENDBRANCH   4  13
BRANCH   5  16
ATOM     16  C   LIG    1        0.442  -2.471   1.157  0.00  0.00    +0.250 C 
BRANCH  16  17
ATOM     17  C   LIG    1        1.132  -1.990   2.434  0.00  0.00    +0.080 C 
BRANCH  17  18
ATOM     18  C   LIG    1        0.389  -2.517   3.635  0.00  0.00    -0.120 A 
ATOM     19  C   LIG    1       -0.637  -1.779   4.195  0.00  0.00    +0.050 A 
ATOM     20  C   LIG    1       -1.325  -2.260   5.289  0.00  0.00    -0.010 A 
ATOM     21  C   LIG    1       -0.985  -3.490   5.847  0.00  0.00    +0.110 A 
ATOM     22  O   LIG    1       -1.527  -4.147   6.908  0.00  0.00    -0.300 OA
ATOM     23  C   LIG    1       -0.596  -5.136   7.379  0.00  0.00    +0.240 C 
ATOM     24  C   LIG    1        0.210  -5.482   6.104  0.00  0.00    +0.090 C 
ATOM     25  C   LIG    1        0.056  -4.217   5.283  0.00  0.00    -0.170 A 
ATOM     26  C   LIG    1        0.736  -3.739   4.185  0.00  0.00    +0.080 A 
ENDBRANCH  17  18
ENDBRANCH  16  17
ENDBRANCH   5  16
TORSDOF 5
