REMARK  Name = ZINCpk00000eawFV.2
REMARK                            x       y       z     vdW  Elec       q    Type
REMARK                         _______ _______ _______ _____ _____    ______ ____
ROOT
ATOM      1  N   LIG    1       -0.241   5.203   1.013  0.00  0.00    -0.480 N 
ATOM      2  C   LIG    1        0.202   3.935   0.418  0.00  0.00    +0.190 C 
ATOM      3  C   LIG    1        0.761   3.027   1.518  0.00  0.00    +0.300 C 
ATOM      4  N   LIG    1       -0.248   2.896   2.579  0.00  0.00    -0.610 N 
ATOM      5  C   LIG    1       -0.844   4.125   3.127  0.00  0.00    +0.290 C 
ATOM      6  C   LIG    1       -0.621   1.684   3.035  0.00  0.00    +0.510 C 
ATOM      7  O   LIG    1       -0.082   0.684   2.608  0.00  0.00    -0.530 OA
ATOM      8  C   LIG    1       -1.340   4.991   1.964  0.00  0.00    +0.180 C 
ENDROOT
BRANCH   6   9
ATOM      9  C   LIG    1       -1.706   1.570   4.074  0.00  0.00    +0.070 C 
ATOM     10  C   LIG    1       -3.026   2.167   3.541  0.00  0.00    +0.070 C 
ATOM     11  C   LIG    1       -3.808   0.966   2.969  0.00  0.00    +0.160 C 
ATOM     12  C   LIG    1       -2.894  -0.256   3.205  0.00  0.00    +0.170 C 
ATOM     13  C   LIG    1       -1.284   2.274   5.364  0.00  0.00    +0.080 C 
ATOM     14  N   LIG    1       -2.019   0.142   4.341  0.00  0.00    -0.480 NA
ATOM     15  C   LIG    1       -0.794  -0.668   4.376  0.00  0.00    +0.200 C 
BRANCH  11  16
ATOM     16  O   LIG    1       -4.044   1.147   1.572  0.00  0.00    -0.380 OA
ATOM     17  C   LIG    1       -5.244   0.532   1.100  0.00  0.00    +0.200 C 
ENDBRANCH  11  16
ENDBRANCH   6   9
BRANCH   1  23
ATOM     18  C   LIG    1        0.358   6.638  -0.842  0.00  0.00    +0.120 A 
ATOM     19  C   LIG    1       -0.010   7.543  -1.824  0.00  0.00    -0.060 A 
ATOM     20  C   LIG    1       -1.330   7.941  -1.938  0.00  0.00    +0.030 A 
ATOM     21  C   LIG    1       -2.286   7.433  -1.079  0.00  0.00    -0.010 A 
ATOM     22  C   LIG    1       -1.928   6.526  -0.099  0.00  0.00    +0.000 A 
ATOM     23  C   LIG    1       -0.606   6.122   0.022  0.00  0.00    +0.070 A 
BRANCH  18  25
ATOM     24  C   LIG    1        2.589   6.820  -1.645  0.00  0.00    +0.240 C 
ATOM     25  O   LIG    1        1.656   6.250  -0.725  0.00  0.00    -0.310 OA
ENDBRANCH  18  25
ENDBRANCH   1  23
TORSDOF 4
