REMARK  Name = ZINCrm000010jJ5y.0
REMARK                            x       y       z     vdW  Elec       q    Type
REMARK                         _______ _______ _______ _____ _____    ______ ____
ROOT
ATOM      1  C   LIG    1        3.640  -0.681  -0.359  0.00  0.00    +0.130 C 
ATOM      2  C   LIG    1        2.328   0.037  -0.174  0.00  0.00    -0.150 A 
ATOM      3  C   LIG    1        1.162  -0.668   0.049  0.00  0.00    +0.380 A 
ATOM      4  N   LIG    1        0.025  -0.007   0.208  0.00  0.00    -0.530 NA
ATOM      5  C   LIG    1       -0.007   1.316   0.156  0.00  0.00    +0.490 A 
ATOM      6  N   LIG    1        1.089   2.030  -0.056  0.00  0.00    -0.550 NA
ATOM      7  C   LIG    1        2.264   1.432  -0.224  0.00  0.00    +0.350 A 
ENDROOT
BRANCH   5   8
ATOM      8  N   LIG    1       -1.216   1.969   0.322  0.00  0.00    -0.460 N 
ATOM      9  C   LIG    1       -1.145   2.936   1.426  0.00  0.00    +0.250 C 
ATOM     10  C   LIG    1       -2.480   3.677   1.537  0.00  0.00    +0.300 C 
ATOM     11  N   LIG    1       -3.558   2.710   1.779  0.00  0.00    -0.520 N 
ATOM     12  C   LIG    1       -3.633   1.766   0.656  0.00  0.00    +0.190 C 
ATOM     13  H   LIG    1       -3.371   2.204   2.632  0.00  0.00    +0.430 HD
ATOM     14  H   LIG    1       -4.436   3.200   1.865  0.00  0.00    +0.430 HD
ATOM     15  C   LIG    1       -2.308   1.009   0.538  0.00  0.00    +0.280 C 
BRANCH  12  16
ATOM     16  C   LIG    1       -4.769   0.770   0.901  0.00  0.00    +0.080 C 
BRANCH  16  17
ATOM     17  C   LIG    1       -6.107   1.512   0.896  0.00  0.00    +0.360 C 
ATOM     18  F   LIG    1       -7.134   0.624   1.232  0.00  0.00    -0.180 F 
ATOM     19  F   LIG    1       -6.343   2.037  -0.379  0.00  0.00    -0.190 F 
ENDBRANCH  16  17
ENDBRANCH  12  16
ENDBRANCH   5   8
BRANCH   7  20
ATOM     20  N   LIG    1        3.408   2.181  -0.446  0.00  0.00    -0.480 N 
ATOM     21  C   LIG    1        3.685   3.068   0.693  0.00  0.00    +0.240 C 
ATOM     22  C   LIG    1        4.986   3.832   0.435  0.00  0.00    +0.300 C 
ATOM     23  N   LIG    1        4.856   4.617  -0.799  0.00  0.00    -0.510 N 
ATOM     24  C   LIG    1        4.604   3.716  -1.931  0.00  0.00    +0.200 C 
ATOM     25  H   LIG    1        4.087   5.264  -0.707  0.00  0.00    +0.430 HD
ATOM     26  H   LIG    1        5.710   5.130  -0.962  0.00  0.00    +0.430 HD
ATOM     27  C   LIG    1        3.300   2.951  -1.693  0.00  0.00    +0.250 C 
BRANCH  24  28
ATOM     28  C   LIG    1        4.487   4.534  -3.219  0.00  0.00    +0.060 C 
BRANCH  28  29
ATOM     29  C   LIG    1        5.830   5.199  -3.523  0.00  0.00    +0.360 C 
ATOM     30  F   LIG    1        5.694   6.037  -4.635  0.00  0.00    -0.180 F 
ATOM     31  F   LIG    1        6.787   4.216  -3.795  0.00  0.00    -0.190 F 
ENDBRANCH  28  29
ENDBRANCH  24  28
ENDBRANCH   7  20
TORSDOF 6
