REMARK  Name = ZINCtj0000003IYY.2
REMARK                            x       y       z     vdW  Elec       q    Type
REMARK                         _______ _______ _______ _____ _____    ______ ____
ROOT
ATOM      1  N   LIG    1       -0.011   0.966   0.007  0.00  0.00    -0.700 N 
ATOM      2  H   LIG    1        0.002  -0.004   0.002  0.00  0.00    +0.410 HD
ATOM      3  C   LIG    1        1.147   1.655   0.000  0.00  0.00    +0.600 C 
ATOM      4  O   LIG    1        1.130   2.871   0.007  0.00  0.00    -0.540 OA
ENDROOT
BRANCH   3   5
ATOM      5  C   LIG    1        2.436   0.934  -0.016  0.00  0.00    +0.000 A 
ATOM      6  N   LIG    1        2.603  -0.373  -0.025  0.00  0.00    -0.240 NA
ATOM      7  N   LIG    1        3.856  -0.657  -0.039  0.00  0.00    -0.270 N 
ATOM      8  C   LIG    1        4.592   0.475  -0.040  0.00  0.00    +0.240 A 
ATOM      9  C   LIG    1        4.407  -2.014  -0.052  0.00  0.00    +0.390 C 
ATOM     10  C   LIG    1        3.726   1.516  -0.031  0.00  0.00    -0.230 A 
BRANCH  10  11
ATOM     11  C   LIG    1        4.064   2.984  -0.033  0.00  0.00    +0.380 C 
BRANCH  11  12
ATOM     12  N   LIG    1        3.957   3.514   1.333  0.00  0.00    -0.390 N 
ATOM     13  C   LIG    1        5.033   2.950   2.187  0.00  0.00    +0.270 C 
ATOM     14  C   LIG    1        5.141   3.975   3.344  0.00  0.00    +0.050 C 
ATOM     15  C   LIG    1        4.917   5.328   2.630  0.00  0.00    +0.190 C 
ATOM     16  C   LIG    1        4.168   4.978   1.330  0.00  0.00    +0.280 C 
ATOM     17  H   LIG    1        3.052   3.294   1.721  0.00  0.00    +0.430 HD
BRANCH  15  18
ATOM     18  O   LIG    1        4.122   6.193   3.443  0.00  0.00    -0.550 OA
ATOM     19  H   LIG    1        4.543   6.447   4.276  0.00  0.00    +0.400 HD
ENDBRANCH  15  18
ENDBRANCH  11  12
ENDBRANCH  10  11
ENDBRANCH   3   5
BRANCH   1  20
ATOM     20  C   LIG    1       -1.290   1.681   0.017  0.00  0.00    +0.330 C 
BRANCH  20  26
ATOM     21  C   LIG    1       -2.802   0.062   1.203  0.00  0.00    +0.020 A 
ATOM     22  C   LIG    1       -3.849  -0.856   1.196  0.00  0.00    +0.020 A 
ATOM     23  C   LIG    1       -4.505  -1.143   0.016  0.00  0.00    +0.030 A 
ATOM     24  C   LIG    1       -4.123  -0.520  -1.159  0.00  0.00    +0.010 A 
ATOM     25  C   LIG    1       -3.087   0.396  -1.157  0.00  0.00    +0.040 A 
ATOM     26  C   LIG    1       -2.422   0.686   0.017  0.00  0.00    -0.110 A 
BRANCH  21  30
ATOM     27  C   LIG    1       -1.863   1.299   5.954  0.00  0.00    +0.360 C 
ATOM     28  N   LIG    1       -1.686   0.916   4.551  0.00  0.00    -0.370 N 
ATOM     29  C   LIG    1       -2.674   0.719   3.655  0.00  0.00    +0.260 A 
ATOM     30  C   LIG    1       -2.093   0.374   2.470  0.00  0.00    -0.210 A 
ATOM     31  C   LIG    1       -0.698   0.373   2.665  0.00  0.00    +0.240 A 
ATOM     32  N   LIG    1       -0.462   0.697   3.909  0.00  0.00    -0.300 NA
ENDBRANCH  21  30
ENDBRANCH  20  26
ENDBRANCH   1  20
TORSDOF 7
