REMARK  Name = ZINCtj0000003IYY.1
REMARK                            x       y       z     vdW  Elec       q    Type
REMARK                         _______ _______ _______ _____ _____    ______ ____
ROOT
ATOM      1  N   LIG    1        3.695  -0.146   0.147  0.00  0.00    -0.700 N 
ATOM      2  H   LIG    1        3.955  -1.008   0.507  0.00  0.00    +0.410 HD
ATOM      3  C   LIG    1        2.721   0.568   0.746  0.00  0.00    +0.600 C 
ATOM      4  O   LIG    1        2.395   1.649   0.295  0.00  0.00    -0.540 OA
ENDROOT
BRANCH   3   5
ATOM      5  C   LIG    1        2.051   0.038   1.951  0.00  0.00    +0.000 A 
ATOM      6  N   LIG    1        2.237  -1.149   2.493  0.00  0.00    -0.240 NA
ATOM      7  N   LIG    1        1.488  -1.283   3.529  0.00  0.00    -0.270 N 
ATOM      8  C   LIG    1        0.761  -0.162   3.726  0.00  0.00    +0.240 A 
ATOM      9  C   LIG    1        1.433  -2.478   4.374  0.00  0.00    +0.390 C 
ATOM     10  C   LIG    1        1.091   0.709   2.744  0.00  0.00    -0.230 A 
BRANCH  10  11
ATOM     11  C   LIG    1        0.545   2.098   2.536  0.00  0.00    +0.380 C 
BRANCH  11  12
ATOM     12  N   LIG    1        1.530   3.085   2.998  0.00  0.00    -0.390 N 
ATOM     13  C   LIG    1        1.705   2.984   4.463  0.00  0.00    +0.260 C 
ATOM     14  C   LIG    1        1.932   4.411   4.995  0.00  0.00    +0.040 C 
ATOM     15  C   LIG    1        1.846   5.324   3.750  0.00  0.00    +0.180 C 
ATOM     16  C   LIG    1        1.036   4.466   2.746  0.00  0.00    +0.290 C 
ATOM     17  H   LIG    1        2.413   2.942   2.532  0.00  0.00    +0.430 HD
BRANCH  15  18
ATOM     18  O   LIG    1        1.154   6.536   4.059  0.00  0.00    -0.540 OA
ATOM     19  H   LIG    1        1.583   7.072   4.740  0.00  0.00    +0.400 HD
ENDBRANCH  15  18
ENDBRANCH  11  12
ENDBRANCH  10  11
ENDBRANCH   3   5
BRANCH   1  20
ATOM     20  C   LIG    1        4.359   0.380  -1.048  0.00  0.00    +0.340 C 
BRANCH  20  26
ATOM     21  C   LIG    1        5.020  -1.722  -2.258  0.00  0.00    +0.020 A 
ATOM     22  C   LIG    1        5.988  -2.623  -2.694  0.00  0.00    +0.020 A 
ATOM     23  C   LIG    1        7.316  -2.412  -2.382  0.00  0.00    +0.030 A 
ATOM     24  C   LIG    1        7.686  -1.304  -1.642  0.00  0.00    +0.010 A 
ATOM     25  C   LIG    1        6.730  -0.402  -1.212  0.00  0.00    +0.030 A 
ATOM     26  C   LIG    1        5.400  -0.604  -1.518  0.00  0.00    -0.120 A 
BRANCH  21  30
ATOM     27  C   LIG    1        0.800  -2.659  -4.767  0.00  0.00    +0.360 C 
ATOM     28  N   LIG    1        1.744  -2.359  -3.688  0.00  0.00    -0.370 N 
ATOM     29  C   LIG    1        3.078  -2.219  -3.820  0.00  0.00    +0.260 A 
ATOM     30  C   LIG    1        3.590  -1.948  -2.585  0.00  0.00    -0.210 A 
ATOM     31  C   LIG    1        2.513  -1.915  -1.677  0.00  0.00    +0.240 A 
ATOM     32  N   LIG    1        1.415  -2.161  -2.341  0.00  0.00    -0.290 NA
ENDBRANCH  21  30
ENDBRANCH  20  26
ENDBRANCH   1  20
TORSDOF 7
