REMARK  Name = ZINCqH00000325cF.0
REMARK                            x       y       z     vdW  Elec       q    Type
REMARK                         _______ _______ _______ _____ _____    ______ ____
ROOT
ATOM      1  N   LIG    1        4.819  -2.658   0.145  0.00  0.00    -0.740 N 
ATOM      2  H   LIG    1        5.651  -2.159   0.140  0.00  0.00    +0.400 HD
ATOM      3  C   LIG    1        3.642  -2.006   0.059  0.00  0.00    +0.710 C 
ATOM      4  N   LIG    1        3.622  -0.661  -0.036  0.00  0.00    -0.680 N 
ATOM      5  H   LIG    1        4.453  -0.169  -0.124  0.00  0.00    +0.410 HD
ATOM      6  O   LIG    1        2.599  -2.630   0.065  0.00  0.00    -0.560 OA
ENDROOT
BRANCH   4   7
ATOM      7  C   LIG    1        2.401   0.025  -0.007  0.00  0.00    +0.160 A 
ATOM      8  C   LIG    1        1.297  -0.545   0.609  0.00  0.00    +0.060 A 
ATOM      9  C   LIG    1        0.093   0.133   0.636  0.00  0.00    +0.010 A 
ATOM     10  C   LIG    1       -0.014   1.381   0.050  0.00  0.00    +0.030 A 
ATOM     11  C   LIG    1        1.082   1.956  -0.566  0.00  0.00    -0.030 A 
ATOM     12  C   LIG    1        2.292   1.282  -0.597  0.00  0.00    +0.070 A 
BRANCH  12  13
ATOM     13  O   LIG    1        3.371   1.847  -1.203  0.00  0.00    -0.330 OA
BRANCH  13  14
ATOM     14  C   LIG    1        3.185   3.138  -1.787  0.00  0.00    +0.590 C 
ATOM     15  F   LIG    1        2.792   4.045  -0.797  0.00  0.00    -0.200 F 
ATOM     16  F   LIG    1        2.196   3.066  -2.773  0.00  0.00    -0.200 F 
ENDBRANCH  13  14
ENDBRANCH  12  13
ENDBRANCH   4   7
BRANCH   1  18
ATOM     17  C   LIG    1        4.084  -4.553   1.504  0.00  0.00    +0.040 C 
ATOM     18  C   LIG    1        4.840  -4.119   0.248  0.00  0.00    +0.180 C 
ATOM     19  C   LIG    1        4.171  -4.727  -0.986  0.00  0.00    +0.060 C 
BRANCH  18  20
ATOM     20  C   LIG    1        6.290  -4.603   0.333  0.00  0.00    +0.310 C 
BRANCH  20  21
ATOM     21  N   LIG    1        6.930  -4.021   1.514  0.00  0.00    -0.710 N 
ATOM     22  H   LIG    1        6.429  -3.428   2.096  0.00  0.00    +0.410 HD
ATOM     23  C   LIG    1        8.217  -4.308   1.794  0.00  0.00    +0.650 C 
ATOM     24  O   LIG    1        8.846  -5.050   1.065  0.00  0.00    -0.560 OA
BRANCH  23  25
ATOM     25  O   LIG    1        8.806  -3.773   2.880  0.00  0.00    -0.360 OA
BRANCH  25  26
ATOM     26  C   LIG    1       10.194  -4.127   3.118  0.00  0.00    +0.140 C 
ATOM     27  C   LIG    1       10.312  -5.643   3.291  0.00  0.00    +0.040 C 
ATOM     28  C   LIG    1       10.687  -3.429   4.387  0.00  0.00    +0.080 C 
ATOM     29  C   LIG    1       11.046  -3.682   1.928  0.00  0.00    +0.040 C 
ENDBRANCH  25  26
ENDBRANCH  23  25
ENDBRANCH  20  21
ENDBRANCH  18  20
ENDBRANCH   1  18
TORSDOF 8
