REMARK  Name = ZINCAx0000000dmn.0
REMARK                            x       y       z     vdW  Elec       q    Type
REMARK                         _______ _______ _______ _____ _____    ______ ____
ROOT
ATOM      1  C   LIG    1       -1.086   5.949  -1.510  0.00  0.00    +0.510 A 
ATOM      2  N   LIG    1       -0.340   6.175  -2.581  0.00  0.00    -0.570 NA
ATOM      3  C   LIG    1       -0.597   7.194  -3.388  0.00  0.00    +0.360 A 
ATOM      4  C   LIG    1       -1.652   8.037  -3.098  0.00  0.00    -0.120 A 
ATOM      5  C   LIG    1       -2.418   7.777  -1.959  0.00  0.00    +0.380 A 
ATOM      6  N   LIG    1       -2.107   6.734  -1.197  0.00  0.00    -0.560 NA
ENDROOT
BRANCH   5   7
ATOM      7  N   LIG    1       -3.486   8.595  -1.629  0.00  0.00    -0.470 N 
ATOM      8  C   LIG    1       -3.058   9.995  -1.500  0.00  0.00    +0.220 C 
ATOM      9  C   LIG    1       -4.277  10.874  -1.215  0.00  0.00    +0.220 C 
ATOM     10  N   LIG    1       -4.934  10.412   0.016  0.00  0.00    -0.480 N 
ATOM     11  C   LIG    1       -5.362   9.012  -0.113  0.00  0.00    +0.240 C 
ATOM     12  C   LIG    1       -4.143   8.133  -0.399  0.00  0.00    +0.230 C 
BRANCH  10  13
ATOM     13  C   LIG    1       -6.003  11.231   0.346  0.00  0.00    +0.370 A 
ATOM     14  C   LIG    1       -5.817  12.598   0.523  0.00  0.00    -0.110 A 
ATOM     15  C   LIG    1       -6.923  13.377   0.848  0.00  0.00    +0.370 A 
ATOM     16  N   LIG    1       -8.109  12.789   0.988  0.00  0.00    -0.570 NA
ATOM     17  C   LIG    1       -8.244  11.489   0.818  0.00  0.00    +0.550 A 
ATOM     18  N   LIG    1       -7.222  10.719   0.504  0.00  0.00    -0.570 NA
BRANCH  15  19
ATOM     19  N   LIG    1       -6.791  14.745   1.029  0.00  0.00    -0.470 N 
ATOM     20  C   LIG    1       -5.783  15.046   2.056  0.00  0.00    +0.180 C 
ATOM     21  C   LIG    1       -5.627  16.564   2.181  0.00  0.00    +0.240 C 
ATOM     22  O   LIG    1       -6.898  17.146   2.482  0.00  0.00    -0.380 OA
ATOM     23  C   LIG    1       -7.903  16.873   1.502  0.00  0.00    +0.230 C 
ATOM     24  C   LIG    1       -8.083  15.359   1.371  0.00  0.00    +0.190 C 
ENDBRANCH  15  19
ENDBRANCH  10  13
ENDBRANCH   5   7
BRANCH   1  28
ATOM     25  C   LIG    1        1.151   3.592   0.010  0.00  0.00    +0.030 C 
ATOM     26  C   LIG    1        0.369   4.112   1.239  0.00  0.00    +0.050 C 
ATOM     27  C   LIG    1       -0.409   5.323   0.668  0.00  0.00    +0.210 C 
ATOM     28  N   LIG    1       -0.789   4.871  -0.695  0.00  0.00    -0.440 N 
ATOM     29  C   LIG    1        0.378   4.123  -1.211  0.00  0.00    +0.230 C 
BRANCH  25  35
ATOM     30  C   LIG    1        3.711  -0.707  -0.037  0.00  0.00    +0.090 C 
ATOM     31  C   LIG    1        2.396   0.028  -0.021  0.00  0.00    -0.090 A 
ATOM     32  C   LIG    1        1.209  -0.679  -0.013  0.00  0.00    +0.000 A 
ATOM     33  C   LIG    1        0.002  -0.004   0.002  0.00  0.00    +0.010 A 
ATOM     34  C   LIG    1       -0.017   1.378   0.010  0.00  0.00    +0.010 A 
ATOM     35  C   LIG    1        1.171   2.085   0.002  0.00  0.00    -0.070 A 
ATOM     36  C   LIG    1        2.377   1.411  -0.015  0.00  0.00    +0.000 A 
ENDBRANCH  25  35
ENDBRANCH   1  28
TORSDOF 5
