REMARK  Name = ZINCpk00000eaooW.0
REMARK                            x       y       z     vdW  Elec       q    Type
REMARK                         _______ _______ _______ _____ _____    ______ ____
ROOT
ATOM      1  C   LIG    1        2.392   0.011  -0.021  0.00  0.00    -0.050 A 
ATOM      2  C   LIG    1        1.197  -0.696  -0.014  0.00  0.00    -0.040 A 
ATOM      3  C   LIG    1        0.002  -0.004   0.002  0.00  0.00    +0.290 A 
ATOM      4  N   LIG    1       -0.016   1.315   0.009  0.00  0.00    -0.510 NA
ATOM      5  C   LIG    1        1.102   2.025   0.002  0.00  0.00    +0.310 A 
ATOM      6  C   LIG    1        2.341   1.393  -0.013  0.00  0.00    -0.020 A 
ENDROOT
BRANCH   5   7
ATOM      7  N   LIG    1        1.037   3.413   0.010  0.00  0.00    -0.470 N 
ATOM      8  C   LIG    1        1.793   3.970   1.140  0.00  0.00    +0.200 C 
ATOM      9  C   LIG    1        1.821   5.496   1.034  0.00  0.00    +0.040 C 
ATOM     10  C   LIG    1        0.385   6.030   1.044  0.00  0.00    -0.020 C 
ATOM     11  C   LIG    1       -0.394   5.398  -0.113  0.00  0.00    +0.160 C 
ATOM     12  C   LIG    1       -0.357   3.874   0.025  0.00  0.00    +0.230 C 
BRANCH  11  13
ATOM     13  O   LIG    1       -1.749   5.848  -0.078  0.00  0.00    -0.570 OA
ATOM     14  H   LIG    1       -1.848   6.807  -0.161  0.00  0.00    +0.380 HD
ENDBRANCH  11  13
ENDBRANCH   5   7
BRANCH   1  15
ATOM     15  C   LIG    1        3.714  -0.712  -0.038  0.00  0.00    +0.340 C 
BRANCH  15  16
ATOM     16  N   LIG    1        4.130  -0.939  -1.424  0.00  0.00    -0.690 N 
ATOM     17  H   LIG    1        3.569  -0.632  -2.155  0.00  0.00    +0.420 HD
BRANCH  16  22
ATOM     18  C   LIG    1        7.223  -2.629  -0.902  0.00  0.00    +0.430 A 
ATOM     19  C   LIG    1        7.633  -2.853  -2.212  0.00  0.00    -0.160 A 
ATOM     20  C   LIG    1        6.817  -2.407  -3.246  0.00  0.00    +0.430 A 
ATOM     21  N   LIG    1        5.680  -1.786  -2.952  0.00  0.00    -0.640 NA
ATOM     22  C   LIG    1        5.321  -1.590  -1.692  0.00  0.00    +0.630 A 
ATOM     23  N   LIG    1        6.075  -1.996  -0.682  0.00  0.00    -0.640 NA
BRANCH  18  25
ATOM     24  C   LIG    1        7.495  -2.779   1.452  0.00  0.00    +0.260 C 
ATOM     25  O   LIG    1        7.986  -3.047   0.137  0.00  0.00    -0.290 OA
ENDBRANCH  18  25
BRANCH  20  26
ATOM     26  O   LIG    1        7.178  -2.605  -4.537  0.00  0.00    -0.290 OA
ATOM     27  C   LIG    1        6.285  -2.117  -5.542  0.00  0.00    +0.260 C 
ENDBRANCH  20  26
ENDBRANCH  16  22
ENDBRANCH  15  16
ENDBRANCH   1  15
TORSDOF 7
