REMARK  Name = ZINCtV000002uQ0W.0
REMARK                            x       y       z     vdW  Elec       q    Type
REMARK                         _______ _______ _______ _____ _____    ______ ____
ROOT
ATOM      1  C   LIG    1       -2.576   1.496   0.305  0.00  0.00    -0.270 A 
ATOM      2  C   LIG    1       -2.763   0.147   0.522  0.00  0.00    +0.280 A 
ATOM      3  N   LIG    1       -4.082  -0.069   0.669  0.00  0.00    -0.310 N 
ATOM      4  N   LIG    1       -4.773   1.140   0.539  0.00  0.00    -0.270 NA
ATOM      5  C   LIG    1       -3.910   2.106   0.320  0.00  0.00    +0.180 A 
ENDROOT
BRANCH   5   6
ATOM      6  C   LIG    1       -4.225   3.542   0.124  0.00  0.00    -0.030 A 
ATOM      7  C   LIG    1       -3.359   4.520   0.610  0.00  0.00    +0.120 A 
ATOM      8  C   LIG    1       -3.654   5.855   0.421  0.00  0.00    +0.020 A 
ATOM      9  C   LIG    1       -4.814   6.223  -0.240  0.00  0.00    -0.020 A 
ATOM     10  C   LIG    1       -5.680   5.255  -0.720  0.00  0.00    +0.020 A 
ATOM     11 CL   LIG    1       -5.184   7.903  -0.468  0.00  0.00    -0.070 Cl
ATOM     12  C   LIG    1       -5.391   3.917  -0.540  0.00  0.00    +0.060 A 
ENDBRANCH   5   6
BRANCH   3  13
ATOM     13  C   LIG    1       -4.675  -1.315   0.910  0.00  0.00    +0.150 A 
ATOM     14  C   LIG    1       -3.885  -2.453   1.014  0.00  0.00    -0.010 A 
ATOM     15  C   LIG    1       -4.471  -3.679   1.258  0.00  0.00    +0.050 A 
ATOM     16  C   LIG    1       -5.845  -3.777   1.385  0.00  0.00    +0.010 A 
ATOM     17  C   LIG    1       -6.635  -2.647   1.276  0.00  0.00    +0.050 A 
ATOM     18  C   LIG    1       -6.054  -1.417   1.039  0.00  0.00    +0.030 A 
ENDBRANCH   3  13
BRANCH   1  20
ATOM     19  N   LIG    1       -0.159   1.472  -0.047  0.00  0.00    -0.610 N 
ATOM     20  C   LIG    1       -1.293   2.187   0.094  0.00  0.00    +0.600 C 
ATOM     21  O   LIG    1       -1.256   3.401   0.047  0.00  0.00    -0.520 OA
BRANCH  19  22
ATOM     22  C   LIG    1       -0.219   0.011  -0.130  0.00  0.00    +0.270 C 
BRANCH  22  23
ATOM     23  C   LIG    1       -0.111  -0.585   1.275  0.00  0.00    -0.010 C 
BRANCH  23  25
ATOM     24  C   LIG    1       -0.066  -2.707   2.594  0.00  0.00    +0.020 C 
ATOM     25  C   LIG    1       -0.174  -2.111   1.188  0.00  0.00    +0.000 C 
ENDBRANCH  23  25
ENDBRANCH  22  23
ENDBRANCH  19  22
BRANCH  19  26
ATOM     26  C   LIG    1        1.134   2.157  -0.122  0.00  0.00    +0.290 C 
BRANCH  26  27
ATOM     27  C   LIG    1        1.454   2.483  -1.583  0.00  0.00    -0.010 C 
BRANCH  27  28
ATOM     28  C   LIG    1        2.804   3.199  -1.662  0.00  0.00    +0.000 C 
ATOM     29  C   LIG    1        3.123   3.524  -3.123  0.00  0.00    +0.010 C 
ENDBRANCH  27  28
ENDBRANCH  26  27
ENDBRANCH  19  26
ENDBRANCH   1  20
TORSDOF 9
