REMARK  Name = ZINCpk00000KfLHl.0
REMARK                            x       y       z     vdW  Elec       q    Type
REMARK                         _______ _______ _______ _____ _____    ______ ____
ROOT
ATOM      1  N   LIG    1       -2.331   0.923  -0.011  0.00  0.00    -0.740 N 
ATOM      2  H   LIG    1       -2.321  -0.047  -0.019  0.00  0.00    +0.390 HD
ATOM      3  C   LIG    1       -1.171   1.608  -0.021  0.00  0.00    +0.700 C 
ATOM      4  N   LIG    1        0.003   0.946  -0.041  0.00  0.00    -0.740 N 
ATOM      5  H   LIG    1        0.013  -0.024  -0.049  0.00  0.00    +0.400 HD
ATOM      6  O   LIG    1       -1.183   2.824  -0.011  0.00  0.00    -0.590 OA
ENDROOT
BRANCH   1   7
ATOM      7  C   LIG    1       -3.607   1.643   0.011  0.00  0.00    +0.350 C 
BRANCH   7   8
ATOM      8  C   LIG    1       -4.659   0.822  -0.690  0.00  0.00    -0.250 A 
ATOM      9  C   LIG    1       -5.494   1.258  -1.660  0.00  0.00    +0.100 A 
ATOM     10  N   LIG    1       -6.278   0.223  -2.025  0.00  0.00    -0.370 N 
ATOM     11  N   LIG    1       -5.919  -0.885  -1.246  0.00  0.00    -0.290 NA
ATOM     12  C   LIG    1       -7.325   0.253  -3.050  0.00  0.00    +0.360 C 
ATOM     13  C   LIG    1       -5.538   2.651  -2.234  0.00  0.00    +0.140 C 
ATOM     14  C   LIG    1       -4.948  -0.525  -0.447  0.00  0.00    +0.090 A 
ATOM     15  C   LIG    1       -4.261  -1.409   0.562  0.00  0.00    +0.150 C 
ENDBRANCH   7   8
BRANCH   7  17
ATOM     16  C   LIG    1       -3.026   2.821   2.136  0.00  0.00    +0.020 C 
ATOM     17  C   LIG    1       -4.031   1.885   1.461  0.00  0.00    +0.000 C 
ENDBRANCH   7  17
ENDBRANCH   1   7
BRANCH   4  18
ATOM     18  C   LIG    1        1.264   1.692  -0.057  0.00  0.00    +0.270 C 
BRANCH  18  19
ATOM     19  C   LIG    1        2.437   0.709  -0.086  0.00  0.00    +0.210 C 
ATOM     20  C   LIG    1        2.317  -0.262   1.091  0.00  0.00    +0.070 C 
BRANCH  19  21
ATOM     21  C   LIG    1        3.733   1.470   0.021  0.00  0.00    -0.270 A 
ATOM     22  C   LIG    1        4.921   1.099  -0.510  0.00  0.00    +0.260 A 
ATOM     23  N   LIG    1        5.828   2.046  -0.191  0.00  0.00    -0.370 N 
ATOM     24  N   LIG    1        5.176   3.032   0.560  0.00  0.00    -0.290 NA
ATOM     25  C   LIG    1        7.244   2.043  -0.566  0.00  0.00    +0.360 C 
ATOM     26  C   LIG    1        3.919   2.689   0.682  0.00  0.00    +0.240 A 
ENDBRANCH  19  21
BRANCH  19  27
ATOM     27  O   LIG    1        2.415  -0.024  -1.312  0.00  0.00    -0.550 OA
ATOM     28  H   LIG    1        2.487   0.529  -2.102  0.00  0.00    +0.380 HD
ENDBRANCH  19  27
ENDBRANCH  18  19
ENDBRANCH   4  18
TORSDOF 7
