REMARK  Name = ZINCvU0000000JB6.0
REMARK                            x       y       z     vdW  Elec       q    Type
REMARK                         _______ _______ _______ _____ _____    ______ ____
ROOT
ATOM      1  C   LIG    1        4.221  -1.447  -7.445  0.00  0.00    +0.050 C 
ENDROOT
BRANCH   1   2
ATOM      2  C   LIG    1        3.663  -2.455  -6.438  0.00  0.00    +0.230 C 
BRANCH   2   3
ATOM      3  O   LIG    1        3.036  -1.743  -5.339  0.00  0.00    -0.350 OA
BRANCH   3   4
ATOM      4  C   LIG    1        2.490  -2.490  -4.359  0.00  0.00    +0.520 C 
ATOM      5  O   LIG    1        2.538  -3.703  -4.421  0.00  0.00    -0.490 OA
BRANCH   4   9
ATOM      6  C   LIG    1        0.605  -0.606  -1.054  0.00  0.00    +0.230 A 
ATOM      7  C   LIG    1        1.167   0.166  -2.064  0.00  0.00    -0.060 A 
ATOM      8  C   LIG    1        1.780  -0.441  -3.137  0.00  0.00    +0.190 A 
ATOM      9  C   LIG    1        1.836  -1.836  -3.211  0.00  0.00    -0.170 A 
ATOM     10  C   LIG    1        1.269  -2.609  -2.193  0.00  0.00    +0.230 A 
ATOM     11  C   LIG    1        0.663  -1.994  -1.120  0.00  0.00    -0.090 A 
BRANCH  11  12
ATOM     12  N   LIG    1        0.069  -2.811  -0.039  0.00  0.00    +0.030 N 
ATOM     13  O   LIG    1       -0.471  -2.268   0.908  0.00  0.00    -0.130 OA
ATOM     14  O   LIG    1        0.119  -4.027  -0.096  0.00  0.00    -0.170 OA
ENDBRANCH  11  12
BRANCH   6  16
ATOM     15  C   LIG    1       -0.017   1.425   0.010  0.00  0.00    +0.270 C 
ATOM     16  O   LIG    1        0.002  -0.004   0.002  0.00  0.00    -0.270 OA
ENDBRANCH   6  16
ENDBRANCH   4   9
ENDBRANCH   3   4
ENDBRANCH   2   3
ENDBRANCH   1   2
BRANCH   1  17
ATOM     17  C   LIG    1        4.883  -2.197  -8.603  0.00  0.00    +0.290 C 
BRANCH  17  18
ATOM     18  C   LIG    1        5.323  -1.211  -9.654  0.00  0.00    -0.100 A 
ATOM     19  C   LIG    1        6.495  -0.498  -9.485  0.00  0.00    +0.020 A 
ATOM     20  C   LIG    1        6.901   0.404 -10.451  0.00  0.00    +0.000 A 
ATOM     21  C   LIG    1        6.131   0.599 -11.582  0.00  0.00    +0.000 A 
ATOM     22  C   LIG    1        4.956  -0.110 -11.748  0.00  0.00    +0.000 A 
ATOM     23  C   LIG    1        4.552  -1.015 -10.785  0.00  0.00    +0.010 A 
ENDBRANCH  17  18
BRANCH  17  24
ATOM     24  N   LIG    1        6.047  -2.934  -8.107  0.00  0.00    -0.740 N 
ATOM     25  H   LIG    1        6.504  -2.636  -7.304  0.00  0.00    +0.400 HD
BRANCH  24  26
ATOM     26  C   LIG    1        6.501  -4.066  -8.788  0.00  0.00    +0.210 A 
ATOM     27  C   LIG    1        5.845  -4.498  -9.934  0.00  0.00    -0.070 A 
ATOM     28  C   LIG    1        6.298  -5.614 -10.608  0.00  0.00    +0.050 A 
ATOM     29  C   LIG    1        7.398  -6.309 -10.137  0.00  0.00    -0.140 A 
ATOM     30  C   LIG    1        8.050  -5.885  -8.994  0.00  0.00    +0.050 A 
ATOM     31  C   LIG    1        7.887  -7.530 -10.872  0.00  0.00    +0.070 C 
ATOM     32  C   LIG    1        7.605  -4.765  -8.318  0.00  0.00    -0.070 A 
ENDBRANCH  24  26
ENDBRANCH  17  24
ENDBRANCH   1  17
TORSDOF 10
