REMARK  Name = ZINCrD000000CV32.0
REMARK                            x       y       z     vdW  Elec       q    Type
REMARK                         _______ _______ _______ _____ _____    ______ ____
ROOT
ATOM      1  O   LIG    1       -3.178   6.631   1.580  0.00  0.00    -0.520 OA
ATOM      2  C   LIG    1       -2.721   5.569   1.202  0.00  0.00    +0.700 C 
ATOM      3  N   LIG    1       -1.409   5.277   1.193  0.00  0.00    -0.730 N 
ATOM      4  H   LIG    1       -0.680   5.826   1.515  0.00  0.00    +0.440 HD
ATOM      5  C   LIG    1       -1.284   3.930   0.595  0.00  0.00    +0.180 C 
ATOM      6  C   LIG    1       -2.707   3.491   0.405  0.00  0.00    +0.540 C 
ATOM      7  O   LIG    1       -3.138   2.421   0.034  0.00  0.00    -0.450 OA
ATOM      8  C   LIG    1       -0.512   3.040   1.561  0.00  0.00    +0.060 C 
ATOM      9  C   LIG    1       -0.703   1.566   1.269  0.00  0.00    +0.020 C 
ATOM     10  C   LIG    1       -0.013   1.086   0.008  0.00  0.00    +0.020 C 
ATOM     11  C   LIG    1       -0.740   1.588  -1.238  0.00  0.00    +0.070 C 
ATOM     12  C   LIG    1       -0.291   3.002  -1.543  0.00  0.00    -0.050 A 
ATOM     13  C   LIG    1        0.411   3.194  -2.729  0.00  0.00    +0.010 A 
ATOM     14  C   LIG    1        0.848   4.454  -3.082  0.00  0.00    +0.030 A 
ATOM     15  C   LIG    1        0.584   5.527  -2.252  0.00  0.00    +0.010 A 
ATOM     16  C   LIG    1       -0.109   5.330  -1.074  0.00  0.00    +0.030 A 
ATOM     17  C   LIG    1       -0.545   4.058  -0.717  0.00  0.00    -0.100 A 
ATOM     18  N   LIG    1       -3.469   4.557   0.748  0.00  0.00    -0.580 N 
ENDROOT
BRANCH  18  19
ATOM     19  C   LIG    1       -4.929   4.587   0.644  0.00  0.00    +0.350 C 
BRANCH  19  20
ATOM     20  C   LIG    1       -5.544   4.089   1.954  0.00  0.00    +0.200 C 
BRANCH  20  21
ATOM     21  O   LIG    1       -5.221   4.999   3.007  0.00  0.00    -0.290 OA
BRANCH  21  22
ATOM     22  C   LIG    1       -5.694   4.701   4.247  0.00  0.00    +0.100 A 
ATOM     23  C   LIG    1       -6.458   3.561   4.443  0.00  0.00    -0.040 A 
ATOM     24  C   LIG    1       -6.934   3.258   5.705  0.00  0.00    +0.040 A 
ATOM     25  C   LIG    1       -6.659   4.095   6.769  0.00  0.00    +0.010 A 
ATOM     26  C   LIG    1       -5.902   5.237   6.577  0.00  0.00    +0.020 A 
ATOM     27  C   LIG    1       -5.418   5.542   5.318  0.00  0.00    +0.070 A 
ATOM     28  F   LIG    1       -4.679   6.657   5.129  0.00  0.00    -0.130 F 
ENDBRANCH  21  22
ENDBRANCH  20  21
ENDBRANCH  19  20
ENDBRANCH  18  19
TORSDOF 4
