REMARK  Name = ZINCvU0000000FJw.0
REMARK                            x       y       z     vdW  Elec       q    Type
REMARK                         _______ _______ _______ _____ _____    ______ ____
ROOT
ATOM      1  C   LIG    1        1.954   6.109   4.024  0.00  0.00    +0.110 A 
ATOM      2  C   LIG    1        2.952   5.915   3.088  0.00  0.00    -0.030 A 
ATOM      3  C   LIG    1        2.639   5.559   1.781  0.00  0.00    -0.060 A 
ATOM      4  C   LIG    1        1.321   5.387   1.420  0.00  0.00    -0.080 A 
ATOM      5  C   LIG    1        0.913   4.984   0.025  0.00  0.00    +0.380 C 
ATOM      6  N   LIG    1        2.065   5.090  -0.877  0.00  0.00    -0.600 N 
ATOM      7  C   LIG    1        3.351   4.561  -0.396  0.00  0.00    +0.280 C 
ATOM      8  C   LIG    1        1.950   5.651  -2.098  0.00  0.00    +0.530 C 
ATOM      9  O   LIG    1        0.862   5.998  -2.506  0.00  0.00    -0.530 OA
ATOM     10  C   LIG    1        0.314   5.584   2.355  0.00  0.00    -0.020 A 
ATOM     11  C   LIG    1        3.780   5.393   0.812  0.00  0.00    +0.080 C 
ATOM     12  C   LIG    1        0.622   5.945   3.654  0.00  0.00    +0.100 A 
ENDROOT
BRANCH   8  13
ATOM     13  C   LIG    1        3.174   5.846  -2.955  0.00  0.00    -0.070 C 
ATOM     14  C   LIG    1        4.229   6.627  -2.169  0.00  0.00    +0.030 C 
ATOM     15  C   LIG    1        5.471   6.824  -3.040  0.00  0.00    +0.000 C 
ATOM     16  C   LIG    1        6.038   5.460  -3.437  0.00  0.00    +0.020 C 
ATOM     17  C   LIG    1        4.983   4.679  -4.224  0.00  0.00    +0.000 C 
ATOM     18  C   LIG    1        4.604   5.460  -5.483  0.00  0.00    +0.010 C 
ATOM     19  C   LIG    1        4.037   6.825  -5.086  0.00  0.00    -0.020 C 
ATOM     20  C   LIG    1        5.092   7.606  -4.300  0.00  0.00    +0.010 C 
ATOM     21  C   LIG    1        3.741   4.481  -3.353  0.00  0.00    +0.040 C 
ATOM     22  C   LIG    1        2.795   6.627  -4.215  0.00  0.00    +0.050 C 
ENDBRANCH   8  13
BRANCH   5  23
ATOM     23  C   LIG    1        0.417   3.561   0.038  0.00  0.00    -0.180 A 
ATOM     24  C   LIG    1       -0.865   3.194   0.050  0.00  0.00    +0.010 A 
ATOM     25  C   LIG    1       -1.080   1.826   0.057  0.00  0.00    +0.010 A 
ATOM     26  C   LIG    1        0.027   1.083   0.060  0.00  0.00    -0.060 A 
ATOM     27  S   LIG    1        1.440   2.131   0.043  0.00  0.00    +0.110 S 
ENDBRANCH   5  23
BRANCH   1  29
ATOM     28  C   LIG    1        3.659   6.608   5.604  0.00  0.00    +0.250 C 
ATOM     29  O   LIG    1        2.271   6.458   5.299  0.00  0.00    -0.300 OA
ENDBRANCH   1  29
BRANCH  12  30
ATOM     30  O   LIG    1       -0.370   6.138   4.564  0.00  0.00    -0.300 OA
ATOM     31  C   LIG    1       -1.712   5.951   4.111  0.00  0.00    +0.240 C 
ENDBRANCH  12  30
TORSDOF 4
