REMARK  Name = ZINCpk000000oBUK.0
REMARK                            x       y       z     vdW  Elec       q    Type
REMARK                         _______ _______ _______ _____ _____    ______ ____
ROOT
ATOM      1  C   LIG    1        0.711  -4.229  -0.694  0.00  0.00    -0.820 A 
ATOM      2  C   LIG    1        0.924  -2.960  -1.114  0.00  0.00    +0.230 A 
ATOM      3  N   LIG    1        1.069  -2.183  -0.020  0.00  0.00    -0.350 N 
ATOM      4  N   LIG    1        0.946  -3.003   1.110  0.00  0.00    -0.280 NA
ATOM      5  C   LIG    1        0.988  -2.497  -2.547  0.00  0.00    +0.170 C 
ATOM      6  C   LIG    1        0.726  -4.227   0.705  0.00  0.00    +0.170 A 
ATOM      7  C   LIG    1        0.530  -5.430   1.592  0.00  0.00    +0.160 C 
ENDROOT
BRANCH   1   8
ATOM      8  S   LIG    1        0.459  -5.634  -1.727  0.00  0.00    +2.720 S 
ATOM      9  O   LIG    1       -0.022  -5.138  -2.969  0.00  0.00    -0.960 OA
ATOM     10  O   LIG    1       -0.248  -6.586  -0.944  0.00  0.00    -0.950 OA
BRANCH   8  11
ATOM     11  N   LIG    1        1.948  -6.292  -2.031  0.00  0.00    -1.000 NA
BRANCH  11  13
ATOM     12  C   LIG    1        2.169  -8.705  -1.697  0.00  0.00    +0.010 C 
ATOM     13  C   LIG    1        2.491  -7.318  -1.137  0.00  0.00    +0.280 C 
ENDBRANCH  11  13
BRANCH  11  14
ATOM     14  C   LIG    1        2.721  -5.849  -3.193  0.00  0.00    +0.290 C 
ATOM     15  C   LIG    1        3.699  -4.751  -2.767  0.00  0.00    +0.000 C 
ENDBRANCH  11  14
ENDBRANCH   8  11
ENDBRANCH   1   8
BRANCH   3  16
ATOM     16  C   LIG    1        1.317  -0.740  -0.015  0.00  0.00    +0.370 C 
BRANCH  16  17
ATOM     17  C   LIG    1        0.002  -0.004   0.002  0.00  0.00    +0.500 C 
ATOM     18  N   LIG    1       -0.016   1.344   0.009  0.00  0.00    -0.720 N 
ATOM     19  H   LIG    1        0.817   1.840   0.004  0.00  0.00    +0.410 HD
ATOM     20  O   LIG    1       -1.040  -0.625   0.009  0.00  0.00    -0.510 OA
BRANCH  18  21
ATOM     21  C   LIG    1       -1.295   2.059   0.019  0.00  0.00    +0.390 C 
BRANCH  21  22
ATOM     22  C   LIG    1       -1.040   3.544   0.026  0.00  0.00    -0.050 A 
ATOM     23  C   LIG    1       -0.906   4.324  -1.061  0.00  0.00    -0.030 A 
ATOM     24  C   LIG    1       -0.682   5.640  -0.596  0.00  0.00    -0.070 A 
ATOM     25  C   LIG    1       -0.684   5.584   0.748  0.00  0.00    +0.190 A 
ATOM     26  O   LIG    1       -0.901   4.312   1.119  0.00  0.00    -0.170 OA
ENDBRANCH  21  22
ENDBRANCH  18  21
ENDBRANCH  16  17
ENDBRANCH   3  16
TORSDOF 8
