REMARK  Name = ZINCqH0000007tdb.0
REMARK                            x       y       z     vdW  Elec       q    Type
REMARK                         _______ _______ _______ _____ _____    ______ ____
ROOT
ATOM      1  N   LIG    1       -2.917   0.259  -6.048  0.00  0.00    -0.720 N 
ATOM      2  H   LIG    1       -2.476   1.114  -6.168  0.00  0.00    +0.410 HD
ATOM      3  C   LIG    1       -2.556  -0.548  -5.030  0.00  0.00    +0.600 C 
ATOM      4  O   LIG    1       -3.109  -1.620  -4.879  0.00  0.00    -0.540 OA
ENDROOT
BRANCH   3   5
ATOM      5  C   LIG    1       -1.492  -0.130  -4.100  0.00  0.00    -0.310 A 
ATOM      6  C   LIG    1       -1.015  -0.850  -3.022  0.00  0.00    +0.170 A 
ATOM      7  N   LIG    1       -0.055  -0.114  -2.441  0.00  0.00    -0.350 N 
ATOM      8  N   LIG    1        0.087   1.079  -3.159  0.00  0.00    -0.290 NA
ATOM      9  C   LIG    1       -1.489  -2.210  -2.579  0.00  0.00    +0.170 C 
ATOM     10  C   LIG    1       -0.763   1.080  -4.148  0.00  0.00    +0.270 A 
BRANCH   7  11
ATOM     11  C   LIG    1        0.718  -0.497  -1.257  0.00  0.00    +0.330 C 
BRANCH  11  12
ATOM     12  C   LIG    1        0.002  -0.004   0.002  0.00  0.00    -0.030 C 
ATOM     13  C   LIG    1        0.742  -0.511   1.242  0.00  0.00    +0.040 C 
ATOM     14  C   LIG    1       -0.019   1.526   0.010  0.00  0.00    +0.030 C 
ENDBRANCH  11  12
ENDBRANCH   7  11
ENDBRANCH   3   5
BRANCH   1  15
ATOM     15  C   LIG    1       -3.975  -0.157  -6.972  0.00  0.00    +0.280 C 
BRANCH  15  19
ATOM     16  C   LIG    1       -5.776   3.301  -8.726  0.00  0.00    +0.110 A 
ATOM     17  C   LIG    1       -6.562   2.224  -8.347  0.00  0.00    -0.040 A 
ATOM     18  C   LIG    1       -5.978   1.107  -7.780  0.00  0.00    +0.080 A 
ATOM     19  C   LIG    1       -4.609   1.063  -7.590  0.00  0.00    -0.120 A 
ATOM     20  C   LIG    1       -3.821   2.137  -7.962  0.00  0.00    +0.040 A 
ATOM     21  C   LIG    1       -4.400   3.254  -8.535  0.00  0.00    +0.070 A 
ATOM     22  F   LIG    1       -3.630   4.301  -8.904  0.00  0.00    -0.130 F 
BRANCH  16  24
ATOM     23  C   LIG    1       -7.769   4.378  -9.449  0.00  0.00    +0.250 C 
ATOM     24  O   LIG    1       -6.349   4.400  -9.284  0.00  0.00    -0.310 OA
ENDBRANCH  16  24
ENDBRANCH  15  19
BRANCH  15  25
ATOM     25  C   LIG    1       -3.375  -1.034  -8.073  0.00  0.00    +0.370 C 
ATOM     26  F   LIG    1       -2.405  -0.307  -8.771  0.00  0.00    -0.200 F 
ATOM     27  F   LIG    1       -4.386  -1.430  -8.956  0.00  0.00    -0.200 F 
ENDBRANCH  15  25
ENDBRANCH   1  15
TORSDOF 7
