REMARK  Name = ZINCtV000002wAXW.0
REMARK                            x       y       z     vdW  Elec       q    Type
REMARK                         _______ _______ _______ _____ _____    ______ ____
ROOT
ATOM      1  C   LIG    1        2.149   1.219  -0.107  0.00  0.00    -0.190 A 
ATOM      2  C   LIG    1        1.638  -0.050  -0.090  0.00  0.00    +0.040 A 
ATOM      3  S   LIG    1       -0.064  -0.013  -0.096  0.00  0.00    +0.310 S 
ATOM      4  C   LIG    1       -0.110   1.743  -0.121  0.00  0.00    -0.240 A 
ATOM      5  C   LIG    1       -1.377   2.577  -0.143  0.00  0.00    +0.120 C 
ATOM      6  C   LIG    1       -1.025   4.014   0.257  0.00  0.00    -0.010 C 
ATOM      7  C   LIG    1       -2.229   4.924   0.004  0.00  0.00    +0.030 C 
ATOM      8  C   LIG    1        0.162   4.488  -0.588  0.00  0.00    +0.030 C 
ATOM      9  C   LIG    1        1.423   3.742  -0.146  0.00  0.00    +0.090 C 
ATOM     10  C   LIG    1        1.127   2.251  -0.125  0.00  0.00    -0.040 A 
ENDROOT
BRANCH   2  11
ATOM     11  N   LIG    1        2.401  -1.206  -0.071  0.00  0.00    -0.630 N 
ATOM     12  H   LIG    1        3.369  -1.149  -0.070  0.00  0.00    +0.420 HD
ATOM     13  C   LIG    1        1.797  -2.412  -0.056  0.00  0.00    +0.500 C 
ATOM     14  O   LIG    1        0.587  -2.483  -0.058  0.00  0.00    -0.470 OA
BRANCH  13  15
ATOM     15  C   LIG    1        2.627  -3.670  -0.035  0.00  0.00    +0.000 C 
ATOM     16  C   LIG    1        3.008  -4.005   1.408  0.00  0.00    +0.120 C 
BRANCH  15  17
ATOM     17  S   LIG    1        1.668  -5.038  -0.741  0.00  0.00    +0.010 S 
BRANCH  17  18
ATOM     18  C   LIG    1        1.550  -4.602  -2.444  0.00  0.00    -0.080 A 
ATOM     19  C   LIG    1        2.236  -3.496  -2.929  0.00  0.00    +0.010 A 
ATOM     20  C   LIG    1        2.145  -3.160  -4.267  0.00  0.00    -0.010 A 
ATOM     21  C   LIG    1        1.363  -3.919  -5.121  0.00  0.00    +0.050 A 
ATOM     22  C   LIG    1        0.675  -5.018  -4.640  0.00  0.00    +0.080 A 
ATOM     23 CL   LIG    1        3.007  -1.782  -4.875  0.00  0.00    -0.050 Cl
ATOM     24  C   LIG    1        0.765  -5.362  -3.305  0.00  0.00    -0.020 A 
ATOM     25 CL   LIG    1       -0.101  -6.741  -2.703  0.00  0.00    -0.040 Cl
ENDBRANCH  17  18
ENDBRANCH  15  17
ENDBRANCH  13  15
ENDBRANCH   2  11
BRANCH   1  26
ATOM     26  C   LIG    1        3.585   1.508  -0.107  0.00  0.00    +0.530 C 
ATOM     27  O   LIG    1        4.184   1.613  -1.160  0.00  0.00    -0.490 OA
BRANCH  26  28
ATOM     28  O   LIG    1        4.242   1.658   1.061  0.00  0.00    -0.350 OA
BRANCH  28  30
ATOM     29  C   LIG    1        6.233   2.079   2.399  0.00  0.00    +0.070 C 
ATOM     30  C   LIG    1        5.664   1.943   0.985  0.00  0.00    +0.200 C 
ENDBRANCH  28  30
ENDBRANCH  26  28
ENDBRANCH   1  26
TORSDOF 7
