REMARK  Name = ZINCnE000001TBw7.2
REMARK                            x       y       z     vdW  Elec       q    Type
REMARK                         _______ _______ _______ _____ _____    ______ ____
ROOT
ATOM      1  N   LIG    1       -3.400   1.811  -0.692  0.00  0.00    -0.500 NA
ATOM      2  C   LIG    1       -3.494   3.124  -0.020  0.00  0.00    +0.190 C 
ATOM      3  C   LIG    1       -4.966   3.565  -0.217  0.00  0.00    -0.010 C 
ATOM      4  C   LIG    1       -5.718   2.214  -0.086  0.00  0.00    +0.010 C 
ATOM      5  C   LIG    1       -4.746   1.210  -0.740  0.00  0.00    +0.150 C 
ENDROOT
BRANCH   1   6
ATOM      6  C   LIG    1       -2.454   0.929   0.005  0.00  0.00    +0.110 C 
BRANCH   6   7
ATOM      7  C   LIG    1       -2.080  -0.219  -0.896  0.00  0.00    -0.060 A 
ATOM      8  C   LIG    1       -1.968  -0.086  -2.219  0.00  0.00    -0.010 A 
ATOM      9  S   LIG    1       -1.526  -1.632  -2.932  0.00  0.00    +0.040 S 
ATOM     10  C   LIG    1       -1.510  -2.393  -1.346  0.00  0.00    -0.060 A 
ATOM     11  C   LIG    1       -1.821  -1.491  -0.414  0.00  0.00    +0.020 A 
ENDBRANCH   6   7
BRANCH   6  13
ATOM     12  O   LIG    1       -0.965   2.754  -0.204  0.00  0.00    -0.670 OA
ATOM     13  C   LIG    1       -1.216   1.707   0.368  0.00  0.00    +0.500 C 
ATOM     14  O   LIG    1       -0.465   1.290   1.233  0.00  0.00    -0.700 OA
ENDBRANCH   6  13
ENDBRANCH   1   6
BRANCH   5  15
ATOM     15  C   LIG    1       -4.755  -0.109   0.036  0.00  0.00    +0.000 C 
BRANCH  15  16
ATOM     16  C   LIG    1       -6.134  -0.760  -0.082  0.00  0.00    +0.260 C 
BRANCH  16  17
ATOM     17  C   LIG    1       -6.104  -2.121   0.565  0.00  0.00    -0.110 A 
ATOM     18  C   LIG    1       -6.303  -2.244   1.927  0.00  0.00    +0.010 A 
ATOM     19  C   LIG    1       -6.279  -3.492   2.520  0.00  0.00    +0.000 A 
ATOM     20  C   LIG    1       -6.048  -4.618   1.751  0.00  0.00    -0.010 A 
ATOM     21  C   LIG    1       -5.843  -4.495   0.389  0.00  0.00    +0.000 A 
ATOM     22  C   LIG    1       -5.871  -3.247  -0.204  0.00  0.00    +0.010 A 
ENDBRANCH  16  17
BRANCH  16  23
ATOM     23  O   LIG    1       -7.105   0.057   0.574  0.00  0.00    -0.550 OA
ATOM     24  H   LIG    1       -6.933   0.193   1.516  0.00  0.00    +0.370 HD
ENDBRANCH  16  23
ENDBRANCH  15  16
ENDBRANCH   5  15
TORSDOF 7
