REMARK  Name = ZINCkj00000GeQzq.1
REMARK                            x       y       z     vdW  Elec       q    Type
REMARK                         _______ _______ _______ _____ _____    ______ ____
ROOT
ATOM      1  N   LIG    1        1.356   2.033   0.000  0.00  0.00    -0.750 N 
ATOM      2  H   LIG    1        2.102   1.413  -0.010  0.00  0.00    +0.400 HD
ATOM      3  C   LIG    1        1.584   3.361   0.005  0.00  0.00    +0.710 C 
ATOM      4  N   LIG    1        2.848   3.828  -0.005  0.00  0.00    -0.730 N 
ATOM      5  H   LIG    1        3.594   3.207  -0.015  0.00  0.00    +0.400 HD
ATOM      6  O   LIG    1        0.649   4.139   0.018  0.00  0.00    -0.580 OA
ENDROOT
BRANCH   1   7
ATOM      7  C   LIG    1       -0.019   1.526   0.010  0.00  0.00    +0.300 C 
BRANCH   7   8
ATOM      8  C   LIG    1        0.002  -0.004   0.002  0.00  0.00    +0.250 C 
BRANCH   8  15
ATOM      9  C   LIG    1       -0.609  -2.361  -1.397  0.00  0.00    +0.080 C 
ATOM     10  C   LIG    1       -1.358  -1.974  -0.120  0.00  0.00    +0.170 C 
ATOM     11  C   LIG    1       -2.792  -2.502  -0.193  0.00  0.00    +0.060 C 
ATOM     12  C   LIG    1       -3.537  -2.114   1.088  0.00  0.00    +0.040 C 
ATOM     13  C   LIG    1       -3.486  -0.593   1.256  0.00  0.00    +0.050 C 
ATOM     14  C   LIG    1       -2.025  -0.136   1.274  0.00  0.00    +0.250 C 
ATOM     15  N   LIG    1       -1.376  -0.512   0.012  0.00  0.00    -0.380 N 
ATOM     16  H   LIG    1       -1.887  -0.112  -0.760  0.00  0.00    +0.420 HD
ENDBRANCH   8  15
ENDBRANCH   7   8
ENDBRANCH   1   7
BRANCH   4  17
ATOM     17  C   LIG    1        3.096   5.271   0.001  0.00  0.00    +0.290 C 
BRANCH  17  18
ATOM     18  C   LIG    1        3.045   5.803  -1.433  0.00  0.00    -0.070 C 
ATOM     19  C   LIG    1        2.144   7.008  -1.708  0.00  0.00    +0.030 C 
ATOM     20  C   LIG    1        1.739   5.620  -2.208  0.00  0.00    +0.030 C 
ENDBRANCH  17  18
BRANCH  17  21
ATOM     21  C   LIG    1        4.477   5.549   0.599  0.00  0.00    +0.050 C 
BRANCH  21  22
ATOM     22  C   LIG    1        4.489   5.131   2.071  0.00  0.00    +0.170 C 
BRANCH  22  23
ATOM     23  O   LIG    1        5.779   5.391   2.629  0.00  0.00    -0.570 OA
ATOM     24  H   LIG    1        5.859   5.149   3.562  0.00  0.00    +0.380 HD
ENDBRANCH  22  23
ENDBRANCH  21  22
ENDBRANCH  17  21
ENDBRANCH   4  17
TORSDOF 8
