REMARK  Name = ZINCqH0000007Afz.0
REMARK                            x       y       z     vdW  Elec       q    Type
REMARK                         _______ _______ _______ _____ _____    ______ ____
ROOT
ATOM      1  N   LIG    1       -1.192   2.002   0.019  0.00  0.00    -0.740 N 
ATOM      2  H   LIG    1       -2.026   1.505   0.020  0.00  0.00    +0.400 HD
ATOM      3  C   LIG    1       -0.016   1.344   0.009  0.00  0.00    +0.710 C 
ATOM      4  N   LIG    1        0.002  -0.004   0.002  0.00  0.00    -0.730 N 
ATOM      5  H   LIG    1       -0.831  -0.500   0.007  0.00  0.00    +0.400 HD
ATOM      6  O   LIG    1        1.028   1.966   0.003  0.00  0.00    -0.590 OA
ENDROOT
BRANCH   4   7
ATOM      7  C   LIG    1        1.281  -0.719  -0.014  0.00  0.00    +0.300 C 
ATOM      8  C   LIG    1        1.756  -0.968  -1.465  0.00  0.00    +0.240 C 
ATOM      9  O   LIG    1        1.227  -2.275  -1.752  0.00  0.00    -0.300 OA
ATOM     10  C   LIG    1        1.112  -2.978  -0.592  0.00  0.00    +0.120 A 
ATOM     11  C   LIG    1        0.985  -4.349  -0.388  0.00  0.00    -0.010 A 
ATOM     12  C   LIG    1        0.860  -4.853   0.891  0.00  0.00    +0.060 A 
ATOM     13  C   LIG    1        0.860  -4.001   1.980  0.00  0.00    -0.020 A 
ATOM     14  C   LIG    1        0.989  -2.637   1.785  0.00  0.00    +0.080 A 
ATOM     15  C   LIG    1        1.117  -2.133   0.510  0.00  0.00    -0.200 A 
ENDBRANCH   4   7
BRANCH   1  16
ATOM     16  C   LIG    1       -1.212   3.466   0.027  0.00  0.00    +0.350 C 
BRANCH  16  18
ATOM     17  C   LIG    1       -3.294   4.181  -1.140  0.00  0.00    +0.160 A 
ATOM     18  C   LIG    1       -2.640   3.949   0.036  0.00  0.00    -0.150 A 
ATOM     19  C   LIG    1       -3.303   4.169   1.254  0.00  0.00    +0.000 A 
ATOM     20  C   LIG    1       -2.661   3.947   2.485  0.00  0.00    +0.010 A 
ATOM     21  C   LIG    1       -3.334   4.170   3.646  0.00  0.00    +0.020 A 
ATOM     22  C   LIG    1       -4.654   4.616   3.636  0.00  0.00    -0.010 A 
ATOM     23  C   LIG    1       -5.308   4.842   2.463  0.00  0.00    +0.040 A 
ATOM     24  C   LIG    1       -4.646   4.623   1.244  0.00  0.00    -0.090 A 
ATOM     25  C   LIG    1       -5.290   4.846   0.014  0.00  0.00    +0.080 A 
ATOM     26  C   LIG    1       -4.621   4.624  -1.148  0.00  0.00    -0.070 A 
BRANCH  17  28
ATOM     27  C   LIG    1       -3.386   4.233  -3.515  0.00  0.00    +0.240 C 
ATOM     28  O   LIG    1       -2.649   3.974  -2.318  0.00  0.00    -0.310 OA
ENDBRANCH  17  28
ENDBRANCH  16  18
ENDBRANCH   1  16
TORSDOF 4
