REMARK  Name = ZINCkj000005eJau.0
REMARK                            x       y       z     vdW  Elec       q    Type
REMARK                         _______ _______ _______ _____ _____    ______ ____
ROOT
ATOM      1  C   LIG    1       -4.446   7.514   0.081  0.00  0.00    +0.490 C 
ATOM      2  N   LIG    1       -4.158   6.197   0.071  0.00  0.00    -0.610 N 
ATOM      3  C   LIG    1       -3.987   5.459   1.330  0.00  0.00    +0.280 C 
ATOM      4  C   LIG    1       -2.635   4.739   1.300  0.00  0.00    +0.030 C 
ATOM      5  C   LIG    1       -2.553   3.869   0.044  0.00  0.00    +0.010 C 
ATOM      6  C   LIG    1       -2.656   4.754  -1.200  0.00  0.00    +0.020 C 
ATOM      7  C   LIG    1       -4.009   5.473  -1.198  0.00  0.00    +0.260 C 
ATOM      8  O   LIG    1       -4.567   8.100   1.136  0.00  0.00    -0.520 OA
ENDROOT
BRANCH   5   9
ATOM      9  C   LIG    1       -1.238   3.133   0.029  0.00  0.00    -0.050 A 
ATOM     10  C   LIG    1       -0.050   3.840   0.023  0.00  0.00    +0.020 A 
ATOM     11  C   LIG    1        1.157   3.165   0.008  0.00  0.00    +0.060 A 
ATOM     12  C   LIG    1        1.175   1.783   0.000  0.00  0.00    +0.020 A 
ATOM     13  C   LIG    1       -0.013   1.076   0.008  0.00  0.00    +0.050 A 
ATOM     14  C   LIG    1       -1.219   1.750   0.017  0.00  0.00    -0.170 A 
BRANCH  14  15
ATOM     15  C   LIG    1       -2.514   0.979   0.019  0.00  0.00    +0.320 C 
BRANCH  15  16
ATOM     16  N   LIG    1       -3.064   0.943  -1.342  0.00  0.00    -0.640 N 
ATOM     17  H   LIG    1       -3.234   1.885  -1.662  0.00  0.00    +0.430 HD
ATOM     18  H   LIG    1       -3.931   0.427  -1.341  0.00  0.00    +0.440 HD
ATOM     19  H   LIG    1       -2.405   0.492  -1.959  0.00  0.00    +0.440 HD
ENDBRANCH  15  16
ENDBRANCH  14  15
ENDBRANCH   5   9
BRANCH   1  20
ATOM     20  C   LIG    1       -4.618   8.257  -1.218  0.00  0.00    +0.250 C 
BRANCH  20  22
ATOM     21  C   LIG    1       -3.227   7.737  -3.156  0.00  0.00    +0.060 C 
ATOM     22  C   LIG    1       -3.309   8.274  -1.964  0.00  0.00    -0.070 C 
ENDBRANCH  20  22
BRANCH  20  23
ATOM     23  O   LIG    1       -5.030   9.599  -0.948  0.00  0.00    -0.530 OA
ATOM     24  H   LIG    1       -4.402  10.103  -0.412  0.00  0.00    +0.390 HD
ENDBRANCH  20  23
ENDBRANCH   1  20
TORSDOF 6
