REMARK  Name = ZINCpe00000KJUd2.0
REMARK                            x       y       z     vdW  Elec       q    Type
REMARK                         _______ _______ _______ _____ _____    ______ ____
ROOT
ATOM      1  N   LIG    1        0.626  -3.447   1.788  0.00  0.00    -0.410 N 
ATOM      2  C   LIG    1        1.962  -3.420   1.724  0.00  0.00    +0.700 C 
ATOM      3  N   LIG    1        2.413  -2.697   0.683  0.00  0.00    -0.700 N 
ATOM      4  H   LIG    1        3.340  -2.542   0.443  0.00  0.00    +0.450 HD
ATOM      5  C   LIG    1        1.224  -2.188  -0.022  0.00  0.00    +0.180 C 
ATOM      6  C   LIG    1        1.182  -2.717  -1.457  0.00  0.00    +0.110 C 
ATOM      7  O   LIG    1        2.688  -3.986   2.518  0.00  0.00    -0.510 OA
ATOM      8  C   LIG    1        0.067  -2.739   0.787  0.00  0.00    +0.530 C 
ATOM      9  O   LIG    1       -1.116  -2.576   0.578  0.00  0.00    -0.430 OA
ENDROOT
BRANCH   5  10
ATOM     10  C   LIG    1        1.207  -0.681  -0.014  0.00  0.00    -0.070 A 
ATOM     11  C   LIG    1        0.002  -0.004   0.002  0.00  0.00    +0.000 A 
ATOM     12  C   LIG    1       -0.017   1.379   0.010  0.00  0.00    +0.060 A 
ATOM     13  C   LIG    1        1.169   2.087   0.002  0.00  0.00    -0.060 A 
ATOM     14  C   LIG    1        2.380   1.409  -0.013  0.00  0.00    +0.130 A 
ATOM     15  C   LIG    1        2.396   0.022  -0.022  0.00  0.00    +0.000 A 
BRANCH  14  16
ATOM     16  O   LIG    1        3.548   2.104  -0.022  0.00  0.00    -0.310 OA
ATOM     17  C   LIG    1        3.456   3.530  -0.013  0.00  0.00    +0.250 C 
ENDBRANCH  14  16
ENDBRANCH   5  10
BRANCH   1  18
ATOM     18  N   LIG    1       -0.101  -4.126   2.774  0.00  0.00    -0.460 N 
ATOM     19  H   LIG    1       -0.548  -4.960   2.559  0.00  0.00    +0.450 HD
BRANCH  18  20
ATOM     20  C   LIG    1       -0.180  -3.621   4.021  0.00  0.00    +0.570 C 
ATOM     21  S   LIG    1       -1.069  -4.452   5.226  0.00  0.00    -0.570 S 
BRANCH  20  22
ATOM     22  N   LIG    1        0.441  -2.463   4.320  0.00  0.00    -0.660 N 
ATOM     23  H   LIG    1        0.944  -1.993   3.637  0.00  0.00    +0.400 HD
BRANCH  22  24
ATOM     24  C   LIG    1        0.354  -1.914   5.675  0.00  0.00    +0.270 C 
ATOM     25  C   LIG    1       -0.928  -1.092   5.812  0.00  0.00    +0.060 C 
BRANCH  24  26
ATOM     26  C   LIG    1        1.566  -1.017   5.940  0.00  0.00    +0.190 C 
BRANCH  26  28
ATOM     27  C   LIG    1        2.611   1.022   5.237  0.00  0.00    +0.210 C 
ATOM     28  O   LIG    1        1.519   0.115   5.070  0.00  0.00    -0.390 OA
ENDBRANCH  26  28
ENDBRANCH  24  26
ENDBRANCH  22  24
ENDBRANCH  20  22
ENDBRANCH  18  20
ENDBRANCH   1  18
TORSDOF 8
