REMARK  Name = ZINCpk00000xIb9X.0
REMARK                            x       y       z     vdW  Elec       q    Type
REMARK                         _______ _______ _______ _____ _____    ______ ____
ROOT
ATOM      1  C   LIG    1        1.361   1.480   0.058  0.00  0.00    -0.180 A 
ATOM      2  C   LIG    1        1.552   2.639   0.820  0.00  0.00    +0.050 A 
ATOM      3  C   LIG    1        2.690   3.396   0.624  0.00  0.00    +0.190 A 
ATOM      4  N   LIG    1        3.598   3.048  -0.265  0.00  0.00    -0.420 NA
ATOM      5  C   LIG    1        3.470   1.963  -1.013  0.00  0.00    +0.090 A 
ATOM      6  C   LIG    1        2.349   1.132  -0.878  0.00  0.00    +0.240 A 
ENDROOT
BRANCH   1  16
ATOM      7  C   LIG    1       -5.148  -0.024   1.176  0.00  0.00    +0.190 C 
ATOM      8  N   LIG    1       -4.673   1.147   0.426  0.00  0.00    -0.530 NA
ATOM      9  C   LIG    1       -4.661   0.878  -1.017  0.00  0.00    +0.150 C 
ATOM     10  C   LIG    1       -4.240   2.164  -1.740  0.00  0.00    +0.230 C 
ATOM     11  O   LIG    1       -2.936   2.527  -1.290  0.00  0.00    -0.370 OA
ATOM     12  C   LIG    1       -2.822   2.784   0.112  0.00  0.00    +0.190 C 
ATOM     13  C   LIG    1       -1.308   2.675   0.471  0.00  0.00    +0.290 C 
ATOM     14  N   LIG    1       -1.039   1.223   0.467  0.00  0.00    -0.600 N 
ATOM     15  C   LIG    1       -2.298   0.515   0.762  0.00  0.00    +0.220 C 
ATOM     16  C   LIG    1        0.156   0.644   0.238  0.00  0.00    +0.590 C 
ATOM     17  O   LIG    1        0.243  -0.567   0.174  0.00  0.00    -0.540 OA
ATOM     18  C   LIG    1       -3.382   1.594   0.923  0.00  0.00    +0.160 C 
ENDBRANCH   1  16
BRANCH   5  19
ATOM     19  C   LIG    1        4.524   1.621  -1.998  0.00  0.00    -0.030 A 
ATOM     20  C   LIG    1        4.979   0.308  -2.108  0.00  0.00    +0.010 A 
ATOM     21  C   LIG    1        5.957  -0.006  -3.030  0.00  0.00    +0.010 A 
ATOM     22  C   LIG    1        6.493   0.982  -3.837  0.00  0.00    +0.010 A 
ATOM     23  C   LIG    1        6.049   2.288  -3.729  0.00  0.00    +0.010 A 
ATOM     24  C   LIG    1        5.068   2.612  -2.814  0.00  0.00    +0.050 A 
ENDBRANCH   5  19
BRANCH   6  25
ATOM     25  N   LIG    1        2.215  -0.008  -1.656  0.00  0.00    -0.850 N 
ATOM     26  H   LIG    1        1.500  -0.637  -1.475  0.00  0.00    +0.410 HD
ATOM     27  H   LIG    1        2.837  -0.175  -2.381  0.00  0.00    +0.400 HD
ENDBRANCH   6  25
TORSDOF 3
