REMARK  Name = ZINCnE00000hdbns.0
REMARK                            x       y       z     vdW  Elec       q    Type
REMARK                         _______ _______ _______ _____ _____    ______ ____
ROOT
ATOM      1  N   LIG    1       -1.561   2.048  -2.431  0.00  0.00    -0.590 N 
ATOM      2  C   LIG    1       -2.347   0.955  -2.457  0.00  0.00    +0.570 C 
ATOM      3  C   LIG    1       -2.935   0.456  -1.195  0.00  0.00    -0.140 A 
ATOM      4  C   LIG    1       -3.965  -0.482  -1.207  0.00  0.00    +0.070 A 
ATOM      5  C   LIG    1       -4.517  -0.904  -0.014  0.00  0.00    -0.030 A 
ATOM      6  C   LIG    1       -4.051  -0.397   1.186  0.00  0.00    +0.030 A 
ATOM      7  C   LIG    1       -3.023   0.531   1.203  0.00  0.00    -0.010 A 
ATOM      8  C   LIG    1       -2.459   0.955   0.019  0.00  0.00    +0.030 A 
ATOM      9  C   LIG    1       -1.330   1.951   0.019  0.00  0.00    -0.040 C 
ATOM     10  O   LIG    1       -2.571   0.384  -3.506  0.00  0.00    -0.540 OA
ATOM     11  C   LIG    1       -1.419   2.845  -1.215  0.00  0.00    +0.340 C 
ENDROOT
BRANCH  11  12
ATOM     12  C   LIG    1       -2.610   3.758  -1.079  0.00  0.00    -0.110 A 
ATOM     13  C   LIG    1       -3.855   3.357  -1.343  0.00  0.00    -0.030 A 
ATOM     14  S   LIG    1       -4.973   4.688  -1.074  0.00  0.00    +0.080 S 
ATOM     15  C   LIG    1       -3.648   5.745  -0.604  0.00  0.00    -0.060 A 
ATOM     16  C   LIG    1       -2.497   5.074  -0.666  0.00  0.00    +0.020 A 
ENDBRANCH  11  12
BRANCH   9  17
ATOM     17  C   LIG    1       -0.015   1.215   0.009  0.00  0.00    +0.510 C 
ATOM     18  O   LIG    1        1.033   1.839   0.002  0.00  0.00    -0.690 OA
ATOM     19  O   LIG    1        0.002  -0.004   0.002  0.00  0.00    -0.670 OA
ENDBRANCH   9  17
BRANCH   1  20
ATOM     20  C   LIG    1       -0.837   2.443  -3.641  0.00  0.00    +0.320 C 
BRANCH  20  21
ATOM     21  C   LIG    1       -1.704   3.396  -4.466  0.00  0.00    +0.070 C 
BRANCH  21  23
ATOM     22  C   LIG    1       -1.978   4.994  -6.797  0.00  0.00    +0.120 C 
ATOM     23  S   LIG    1       -0.807   3.885  -5.965  0.00  0.00    -0.260 S 
ENDBRANCH  21  23
ENDBRANCH  20  21
ENDBRANCH   1  20
TORSDOF 5
