REMARK  Name = ZINCpk00000xI0S6.2
REMARK                            x       y       z     vdW  Elec       q    Type
REMARK                         _______ _______ _______ _____ _____    ______ ____
ROOT
ATOM      1  N   LIG    1        2.670   1.049  -0.029  0.00  0.00    -0.600 N 
ATOM      2  C   LIG    1        3.060   0.454   1.115  0.00  0.00    +0.530 C 
ATOM      3  O   LIG    1        2.397   0.583   2.122  0.00  0.00    -0.520 OA
ATOM      4  C   LIG    1        3.414   0.812  -1.269  0.00  0.00    +0.280 C 
ENDROOT
BRANCH   2   5
ATOM      5  C   LIG    1        4.320  -0.371   1.144  0.00  0.00    +0.180 C 
ATOM      6  C   LIG    1        4.047  -1.742   0.520  0.00  0.00    +0.020 C 
BRANCH   5   7
ATOM      7  N   LIG    1        4.760  -0.546   2.535  0.00  0.00    -0.520 NA
ATOM      8  C   LIG    1        3.796  -1.353   3.294  0.00  0.00    +0.180 C 
ATOM      9  C   LIG    1        4.210  -1.391   4.767  0.00  0.00    +0.030 C 
ATOM     10  C   LIG    1        5.613  -1.995   4.883  0.00  0.00    +0.020 C 
ATOM     11  C   LIG    1        6.588  -1.164   4.044  0.00  0.00    +0.010 C 
ATOM     12  C   LIG    1        6.105  -1.132   2.592  0.00  0.00    +0.180 C 
BRANCH  11  13
ATOM     13  C   LIG    1        7.980  -1.795   4.105  0.00  0.00    +0.170 C 
BRANCH  13  14
ATOM     14  O   LIG    1        8.477  -1.723   5.443  0.00  0.00    -0.570 OA
ATOM     15  H   LIG    1        9.358  -2.106   5.557  0.00  0.00    +0.380 HD
ENDBRANCH  13  14
ENDBRANCH  11  13
ENDBRANCH   5   7
ENDBRANCH   2   5
BRANCH   1  16
ATOM     16  C   LIG    1        1.502   1.933  -0.034  0.00  0.00    +0.330 C 
BRANCH  16  19
ATOM     17  N   LIG    1       -0.938   1.735  -0.388  0.00  0.00    -0.670 N 
ATOM     18  H   LIG    1       -1.017   2.676  -0.165  0.00  0.00    +0.410 HD
ATOM     19  C   LIG    1        0.263   1.127  -0.327  0.00  0.00    +0.500 C 
ATOM     20  O   LIG    1        0.347  -0.069  -0.513  0.00  0.00    -0.510 OA
BRANCH  17  25
ATOM     21  C   LIG    1       -5.533  -1.206  -1.945  0.00  0.00    +0.100 C 
ATOM     22  C   LIG    1       -4.312  -0.425  -1.531  0.00  0.00    -0.100 A 
ATOM     23  C   LIG    1       -3.323  -1.036  -0.782  0.00  0.00    +0.020 A 
ATOM     24  C   LIG    1       -2.203  -0.322  -0.401  0.00  0.00    +0.030 A 
ATOM     25  C   LIG    1       -2.071   1.010  -0.772  0.00  0.00    +0.140 A 
ATOM     26  C   LIG    1       -3.069   1.622  -1.519  0.00  0.00    -0.010 A 
ATOM     27  C   LIG    1       -4.184   0.901  -1.901  0.00  0.00    +0.030 A 
ENDBRANCH  17  25
ENDBRANCH  16  19
ENDBRANCH   1  16
TORSDOF 7
