REMARK  Name = ZINCqH0000050hRC.0
REMARK                            x       y       z     vdW  Elec       q    Type
REMARK                         _______ _______ _______ _____ _____    ______ ____
ROOT
ATOM      1  C   LIG    1        1.843   7.154   0.024  0.00  0.00    +0.600 C 
ATOM      2  N   LIG    1        0.644   7.769   0.038  0.00  0.00    -0.720 N 
ATOM      3  H   LIG    1       -0.171   7.243   0.043  0.00  0.00    +0.400 HD
ATOM      4  O   LIG    1        2.865   7.814   0.018  0.00  0.00    -0.520 OA
ENDROOT
BRANCH   1   8
ATOM      5  C   LIG    1        1.649   3.216   0.003  0.00  0.00    +0.170 A 
ATOM      6  N   LIG    1        2.884   3.652  -0.001  0.00  0.00    -0.460 NA
ATOM      7  C   LIG    1        3.061   4.944  -0.001  0.00  0.00    +0.170 A 
ATOM      8  C   LIG    1        1.916   5.692   0.014  0.00  0.00    -0.310 A 
ATOM      9  C   LIG    1        4.432   5.569  -0.010  0.00  0.00    +0.180 C 
ATOM     10  S   LIG    1        0.543   4.586   0.021  0.00  0.00    +0.150 S 
BRANCH   5  15
ATOM     11  C   LIG    1       -1.211  -0.898   0.009  0.00  0.00    +0.180 C 
ATOM     12  C   LIG    1        0.002  -0.004   0.002  0.00  0.00    +0.030 A 
ATOM     13  C   LIG    1        1.286  -0.420  -0.013  0.00  0.00    -0.060 A 
ATOM     14  C   LIG    1        2.093   0.731  -0.014  0.00  0.00    +0.050 A 
ATOM     15  C   LIG    1        1.249   1.802  -0.000  0.00  0.00    +0.010 A 
ATOM     16  O   LIG    1       -0.016   1.337   0.009  0.00  0.00    -0.170 OA
ENDBRANCH   5  15
ENDBRANCH   1   8
BRANCH   2  17
ATOM     17  C   LIG    1        0.571   9.232   0.047  0.00  0.00    +0.260 C 
BRANCH  17  18
ATOM     18  C   LIG    1       -0.895   9.670   0.063  0.00  0.00    +0.260 C 
BRANCH  18  19
ATOM     19  C   LIG    1       -0.973  11.170  -0.051  0.00  0.00    -0.100 A 
ATOM     20  C   LIG    1       -0.767  11.959   1.065  0.00  0.00    +0.050 A 
ATOM     21  C   LIG    1       -0.832  13.336   0.961  0.00  0.00    +0.030 A 
ATOM     22  C   LIG    1       -1.115  13.926  -0.258  0.00  0.00    +0.070 A 
ATOM     23  C   LIG    1       -1.328  13.134  -1.377  0.00  0.00    +0.070 A 
ATOM     24  F   LIG    1       -1.604  13.707  -2.568  0.00  0.00    -0.120 F 
ATOM     25  F   LIG    1       -1.184  15.271  -0.359  0.00  0.00    -0.120 F 
ATOM     26  C   LIG    1       -1.256  11.756  -1.271  0.00  0.00    +0.040 A 
ENDBRANCH  18  19
BRANCH  18  27
ATOM     27  O   LIG    1       -1.504   9.253   1.288  0.00  0.00    -0.550 OA
ATOM     28  H   LIG    1       -1.087   9.621   2.079  0.00  0.00    +0.380 HD
ENDBRANCH  18  27
ENDBRANCH  17  18
ENDBRANCH   2  17
TORSDOF 6
