REMARK  Name = ZINCpk00000y6xEt.0
REMARK                            x       y       z     vdW  Elec       q    Type
REMARK                         _______ _______ _______ _____ _____    ______ ____
ROOT
ATOM      1  C   LIG    1        4.704   1.895  -1.019  0.00  0.00    +0.520 C 
ATOM      2  N   LIG    1        3.611   2.139  -0.269  0.00  0.00    -0.730 N 
ATOM      3  H   LIG    1        3.635   2.829   0.412  0.00  0.00    +0.400 HD
ATOM      4  O   LIG    1        4.675   1.032  -1.871  0.00  0.00    -0.510 OA
ENDROOT
BRANCH   2   5
ATOM      5  C   LIG    1        2.388   1.361  -0.482  0.00  0.00    +0.250 C 
ATOM      6  C   LIG    1        2.464   0.055   0.318  0.00  0.00    +0.020 C 
ATOM      7  C   LIG    1        1.264  -0.816  -0.063  0.00  0.00    +0.090 C 
ATOM      8  C   LIG    1        0.002  -0.004   0.002  0.00  0.00    +0.520 C 
ATOM      9  N   LIG    1       -0.016   1.329   0.009  0.00  0.00    -0.700 N 
ATOM     10  H   LIG    1       -0.879   1.772   0.016  0.00  0.00    +0.400 HD
ATOM     11  O   LIG    1       -1.057  -0.593   0.051  0.00  0.00    -0.550 OA
ATOM     12  C   LIG    1        1.180   2.163   0.002  0.00  0.00    +0.230 C 
BRANCH  12  13
ATOM     13  C   LIG    1        0.959   3.356  -0.929  0.00  0.00    +0.140 C 
ATOM     14  C   LIG    1       -0.243   4.199  -0.447  0.00  0.00    +0.010 C 
ATOM     15  C   LIG    1       -0.930   4.655  -1.754  0.00  0.00    +0.000 C 
ATOM     16  C   LIG    1       -0.063   4.033  -2.871  0.00  0.00    +0.190 C 
ATOM     17  O   LIG    1        0.585   2.902  -2.248  0.00  0.00    -0.360 OA
ENDBRANCH  12  13
ENDBRANCH   2   5
BRANCH   1  18
ATOM     18  C   LIG    1        5.962   2.695  -0.800  0.00  0.00    +0.210 C 
BRANCH  18  19
ATOM     19  O   LIG    1        6.972   2.254  -1.710  0.00  0.00    -0.360 OA
BRANCH  19  20
ATOM     20  C   LIG    1        8.212   2.952  -1.585  0.00  0.00    +0.250 C 
BRANCH  20  27
ATOM     21  C   LIG    1       10.883   4.047  -1.726  0.00  0.00    +0.090 C 
ATOM     22  C   LIG    1       10.476   2.932  -2.654  0.00  0.00    -0.080 A 
ATOM     23  C   LIG    1       11.380   2.433  -3.573  0.00  0.00    +0.000 A 
ATOM     24  C   LIG    1       11.007   1.409  -4.424  0.00  0.00    +0.000 A 
ATOM     25  C   LIG    1        9.730   0.885  -4.356  0.00  0.00    -0.010 A 
ATOM     26  C   LIG    1        8.827   1.381  -3.435  0.00  0.00    +0.050 A 
ATOM     27  C   LIG    1        9.198   2.408  -2.587  0.00  0.00    -0.100 A 
ENDBRANCH  20  27
ENDBRANCH  19  20
ENDBRANCH  18  19
ENDBRANCH   1  18
TORSDOF 6
