REMARK  Name = ZINCrD00000fLDmF.0
REMARK                            x       y       z     vdW  Elec       q    Type
REMARK                         _______ _______ _______ _____ _____    ______ ____
ROOT
ATOM      1  C   LIG    1       -1.434  -7.860   1.625  0.00  0.00    +0.140 A 
ATOM      2  C   LIG    1       -1.383  -7.886   3.013  0.00  0.00    +0.030 A 
ATOM      3  C   LIG    1       -1.436  -6.708   3.733  0.00  0.00    +0.020 A 
ATOM      4  C   LIG    1       -1.540  -5.496   3.076  0.00  0.00    +0.090 A 
ATOM      5  C   LIG    1       -1.592  -5.461   1.682  0.00  0.00    -0.010 A 
ATOM      6  F   LIG    1       -1.591  -4.346   3.783  0.00  0.00    -0.130 F 
ATOM      7  C   LIG    1       -1.544  -6.649   0.958  0.00  0.00    +0.090 A 
ENDROOT
BRANCH   5   8
ATOM      8  C   LIG    1       -1.704  -4.161   0.974  0.00  0.00    +0.010 A 
ATOM      9  C   LIG    1       -1.760  -2.921   1.541  0.00  0.00    +0.170 A 
ATOM     10  N   LIG    1       -1.860  -2.046   0.515  0.00  0.00    -0.290 N 
ATOM     11  N   LIG    1       -1.856  -2.707  -0.588  0.00  0.00    -0.080 NA
ATOM     12  N   LIG    1       -1.764  -3.969  -0.356  0.00  0.00    -0.240 NA
BRANCH  10  13
ATOM     13  C   LIG    1       -1.953  -0.589   0.639  0.00  0.00    +0.350 C 
BRANCH  13  14
ATOM     14  C   LIG    1       -0.841   0.065  -0.184  0.00  0.00    -0.030 C 
ATOM     15  C   LIG    1       -0.984   1.611  -0.177  0.00  0.00    +0.030 C 
ATOM     16  C   LIG    1        0.490   2.044  -0.377  0.00  0.00    +0.210 C 
ATOM     17  O   LIG    1        1.266   1.084   0.358  0.00  0.00    -0.380 OA
ATOM     18  C   LIG    1        0.534  -0.140   0.488  0.00  0.00    +0.200 C 
ENDBRANCH  13  14
ENDBRANCH  10  13
ENDBRANCH   5   8
BRANCH   1  21
ATOM     19  O   LIG    1       -0.201  -8.101  -0.723  0.00  0.00    -0.510 OA
ATOM     20  C   LIG    1       -0.780  -9.086  -0.307  0.00  0.00    +0.560 C 
ATOM     21  N   LIG    1       -1.381  -9.056   0.899  0.00  0.00    -0.670 N 
ATOM     22  H   LIG    1       -1.776  -9.863   1.265  0.00  0.00    +0.410 HD
BRANCH  20  23
ATOM     23  C   LIG    1       -0.825 -10.317  -1.124  0.00  0.00    -0.140 A 
ATOM     24  C   LIG    1       -1.484 -11.451  -0.647  0.00  0.00    +0.040 A 
ATOM     25  C   LIG    1       -1.526 -12.595  -1.417  0.00  0.00    +0.000 A 
ATOM     26  C   LIG    1       -0.909 -12.623  -2.655  0.00  0.00    +0.040 A 
ATOM     27  C   LIG    1       -0.249 -11.504  -3.131  0.00  0.00    +0.000 A 
ATOM     28  C   LIG    1       -0.204 -10.351  -2.374  0.00  0.00    +0.080 A 
ENDBRANCH  20  23
ENDBRANCH   1  21
TORSDOF 5
