REMARK  Name = ZINCrg00000fSp5W.0
REMARK                            x       y       z     vdW  Elec       q    Type
REMARK                         _______ _______ _______ _____ _____    ______ ____
ROOT
ATOM      1  C   LIG    1        0.601  -0.602  -1.046  0.00  0.00    +0.510 C 
ATOM      2  O   LIG    1        1.092   0.071  -1.930  0.00  0.00    -0.490 OA
ENDROOT
BRANCH   1   3
ATOM      3  C   LIG    1        0.658  -2.076  -1.122  0.00  0.00    -0.070 A 
ATOM      4  C   LIG    1        0.099  -2.853  -0.105  0.00  0.00    +0.070 A 
ATOM      5  C   LIG    1        0.152  -4.229  -0.185  0.00  0.00    +0.120 A 
ATOM      6  C   LIG    1        0.768  -4.840  -1.263  0.00  0.00    -0.650 A 
ATOM      7  C   LIG    1        1.329  -4.076  -2.271  0.00  0.00    +0.120 A 
ATOM      8  C   LIG    1        1.278  -2.699  -2.207  0.00  0.00    +0.080 A 
BRANCH   6   9
ATOM      9  S   LIG    1        0.838  -6.598  -1.353  0.00  0.00    +2.690 S 
ATOM     10  O   LIG    1        0.992  -6.924  -2.727  0.00  0.00    -0.950 OA
ATOM     11  O   LIG    1       -0.234  -7.083  -0.555  0.00  0.00    -0.950 OA
BRANCH   9  12
ATOM     12  N   LIG    1        2.234  -7.072  -0.600  0.00  0.00    -1.000 NA
ATOM     13  C   LIG    1        3.474  -7.201  -1.369  0.00  0.00    +0.310 C 
ATOM     14  C   LIG    1        2.229  -7.363   0.836  0.00  0.00    +0.300 C 
ENDBRANCH   9  12
ENDBRANCH   6   9
ENDBRANCH   1   3
BRANCH   1  15
ATOM     15  O   LIG    1        0.002  -0.004   0.002  0.00  0.00    -0.340 OA
BRANCH  15  16
ATOM     16  C   LIG    1       -0.018   1.448   0.010  0.00  0.00    +0.340 C 
BRANCH  16  23
ATOM     17  C   LIG    1       -5.145   3.104   5.591  0.00  0.00    +0.260 C 
ATOM     18  C   LIG    1       -4.105   2.813   4.540  0.00  0.00    +0.120 A 
ATOM     19  N   LIG    1       -2.865   3.159   4.559  0.00  0.00    -0.240 NA
ATOM     20  N   LIG    1       -2.039   2.804   3.499  0.00  0.00    -0.370 N 
ATOM     21  C   LIG    1       -0.712   3.082   3.351  0.00  0.00    +0.540 A 
ATOM     22  C   LIG    1       -0.035   2.639   2.214  0.00  0.00    -0.080 A 
ATOM     23  C   LIG    1       -0.723   1.934   1.250  0.00  0.00    +0.200 A 
ATOM     24  N   LIG    1       -2.014   1.683   1.431  0.00  0.00    -0.480 NA
ATOM     25  O   LIG    1       -0.118   3.712   4.212  0.00  0.00    -0.490 OA
ATOM     26  C   LIG    1       -2.651   2.099   2.509  0.00  0.00    +0.310 A 
ATOM     27  S   LIG    1       -4.337   1.924   3.025  0.00  0.00    +0.150 S 
ENDBRANCH  16  23
ENDBRANCH  15  16
ENDBRANCH   1  15
TORSDOF 6
