REMARK  Name = ZINCnE000001TCI4.0
REMARK                            x       y       z     vdW  Elec       q    Type
REMARK                         _______ _______ _______ _____ _____    ______ ____
ROOT
ATOM      1  C   LIG    1       -1.252   1.913   0.018  0.00  0.00    -0.210 A 
ATOM      2  C   LIG    1       -2.486   1.329   0.021  0.00  0.00    +0.020 A 
ATOM      3  C   LIG    1       -3.531   2.227   0.031  0.00  0.00    -0.110 A 
ATOM      4  C   LIG    1       -3.143   3.526   0.035  0.00  0.00    -0.300 A 
ATOM      5  C   LIG    1       -4.112   4.693   0.044  0.00  0.00    +0.300 C 
ATOM      6  N   LIG    1       -5.441   4.201  -0.346  0.00  0.00    -0.520 NA
ATOM      7  C   LIG    1       -5.829   3.038   0.463  0.00  0.00    +0.220 C 
ATOM      8  C   LIG    1       -5.000   1.822   0.037  0.00  0.00    +0.060 C 
ATOM      9  S   LIG    1       -1.442   3.659   0.036  0.00  0.00    +0.200 S 
ENDROOT
BRANCH   1  11
ATOM     10  O   LIG    1        0.002  -0.004   0.002  0.00  0.00    -0.680 OA
ATOM     11  C   LIG    1       -0.015   1.221   0.009  0.00  0.00    +0.540 C 
ATOM     12  O   LIG    1        1.038   1.848   0.002  0.00  0.00    -0.690 OA
ENDBRANCH   1  11
BRANCH   6  13
ATOM     13  C   LIG    1       -5.485   3.884  -1.780  0.00  0.00    +0.240 C 
BRANCH  13  14
ATOM     14  C   LIG    1       -5.324   5.150  -2.580  0.00  0.00    -0.090 A 
ATOM     15  C   LIG    1       -6.435   5.890  -2.955  0.00  0.00    +0.090 A 
ATOM     16  C   LIG    1       -6.238   7.051  -3.687  0.00  0.00    +0.030 A 
ATOM     17  C   LIG    1       -4.951   7.425  -4.024  0.00  0.00    +0.030 A 
ATOM     18  N   LIG    1       -3.918   6.694  -3.654  0.00  0.00    -0.440 NA
ATOM     19  C   LIG    1       -4.067   5.587  -2.954  0.00  0.00    +0.280 A 
BRANCH  17  20
ATOM     20  C   LIG    1       -4.726   8.683  -4.823  0.00  0.00    +0.520 C 
ATOM     21  F   LIG    1       -5.124   9.792  -4.069  0.00  0.00    -0.170 F 
ATOM     22  F   LIG    1       -5.478   8.627  -6.002  0.00  0.00    -0.170 F 
ATOM     23  F   LIG    1       -3.369   8.797  -5.141  0.00  0.00    -0.160 F 
ENDBRANCH  17  20
ENDBRANCH  13  14
ENDBRANCH   6  13
TORSDOF 4
