REMARK  Name = ZINCvU0000000656.0
REMARK                            x       y       z     vdW  Elec       q    Type
REMARK                         _______ _______ _______ _____ _____    ______ ____
ROOT
ATOM      1  C   LIG    1       -2.629  -1.681  -0.043  0.00  0.00    +0.350 C 
ENDROOT
BRANCH   1   2
ATOM      2  C   LIG    1       -2.431  -3.142   0.266  0.00  0.00    -0.100 A 
ATOM      3  C   LIG    1       -3.215  -4.093  -0.356  0.00  0.00    +0.020 A 
ATOM      4  C   LIG    1       -3.036  -5.438  -0.075  0.00  0.00    -0.070 A 
ATOM      5  C   LIG    1       -2.068  -5.828   0.831  0.00  0.00    -0.080 A 
ATOM      6  C   LIG    1       -2.070  -7.336   0.964  0.00  0.00    +0.080 C 
ATOM      7  C   LIG    1       -2.836  -7.849  -0.275  0.00  0.00    +0.040 C 
ATOM      8  C   LIG    1       -1.283  -4.874   1.456  0.00  0.00    +0.070 A 
ATOM      9  C   LIG    1       -3.754  -6.656  -0.614  0.00  0.00    +0.080 C 
ATOM     10  C   LIG    1       -1.458  -3.533   1.169  0.00  0.00    -0.080 A 
ATOM     11 BR   LIG    1       -0.377  -2.234   2.017  0.00  0.00    -0.020 Br
ENDBRANCH   1   2
BRANCH   1  12
ATOM     12  C   LIG    1       -1.567  -1.223  -1.009  0.00  0.00    +0.200 A 
ATOM     13  N   LIG    1       -0.588  -0.388  -0.757  0.00  0.00    -0.280 NA
ATOM     14  N   LIG    1        0.102  -0.247  -1.836  0.00  0.00    -0.070 NA
ATOM     15  N   LIG    1       -0.408  -0.974  -2.768  0.00  0.00    -0.090 NA
ATOM     16  N   LIG    1       -1.437  -1.593  -2.296  0.00  0.00    -0.290 N 
BRANCH  16  17
ATOM     17  C   LIG    1       -2.304  -2.521  -3.026  0.00  0.00    +0.250 C 
ATOM     18  C   LIG    1       -1.464  -3.652  -3.645  0.00  0.00    +0.030 C 
ATOM     19  C   LIG    1       -1.671  -3.569  -5.172  0.00  0.00    +0.040 C 
ATOM     20  C   LIG    1       -3.030  -2.844  -5.333  0.00  0.00    +0.030 C 
ATOM     21  C   LIG    1       -2.992  -1.790  -4.198  0.00  0.00    +0.040 C 
ENDBRANCH  16  17
ENDBRANCH   1  12
BRANCH   1  22
ATOM     22  N   LIG    1       -3.955  -1.483  -0.644  0.00  0.00    -0.670 NA
ATOM     23  H   LIG    1       -4.149  -2.193  -1.335  0.00  0.00    +0.340 HD
BRANCH  22  24
ATOM     24  C   LIG    1       -5.001  -1.453   0.387  0.00  0.00    +0.260 C 
BRANCH  24  30
ATOM     25  F   LIG    1       -8.279   1.403  -1.820  0.00  0.00    -0.130 F 
ATOM     26  C   LIG    1       -7.933   0.185  -1.349  0.00  0.00    +0.060 A 
ATOM     27  C   LIG    1       -8.811  -0.878  -1.464  0.00  0.00    +0.030 A 
ATOM     28  C   LIG    1       -8.456  -2.123  -0.981  0.00  0.00    +0.040 A 
ATOM     29  C   LIG    1       -7.224  -2.309  -0.382  0.00  0.00    +0.050 A 
ATOM     30  C   LIG    1       -6.344  -1.249  -0.266  0.00  0.00    -0.100 A 
ATOM     31  C   LIG    1       -6.699   0.001  -0.743  0.00  0.00    +0.100 A 
ATOM     32  F   LIG    1       -5.842   1.038  -0.624  0.00  0.00    -0.120 F 
ENDBRANCH  24  30
ENDBRANCH  22  24
ENDBRANCH   1  22
TORSDOF 6
