REMARK  Name = ZINCtV00001bB3GD.0
REMARK                            x       y       z     vdW  Elec       q    Type
REMARK                         _______ _______ _______ _____ _____    ______ ____
ROOT
ATOM      1  C   LIG    1        2.309   0.071   5.920  0.00  0.00    +0.130 A 
ATOM      2  C   LIG    1        2.580  -1.212   6.218  0.00  0.00    -0.110 A 
ATOM      3  S   LIG    1        3.522  -1.247   7.706  0.00  0.00    +0.210 S 
ATOM      4  C   LIG    1        3.460   0.511   7.787  0.00  0.00    +0.280 A 
ATOM      5  N   LIG    1        2.796   0.966   6.770  0.00  0.00    -0.500 NA
ENDROOT
BRANCH   1   9
ATOM      6  C   LIG    1        0.067   1.185   2.485  0.00  0.00    -0.070 A 
ATOM      7  C   LIG    1        0.310  -0.152   2.745  0.00  0.00    +0.000 A 
ATOM      8  C   LIG    1        1.042  -0.519   3.856  0.00  0.00    +0.020 A 
ATOM      9  C   LIG    1        1.527   0.460   4.722  0.00  0.00    -0.030 A 
ATOM     10  C   LIG    1        1.274   1.804   4.457  0.00  0.00    +0.050 A 
ATOM     11  C   LIG    1        0.545   2.160   3.341  0.00  0.00    +0.000 A 
BRANCH   6  12
ATOM     12  C   LIG    1       -0.729   1.579   1.267  0.00  0.00    +0.030 C 
ATOM     13  C   LIG    1       -2.121   0.950   1.341  0.00  0.00    +0.030 C 
BRANCH  12  15
ATOM     14  C   LIG    1       -0.753   1.593  -1.232  0.00  0.00    +0.000 C 
ATOM     15  C   LIG    1       -0.013   1.086   0.008  0.00  0.00    +0.000 C 
ENDBRANCH  12  15
ENDBRANCH   6  12
ENDBRANCH   1   9
BRANCH   4  16
ATOM     16  N   LIG    1        4.038   1.290   8.780  0.00  0.00    -0.620 N 
ATOM     17  H   LIG    1        3.955   2.256   8.749  0.00  0.00    +0.430 HD
ATOM     18  C   LIG    1        4.712   0.703   9.789  0.00  0.00    +0.560 C 
ATOM     19  O   LIG    1        4.816  -0.510   9.828  0.00  0.00    -0.510 OA
BRANCH  18  20
ATOM     20  C   LIG    1        5.298   1.493  10.797  0.00  0.00    -0.050 C 
ATOM     21  C   LIG    1        5.980   0.900  11.817  0.00  0.00    +0.180 C 
BRANCH  21  22
ATOM     22  C   LIG    1        6.566   1.690  12.824  0.00  0.00    -0.010 A 
ATOM     23  C   LIG    1        7.387   2.791  12.642  0.00  0.00    +0.140 A 
ATOM     24  N   LIG    1        7.726   3.250  13.839  0.00  0.00    -0.440 NA
ATOM     25  C   LIG    1        7.169   2.506  14.776  0.00  0.00    +0.170 A 
ATOM     26  S   LIG    1        7.004   2.292  16.527  0.00  0.00    +0.200 S 
ATOM     27  C   LIG    1        5.934   0.885  16.389  0.00  0.00    +0.030 A 
ATOM     28  C   LIG    1        5.788   0.678  15.090  0.00  0.00    +0.220 A 
ATOM     29 CL   LIG    1        7.884   3.452  11.115  0.00  0.00    +0.030 Cl
ATOM     30  N   LIG    1        6.427   1.519  14.212  0.00  0.00    -0.400 N 
ENDBRANCH  21  22
ENDBRANCH  18  20
ENDBRANCH   4  16
TORSDOF 6
