REMARK  Name = ZINCpk000000oCsp.0
REMARK                            x       y       z     vdW  Elec       q    Type
REMARK                         _______ _______ _______ _____ _____    ______ ____
ROOT
ATOM      1  C   LIG    1       -1.087   2.018   1.348  0.00  0.00    -0.680 A 
ATOM      2  C   LIG    1       -0.793   3.204   1.996  0.00  0.00    +0.150 A 
ATOM      3  C   LIG    1       -1.396   3.508   3.204  0.00  0.00    +0.000 A 
ATOM      4  C   LIG    1       -2.288   2.624   3.774  0.00  0.00    +0.100 A 
ATOM      5  C   LIG    1       -2.586   1.423   3.128  0.00  0.00    -0.140 A 
ATOM      6  C   LIG    1       -1.978   1.125   1.908  0.00  0.00    +0.190 A 
ENDROOT
BRANCH   5   7
ATOM      7  C   LIG    1       -3.541   0.471   3.733  0.00  0.00    +0.580 C 
ATOM      8  N   LIG    1       -3.710   0.444   5.070  0.00  0.00    -0.600 N 
ATOM      9  C   LIG    1       -3.067   1.354   6.036  0.00  0.00    +0.260 C 
ATOM     10  C   LIG    1       -3.062   0.573   7.374  0.00  0.00    +0.060 C 
ATOM     11  C   LIG    1       -4.425  -0.165   7.308  0.00  0.00    +0.060 C 
ATOM     12  C   LIG    1       -4.571  -0.492   5.807  0.00  0.00    +0.270 C 
ATOM     13  O   LIG    1       -4.174  -0.288   3.026  0.00  0.00    -0.510 OA
BRANCH  12  14
ATOM     14  C   LIG    1       -6.005  -0.316   5.378  0.00  0.00    +0.450 C 
ATOM     15  O   LIG    1       -6.288   0.509   4.541  0.00  0.00    -0.490 OA
BRANCH  14  16
ATOM     16  O   LIG    1       -6.968  -1.074   5.926  0.00  0.00    -0.360 OA
ATOM     17  C   LIG    1       -8.326  -0.849   5.465  0.00  0.00    +0.260 C 
ENDBRANCH  14  16
ENDBRANCH  12  14
ENDBRANCH   5   7
BRANCH   1  18
ATOM     18  S   LIG    1       -0.318   1.643  -0.193  0.00  0.00    +2.690 S 
ATOM     19  O   LIG    1        0.883   2.401  -0.236  0.00  0.00    -0.950 OA
ATOM     20  O   LIG    1       -0.350   0.229  -0.324  0.00  0.00    -0.950 OA
BRANCH  18  21
ATOM     21  N   LIG    1       -1.294   2.246  -1.387  0.00  0.00    -0.990 NA
BRANCH  21  23
ATOM     22  C   LIG    1       -0.208   3.595  -3.114  0.00  0.00    +0.010 C 
ATOM     23  C   LIG    1       -1.100   3.615  -1.871  0.00  0.00    +0.280 C 
ENDBRANCH  21  23
BRANCH  21  24
ATOM     24  C   LIG    1       -2.352   1.409  -1.960  0.00  0.00    +0.300 C 
ATOM     25  C   LIG    1       -3.672   1.694  -1.242  0.00  0.00    +0.010 C 
ENDBRANCH  21  24
ENDBRANCH  18  21
ENDBRANCH   1  18
TORSDOF 7
