REMARK  Name = ZINCrH000004v3jz.0
REMARK                            x       y       z     vdW  Elec       q    Type
REMARK                         _______ _______ _______ _____ _____    ______ ____
ROOT
ATOM      1  O   LIG    1        1.285   5.827  -0.081  0.00  0.00    -0.510 OA
ATOM      2  C   LIG    1        2.341   5.229  -0.094  0.00  0.00    +0.530 C 
ATOM      3  N   LIG    1        2.355   3.885   0.001  0.00  0.00    -0.670 N 
ATOM      4  H   LIG    1        3.200   3.412   0.067  0.00  0.00    +0.420 HD
ENDROOT
BRANCH   2   5
ATOM      5  C   LIG    1        3.636   5.990  -0.216  0.00  0.00    +0.010 C 
ATOM      6  C   LIG    1        4.529   5.765   1.027  0.00  0.00    +0.070 C 
ATOM      7  C   LIG    1        5.188   7.107   1.258  0.00  0.00    +0.520 C 
ATOM      8  N   LIG    1        4.533   8.066   0.581  0.00  0.00    -0.610 N 
ATOM      9  O   LIG    1        6.165   7.290   1.952  0.00  0.00    -0.520 OA
ATOM     10  C   LIG    1        3.390   7.514  -0.155  0.00  0.00    +0.300 C 
BRANCH   8  11
ATOM     11  C   LIG    1        4.913   9.481   0.577  0.00  0.00    +0.350 C 
BRANCH  11  12
ATOM     12  C   LIG    1        5.878   9.739  -0.552  0.00  0.00    -0.110 A 
ATOM     13  C   LIG    1        7.238   9.619  -0.339  0.00  0.00    +0.030 A 
ATOM     14  C   LIG    1        8.123   9.852  -1.375  0.00  0.00    +0.000 A 
ATOM     15  C   LIG    1        7.648  10.214  -2.622  0.00  0.00    +0.010 A 
ATOM     16  C   LIG    1        6.287  10.339  -2.833  0.00  0.00    +0.000 A 
ATOM     17  C   LIG    1        5.402  10.102  -1.798  0.00  0.00    +0.010 A 
ENDBRANCH  11  12
ENDBRANCH   8  11
ENDBRANCH   2   5
BRANCH   3  18
ATOM     18  C   LIG    1        1.153   3.171   0.002  0.00  0.00    +0.160 A 
ATOM     19  C   LIG    1        0.072   3.633  -0.739  0.00  0.00    +0.020 A 
ATOM     20  C   LIG    1       -1.115   2.932  -0.740  0.00  0.00    +0.060 A 
ATOM     21  C   LIG    1       -1.232   1.760   0.011  0.00  0.00    -0.040 A 
ATOM     22  C   LIG    1       -0.142   1.296   0.749  0.00  0.00    +0.090 A 
ATOM     23  C   LIG    1        1.042   2.002   0.746  0.00  0.00    +0.000 A 
BRANCH  21  24
ATOM     24  C   LIG    1       -2.505   1.009   0.018  0.00  0.00    +0.120 A 
ATOM     25  N   LIG    1       -2.730  -0.091   0.677  0.00  0.00    -0.470 NA
ATOM     26  C   LIG    1       -3.927  -0.621   0.565  0.00  0.00    +0.220 A 
ATOM     27  C   LIG    1       -4.784   0.038  -0.221  0.00  0.00    -0.070 A 
ATOM     28  S   LIG    1       -3.965   1.463  -0.858  0.00  0.00    +0.090 S 
ENDBRANCH  21  24
ENDBRANCH   3  18
TORSDOF 5
