REMARK  Name = ZINCnE000007KQD7.0
REMARK                            x       y       z     vdW  Elec       q    Type
REMARK                         _______ _______ _______ _____ _____    ______ ____
ROOT
ATOM      1  C   LIG    1        1.772  -3.855  -1.651  0.00  0.00    +0.540 C 
ATOM      2  N   LIG    1        2.120  -2.696  -1.056  0.00  0.00    -0.720 N 
ATOM      3  H   LIG    1        2.997  -2.314  -1.215  0.00  0.00    +0.390 HD
ATOM      4  O   LIG    1        0.711  -4.378  -1.384  0.00  0.00    -0.530 OA
ENDROOT
BRANCH   1   7
ATOM      5  C   LIG    1        2.249  -5.813  -3.287  0.00  0.00    +0.080 C 
ATOM      6  C   LIG    1        2.259  -4.525  -4.111  0.00  0.00    +0.070 C 
ATOM      7  C   LIG    1        2.701  -4.499  -2.647  0.00  0.00    -0.050 C 
BRANCH   5  12
ATOM      8  C   LIG    1        6.486  -8.851  -4.953  0.00  0.00    +0.140 C 
ATOM      9  C   LIG    1        5.250  -8.234  -4.352  0.00  0.00    -0.190 A 
ATOM     10  C   LIG    1        4.419  -8.845  -3.506  0.00  0.00    +0.000 A 
ATOM     11  C   LIG    1        3.347  -8.076  -3.085  0.00  0.00    +0.010 A 
ATOM     12  C   LIG    1        3.308  -6.841  -3.588  0.00  0.00    -0.140 A 
ATOM     13  S   LIG    1        4.679  -6.599  -4.663  0.00  0.00    +0.100 S 
ENDBRANCH   5  12
ENDBRANCH   1   7
BRANCH   2  14
ATOM     14  C   LIG    1        1.173  -2.014  -0.170  0.00  0.00    +0.300 C 
BRANCH  14  15
ATOM     15  C   LIG    1        1.437  -0.531  -0.199  0.00  0.00    -0.070 A 
ATOM     16  C   LIG    1        0.379   0.359  -0.203  0.00  0.00    +0.080 A 
ATOM     17  C   LIG    1        0.621   1.720  -0.230  0.00  0.00    -0.010 A 
ATOM     18  C   LIG    1        1.921   2.191  -0.253  0.00  0.00    -0.020 A 
ATOM     19  C   LIG    1        2.978   1.301  -0.248  0.00  0.00    -0.020 A 
ATOM     20  C   LIG    1        2.736  -0.060  -0.222  0.00  0.00    -0.010 A 
ENDBRANCH  14  15
BRANCH  14  21
ATOM     21  C   LIG    1        1.346  -2.535   1.258  0.00  0.00    -0.060 C 
BRANCH  21  22
ATOM     22  C   LIG    1        0.266  -1.959   2.137  0.00  0.00    +0.500 C 
ATOM     23  O   LIG    1        0.292  -2.152   3.341  0.00  0.00    -0.700 OA
ATOM     24  O   LIG    1       -0.634  -1.301   1.645  0.00  0.00    -0.690 OA
ENDBRANCH  21  22
ENDBRANCH  14  21
ENDBRANCH   2  14
TORSDOF 6
