REMARK  Name = ZINCvU0000000I2J.0
REMARK                            x       y       z     vdW  Elec       q    Type
REMARK                         _______ _______ _______ _____ _____    ______ ____
ROOT
ATOM      1  C   LIG    1       -2.394   1.383  -0.081  0.00  0.00    +0.530 C 
ATOM      2  N   LIG    1       -1.238   2.068   0.019  0.00  0.00    -0.670 N 
ATOM      3  H   LIG    1       -1.252   3.036   0.092  0.00  0.00    +0.410 HD
ATOM      4  O   LIG    1       -2.382   0.171  -0.088  0.00  0.00    -0.490 OA
ENDROOT
BRANCH   2   5
ATOM      5  C   LIG    1       -0.017   1.385   0.018  0.00  0.00    +0.140 A 
ATOM      6  C   LIG    1        1.097   1.954  -0.587  0.00  0.00    +0.010 A 
ATOM      7  C   LIG    1        2.307   1.285  -0.587  0.00  0.00    +0.030 A 
ATOM      8  C   LIG    1        2.416   0.048   0.015  0.00  0.00    +0.030 A 
ATOM      9  C   LIG    1        1.303  -0.533   0.625  0.00  0.00    -0.120 A 
ATOM     10  C   LIG    1        0.082   0.142   0.624  0.00  0.00    +0.090 A 
BRANCH   9  11
ATOM     11  C   LIG    1        1.417  -1.858   1.270  0.00  0.00    +0.560 C 
ATOM     12  N   LIG    1        2.598  -2.509   1.269  0.00  0.00    -0.700 N 
ATOM     13  H   LIG    1        3.372  -2.107   0.845  0.00  0.00    +0.400 HD
ATOM     14  O   LIG    1        0.446  -2.362   1.801  0.00  0.00    -0.520 OA
BRANCH  12  15
ATOM     15  C   LIG    1        2.711  -3.822   1.908  0.00  0.00    +0.220 C 
ATOM     16  C   LIG    1        3.943  -4.082   2.776  0.00  0.00    +0.010 C 
ATOM     17  C   LIG    1        3.815  -4.757   1.409  0.00  0.00    +0.020 C 
ENDBRANCH  12  15
ENDBRANCH   9  11
ENDBRANCH   2   5
BRANCH   1  18
ATOM     18  C   LIG    1       -3.703   2.124  -0.184  0.00  0.00    +0.110 C 
BRANCH  18  19
ATOM     19  S   LIG    1       -5.065   0.932  -0.304  0.00  0.00    -0.160 S 
BRANCH  19  20
ATOM     20  C   LIG    1       -6.529   1.996  -0.418  0.00  0.00    +0.070 C 
BRANCH  20  21
ATOM     21  C   LIG    1       -7.784   1.127  -0.528  0.00  0.00    +0.080 C 
BRANCH  21  22
ATOM     22  C   LIG    1       -9.019   2.024  -0.624  0.00  0.00    +0.190 C 
BRANCH  22  23
ATOM     23  O   LIG    1      -10.191   1.212  -0.726  0.00  0.00    -0.310 OA
BRANCH  23  27
ATOM     24  C   LIG    1      -13.809   3.173  -1.012  0.00  0.00    -0.110 A 
ATOM     25  C   LIG    1      -13.771   1.791  -1.018  0.00  0.00    +0.050 A 
ATOM     26  C   LIG    1      -12.561   1.132  -0.922  0.00  0.00    -0.020 A 
ATOM     27  C   LIG    1      -11.383   1.858  -0.820  0.00  0.00    +0.130 A 
ATOM     28  C   LIG    1      -11.424   3.245  -0.809  0.00  0.00    -0.080 A 
ATOM     29  C   LIG    1      -12.637   3.899  -0.910  0.00  0.00    +0.050 A 
BRANCH  24  31
ATOM     30  C   LIG    1      -16.022   3.489   0.060  0.00  0.00    +0.040 C 
ATOM     31  C   LIG    1      -15.131   3.889  -1.117  0.00  0.00    -0.030 C 
ATOM     32  C   LIG    1      -15.817   3.505  -2.430  0.00  0.00    +0.040 C 
ATOM     33  C   LIG    1      -14.896   5.401  -1.088  0.00  0.00    +0.030 C 
ENDBRANCH  24  31
ENDBRANCH  23  27
ENDBRANCH  22  23
ENDBRANCH  21  22
ENDBRANCH  20  21
ENDBRANCH  19  20
ENDBRANCH  18  19
ENDBRANCH   1  18
TORSDOF 11
