REMARK  Name = ZINCkj000005jbsp.1
REMARK                            x       y       z     vdW  Elec       q    Type
REMARK                         _______ _______ _______ _____ _____    ______ ____
ROOT
ATOM      1  N   LIG    1       -0.830   1.404  -1.306  0.00  0.00    -0.380 N 
ATOM      2  C   LIG    1       -2.136   0.734  -1.345  0.00  0.00    +0.270 C 
ATOM      3  C   LIG    1       -2.915   1.060  -0.068  0.00  0.00    +0.210 C 
ATOM      4  N   LIG    1       -2.146   0.608   1.100  0.00  0.00    -0.530 NA
ATOM      5  C   LIG    1       -0.826   1.251   1.138  0.00  0.00    +0.190 C 
ATOM      6  C   LIG    1       -1.000   2.767   1.256  0.00  0.00    +0.020 C 
ATOM      7  C   LIG    1       -0.065   0.923  -0.149  0.00  0.00    +0.280 C 
ATOM      8  H   LIG    1       -0.966   2.401  -1.229  0.00  0.00    +0.420 HD
ENDROOT
BRANCH   1   9
ATOM      9  C   LIG    1       -0.090   1.105  -2.540  0.00  0.00    +0.220 C 
BRANCH   9  11
ATOM     10  C   LIG    1        1.972   1.613  -3.856  0.00  0.00    +0.050 C 
ATOM     11  C   LIG    1        1.202   1.924  -2.571  0.00  0.00    +0.200 C 
BRANCH  11  12
ATOM     12  O   LIG    1        0.884   3.317  -2.532  0.00  0.00    -0.560 OA
ATOM     13  H   LIG    1        0.338   3.617  -3.272  0.00  0.00    +0.390 HD
ENDBRANCH  11  12
ENDBRANCH   9  11
ENDBRANCH   1   9
BRANCH   4  14
ATOM     14  C   LIG    1       -2.887   0.852   2.345  0.00  0.00    +0.260 C 
BRANCH  14  15
ATOM     15  C   LIG    1       -4.126  -0.005   2.369  0.00  0.00    -0.210 A 
ATOM     16  C   LIG    1       -5.371   0.556   2.150  0.00  0.00    +0.120 A 
ATOM     17  C   LIG    1       -6.485  -0.272   2.176  0.00  0.00    -0.050 A 
ATOM     18  C   LIG    1       -6.320  -1.621   2.429  0.00  0.00    +0.190 A 
ATOM     19  N   LIG    1       -5.120  -2.128   2.640  0.00  0.00    -0.520 NA
ATOM     20 BR   LIG    1       -7.833  -2.754   2.474  0.00  0.00    +0.010 Br
ATOM     21  C   LIG    1       -4.033  -1.371   2.617  0.00  0.00    +0.440 A 
BRANCH  21  22
ATOM     22  N   LIG    1       -2.788  -1.946   2.845  0.00  0.00    -0.840 N 
ATOM     23  H   LIG    1       -2.710  -2.908   2.946  0.00  0.00    +0.410 HD
ATOM     24  H   LIG    1       -1.998  -1.387   2.903  0.00  0.00    +0.410 HD
ENDBRANCH  21  22
ENDBRANCH  14  15
ENDBRANCH   4  14
TORSDOF 6
