REMARK  Name = ZINCkj000005jbsp.0
REMARK                            x       y       z     vdW  Elec       q    Type
REMARK                         _______ _______ _______ _____ _____    ______ ____
ROOT
ATOM      1  N   LIG    1        0.847  -0.310  -1.613  0.00  0.00    -0.380 N 
ATOM      2  C   LIG    1        2.219   0.173  -1.410  0.00  0.00    +0.270 C 
ATOM      3  C   LIG    1        2.208   1.697  -1.269  0.00  0.00    +0.210 C 
ATOM      4  N   LIG    1        1.363   2.074  -0.128  0.00  0.00    -0.530 NA
ATOM      5  C   LIG    1       -0.008   1.576  -0.306  0.00  0.00    +0.130 C 
ATOM      6  C   LIG    1       -0.851   1.954   0.914  0.00  0.00    +0.080 C 
ATOM      7  C   LIG    1        0.021   0.053  -0.454  0.00  0.00    +0.280 C 
ATOM      8  H   LIG    1        0.462   0.112  -2.445  0.00  0.00    +0.420 HD
ENDROOT
BRANCH   1   9
ATOM      9  C   LIG    1        0.860  -1.771  -1.766  0.00  0.00    +0.220 C 
BRANCH   9  11
ATOM     10  C   LIG    1        1.629  -3.665  -3.203  0.00  0.00    +0.050 C 
ATOM     11  C   LIG    1        1.615  -2.144  -3.043  0.00  0.00    +0.200 C 
BRANCH  11  12
ATOM     12  O   LIG    1        0.966  -1.552  -4.171  0.00  0.00    -0.560 OA
ATOM     13  H   LIG    1        0.049  -1.835  -4.289  0.00  0.00    +0.390 HD
ENDBRANCH  11  12
ENDBRANCH   9  11
ENDBRANCH   1   9
BRANCH   4  14
ATOM     14  C   LIG    1        1.372   3.529   0.075  0.00  0.00    +0.260 C 
BRANCH  14  15
ATOM     15  C   LIG    1        2.767   3.979   0.426  0.00  0.00    -0.210 A 
ATOM     16  C   LIG    1        3.551   4.627  -0.512  0.00  0.00    +0.120 A 
ATOM     17  C   LIG    1        4.829   5.027  -0.145  0.00  0.00    -0.050 A 
ATOM     18  C   LIG    1        5.280   4.761   1.133  0.00  0.00    +0.190 A 
ATOM     19  N   LIG    1        4.511   4.136   2.006  0.00  0.00    -0.520 NA
ATOM     20 BR   LIG    1        7.021   5.298   1.638  0.00  0.00    +0.010 Br
ATOM     21  C   LIG    1        3.286   3.743   1.695  0.00  0.00    +0.440 A 
BRANCH  21  22
ATOM     22  N   LIG    1        2.511   3.088   2.645  0.00  0.00    -0.840 N 
ATOM     23  H   LIG    1        2.834   2.995   3.554  0.00  0.00    +0.410 HD
ATOM     24  H   LIG    1        1.646   2.724   2.398  0.00  0.00    +0.410 HD
ENDBRANCH  21  22
ENDBRANCH  14  15
ENDBRANCH   4  14
TORSDOF 6
