REMARK  Name = ZINCBu0000000jXL.1
REMARK                            x       y       z     vdW  Elec       q    Type
REMARK                         _______ _______ _______ _____ _____    ______ ____
ROOT
ATOM      1  C   LIG    1       -3.064   1.575  -4.596  0.00  0.00    +0.680 C 
ATOM      2  N   LIG    1       -2.397   1.199  -3.510  0.00  0.00    -0.610 NA
ATOM      3  C   LIG    1       -2.844   1.538  -2.305  0.00  0.00    +0.630 C 
ATOM      4  N   LIG    1       -3.953   2.261  -2.187  0.00  0.00    -0.560 NA
ATOM      5  C   LIG    1       -4.618   2.641  -3.274  0.00  0.00    +0.630 C 
ATOM      6  H   LIG    1       -1.585   0.674  -3.596  0.00  0.00    +0.440 HD
ATOM      7  N   LIG    1       -4.173   2.298  -4.479  0.00  0.00    -0.600 NA
ENDROOT
BRANCH   5   8
ATOM      8  N   LIG    1       -5.769   3.392  -3.151  0.00  0.00    -0.420 NA
ATOM      9  C   LIG    1       -5.484   4.705  -2.515  0.00  0.00    +0.240 C 
ATOM     10  C   LIG    1       -6.692   5.579  -2.942  0.00  0.00    +0.090 C 
ATOM     11  C   LIG    1       -6.968   5.096  -4.375  0.00  0.00    -0.030 C 
ATOM     12  C   LIG    1       -6.370   6.056  -5.404  0.00  0.00    +0.270 C 
ATOM     13  N   LIG    1       -7.516   6.513  -6.201  0.00  0.00    -0.750 N 
ATOM     14  H   LIG    1       -7.464   7.137  -6.942  0.00  0.00    +0.420 HD
ATOM     15  C   LIG    1       -8.690   5.914  -5.737  0.00  0.00    +0.200 A 
ATOM     16  C   LIG    1       -9.999   6.061  -6.199  0.00  0.00    -0.060 A 
ATOM     17  C   LIG    1      -11.030   5.372  -5.598  0.00  0.00    +0.070 A 
ATOM     18  C   LIG    1      -10.775   4.530  -4.531  0.00  0.00    -0.040 A 
ATOM     19  C   LIG    1       -9.482   4.379  -4.067  0.00  0.00    +0.070 A 
ATOM     20  C   LIG    1       -8.444   5.067  -4.664  0.00  0.00    -0.170 A 
ATOM     21  C   LIG    1       -6.345   3.703  -4.481  0.00  0.00    +0.260 C 
ENDBRANCH   5   8
BRANCH   3  22
ATOM     22  N   LIG    1       -2.154   1.144  -1.177  0.00  0.00    -0.460 NA
ATOM     23  C   LIG    1       -0.755   1.594  -1.231  0.00  0.00    +0.200 C 
ATOM     24  C   LIG    1       -0.013   1.086   0.008  0.00  0.00    +0.270 C 
ATOM     25  O   LIG    1       -0.684   1.548   1.183  0.00  0.00    -0.360 OA
ATOM     26  C   LIG    1       -2.049   1.128   1.269  0.00  0.00    +0.220 C 
ATOM     27  C   LIG    1       -2.812   1.636   0.042  0.00  0.00    +0.250 C 
BRANCH  26  28
ATOM     28  C   LIG    1       -2.673   1.692   2.519  0.00  0.00    -0.050 A 
ATOM     29  C   LIG    1       -2.375   2.982   2.918  0.00  0.00    +0.030 A 
ATOM     30  C   LIG    1       -2.950   3.501   4.063  0.00  0.00    +0.130 A 
ATOM     31  C   LIG    1       -3.816   2.728   4.813  0.00  0.00    -0.650 A 
ATOM     32  C   LIG    1       -4.110   1.437   4.416  0.00  0.00    +0.130 A 
ATOM     33  C   LIG    1       -3.538   0.919   3.269  0.00  0.00    +0.020 A 
BRANCH  31  34
ATOM     34  S   LIG    1       -4.545   3.388   6.275  0.00  0.00    +2.500 S 
ATOM     35  O   LIG    1       -5.756   2.659   6.423  0.00  0.00    -0.930 OA
ATOM     36  O   LIG    1       -4.557   4.792   6.058  0.00  0.00    -0.930 OA
ATOM     37  C   LIG    1       -3.379   2.958   7.596  0.00  0.00    -0.250 C 
ENDBRANCH  31  34
ENDBRANCH  26  28
ENDBRANCH   3  22
BRANCH   1  39
ATOM     38  C   LIG    1       -1.379   0.422  -5.978  0.00  0.00    +0.350 C 
ATOM     39  N   LIG    1       -2.602   1.219  -5.847  0.00  0.00    -0.650 NA
ATOM     40  H   LIG    1       -3.086   1.497  -6.641  0.00  0.00    +0.450 HD
ENDBRANCH   1  39
TORSDOF 5
