REMARK  Name = ZINCBu0000000jXL.0
REMARK                            x       y       z     vdW  Elec       q    Type
REMARK                         _______ _______ _______ _____ _____    ______ ____
ROOT
ATOM      1  C   LIG    1        0.304  -3.785  -2.408  0.00  0.00    +0.660 C 
ATOM      2  N   LIG    1        0.308  -2.458  -2.338  0.00  0.00    -0.530 NA
ATOM      3  C   LIG    1        0.753  -1.851  -1.242  0.00  0.00    +0.650 C 
ATOM      4  N   LIG    1        1.199  -2.571  -0.218  0.00  0.00    -0.530 NA
ATOM      5  C   LIG    1        1.190  -3.899  -0.285  0.00  0.00    +0.640 C 
ATOM      6  N   LIG    1        0.745  -4.506  -1.381  0.00  0.00    -0.620 NA
ATOM      7  H   LIG    1        0.743  -5.474  -1.432  0.00  0.00    +0.440 HD
ENDROOT
BRANCH   5   8
ATOM      8  N   LIG    1        1.649  -4.647   0.780  0.00  0.00    -0.460 NA
ATOM      9  C   LIG    1        2.793  -5.496   0.379  0.00  0.00    +0.210 C 
ATOM     10  C   LIG    1        2.688  -6.806   1.186  0.00  0.00    +0.070 C 
ATOM     11  C   LIG    1        1.404  -6.657   2.012  0.00  0.00    -0.010 C 
ATOM     12  C   LIG    1        1.702  -6.242   3.450  0.00  0.00    +0.290 C 
ATOM     13  N   LIG    1        1.109  -7.304   4.274  0.00  0.00    -0.740 N 
ATOM     14  H   LIG    1        1.129  -7.333   5.243  0.00  0.00    +0.420 HD
ATOM     15  C   LIG    1        0.511  -8.266   3.455  0.00  0.00    +0.210 A 
ATOM     16  C   LIG    1       -0.163  -9.435   3.812  0.00  0.00    -0.060 A 
ATOM     17  C   LIG    1       -0.686 -10.261   2.840  0.00  0.00    +0.070 A 
ATOM     18  C   LIG    1       -0.546  -9.938   1.503  0.00  0.00    -0.040 A 
ATOM     19  C   LIG    1        0.120  -8.783   1.141  0.00  0.00    +0.050 A 
ATOM     20  C   LIG    1        0.647  -7.949   2.109  0.00  0.00    -0.190 A 
ATOM     21  C   LIG    1        0.598  -5.579   1.268  0.00  0.00    +0.240 C 
ENDBRANCH   5   8
BRANCH   3  22
ATOM     22  N   LIG    1        0.756  -0.472  -1.170  0.00  0.00    -0.470 NA
ATOM     23  C   LIG    1        0.002  -0.004   0.002  0.00  0.00    +0.200 C 
ATOM     24  C   LIG    1       -0.019   1.527   0.010  0.00  0.00    +0.260 C 
ATOM     25  O   LIG    1        1.325   2.017   0.000  0.00  0.00    -0.360 OA
ATOM     26  C   LIG    1        2.088   1.581  -1.128  0.00  0.00    +0.230 C 
ATOM     27  C   LIG    1        2.130   0.050  -1.148  0.00  0.00    +0.210 C 
BRANCH  26  28
ATOM     28  C   LIG    1        3.491   2.121  -1.026  0.00  0.00    -0.040 A 
ATOM     29  C   LIG    1        4.129   2.163   0.199  0.00  0.00    +0.030 A 
ATOM     30  C   LIG    1        5.418   2.655   0.291  0.00  0.00    +0.130 A 
ATOM     31  C   LIG    1        6.065   3.114  -0.841  0.00  0.00    -0.650 A 
ATOM     32  C   LIG    1        5.425   3.077  -2.065  0.00  0.00    +0.130 A 
ATOM     33  C   LIG    1        4.138   2.581  -2.158  0.00  0.00    +0.020 A 
BRANCH  31  34
ATOM     34  S   LIG    1        7.705   3.746  -0.722  0.00  0.00    +2.500 S 
ATOM     35  O   LIG    1        8.256   3.535  -2.015  0.00  0.00    -0.930 OA
ATOM     36  O   LIG    1        8.249   3.098   0.420  0.00  0.00    -0.930 OA
ATOM     37  C   LIG    1        7.486   5.518  -0.405  0.00  0.00    -0.250 C 
ENDBRANCH  31  34
ENDBRANCH  26  28
ENDBRANCH   3  22
BRANCH   1  39
ATOM     38  C   LIG    1       -0.162  -5.878  -3.622  0.00  0.00    +0.350 C 
ATOM     39  N   LIG    1       -0.157  -4.415  -3.545  0.00  0.00    -0.640 NA
ATOM     40  H   LIG    1       -0.479  -3.889  -4.294  0.00  0.00    +0.450 HD
ENDBRANCH   1  39
TORSDOF 5
