REMARK  Name = ZINCqH0000034z2B.0
REMARK                            x       y       z     vdW  Elec       q    Type
REMARK                         _______ _______ _______ _____ _____    ______ ____
ROOT
ATOM      1  C   LIG    1        6.096  -0.426  -0.283  0.00  0.00    +0.400 C 
ENDROOT
BRANCH   1   3
ATOM      2  C   LIG    1        7.673   1.223   0.829  0.00  0.00    +0.320 C 
ATOM      3  N   LIG    1        7.115   0.622  -0.386  0.00  0.00    -0.980 NA
BRANCH   3   4
ATOM      4  S   LIG    1        7.636   1.127  -1.874  0.00  0.00    +2.690 S 
ATOM      5  O   LIG    1        7.377   0.058  -2.774  0.00  0.00    -0.950 OA
ATOM      6  O   LIG    1        8.930   1.683  -1.679  0.00  0.00    -0.940 OA
BRANCH   4   7
ATOM      7  C   LIG    1        6.593   2.458  -2.369  0.00  0.00    -0.670 A 
ATOM      8  C   LIG    1        5.443   2.202  -3.092  0.00  0.00    +0.140 A 
ATOM      9  C   LIG    1        4.621   3.245  -3.476  0.00  0.00    +0.020 A 
ATOM     10  C   LIG    1        4.956   4.546  -3.146  0.00  0.00    +0.020 A 
ATOM     11  C   LIG    1        6.110   4.802  -2.426  0.00  0.00    +0.010 A 
ATOM     12 CL   LIG    1        3.929   5.858  -3.634  0.00  0.00    -0.050 Cl
ATOM     13  C   LIG    1        6.927   3.758  -2.038  0.00  0.00    +0.150 A 
ENDBRANCH   4   7
ENDBRANCH   3   4
ENDBRANCH   1   3
BRANCH   1  14
ATOM     14  C   LIG    1        4.736   0.208  -0.146  0.00  0.00    +0.430 C 
ATOM     15  O   LIG    1        4.628   1.411  -0.135  0.00  0.00    -0.470 OA
BRANCH  14  16
ATOM     16  O   LIG    1        3.643  -0.565  -0.036  0.00  0.00    -0.290 OA
BRANCH  16  17
ATOM     17  C   LIG    1        2.440   0.065  -0.038  0.00  0.00    +0.090 A 
ATOM     18  C   LIG    1        1.832   0.392   1.141  0.00  0.00    +0.020 A 
ATOM     19  C   LIG    1        0.599   1.038   1.156  0.00  0.00    +0.020 A 
ATOM     20  C   LIG    1       -0.037   1.363  -0.003  0.00  0.00    +0.030 A 
ATOM     21  C   LIG    1        0.554   1.044  -1.237  0.00  0.00    -0.040 A 
ATOM     22  C   LIG    1       -0.074   1.365  -2.452  0.00  0.00    +0.030 A 
ATOM     23  C   LIG    1        0.529   1.041  -3.629  0.00  0.00    +0.020 A 
ATOM     24  C   LIG    1        1.762   0.395  -3.648  0.00  0.00    +0.020 A 
ATOM     25  C   LIG    1        2.400   0.068  -2.490  0.00  0.00    +0.010 A 
ATOM     26  C   LIG    1        1.810   0.387  -1.258  0.00  0.00    -0.050 A 
ENDBRANCH  16  17
ENDBRANCH  14  16
ENDBRANCH   1  14
TORSDOF 6
