REMARK  Name = ZINCpk00000xIgGA.0
REMARK                            x       y       z     vdW  Elec       q    Type
REMARK                         _______ _______ _______ _____ _____    ______ ____
ROOT
ATOM      1  C   LIG    1       10.062  -0.501   0.667  0.00  0.00    +0.170 C 
ATOM      2  C   LIG    1        9.934  -0.850   2.173  0.00  0.00    +0.100 C 
ATOM      3  C   LIG    1        8.407  -0.952   2.375  0.00  0.00    +0.340 C 
ATOM      4  N   LIG    1        7.771  -0.183   1.294  0.00  0.00    -0.620 N 
ATOM      5  C   LIG    1        6.444  -0.044   1.106  0.00  0.00    +0.510 C 
ATOM      6  O   LIG    1        5.664  -0.578   1.865  0.00  0.00    -0.490 OA
ATOM      7  C   LIG    1        8.826   0.403   0.448  0.00  0.00    +0.250 C 
ENDROOT
BRANCH   3   8
ATOM      8  C   LIG    1        8.024  -0.370   3.711  0.00  0.00    +0.170 A 
ATOM      9  N   LIG    1        8.493  -0.729   4.875  0.00  0.00    -0.280 NA
ATOM     10  N   LIG    1        7.949  -0.020   5.799  0.00  0.00    -0.290 NA
ATOM     11  C   LIG    1        7.101   0.818   5.268  0.00  0.00    +0.180 A 
ATOM     12  C   LIG    1        6.252   1.820   6.008  0.00  0.00    +0.200 C 
ATOM     13  N   LIG    1        7.124   0.620   3.928  0.00  0.00    -0.560 N 
ATOM     14  H   LIG    1        6.602   1.091   3.259  0.00  0.00    +0.420 HD
ENDBRANCH   3   8
BRANCH   1  16
ATOM     15  C   LIG    1       10.719  -1.598  -1.360  0.00  0.00    +0.210 C 
ATOM     16  O   LIG    1        9.980  -1.678  -0.140  0.00  0.00    -0.370 OA
ENDBRANCH   1  16
BRANCH   5  17
ATOM     17  C   LIG    1        5.930   0.776  -0.049  0.00  0.00    +0.370 C 
BRANCH  17  18
ATOM     18  N   LIG    1        4.465   0.774  -0.036  0.00  0.00    -0.320 N 
ATOM     19  C   LIG    1        3.694   1.869  -0.023  0.00  0.00    +0.260 A 
ATOM     20  C   LIG    1        2.374   1.460  -0.013  0.00  0.00    -0.200 A 
ATOM     21  C   LIG    1        1.127   2.122   0.003  0.00  0.00    +0.070 A 
ATOM     22  C   LIG    1       -0.017   1.393   0.010  0.00  0.00    -0.030 A 
ATOM     23  C   LIG    1        0.002  -0.004   0.002  0.00  0.00    +0.050 A 
ATOM     24  C   LIG    1        1.164  -0.703  -0.012  0.00  0.00    +0.030 A 
ATOM     25  C   LIG    1        2.394  -0.011  -0.021  0.00  0.00    +0.100 A 
ATOM     26  N   LIG    1        3.664  -0.374  -0.034  0.00  0.00    -0.270 NA
ENDBRANCH  17  18
ENDBRANCH   5  17
TORSDOF 4
