REMARK  Name = ZINCpk00000xIgGA.1
REMARK                            x       y       z     vdW  Elec       q    Type
REMARK                         _______ _______ _______ _____ _____    ______ ____
ROOT
ATOM      1  C   LIG    1       -3.391  -0.909  -1.047  0.00  0.00    +0.180 C 
ATOM      2  C   LIG    1       -1.876  -0.891  -1.384  0.00  0.00    +0.080 C 
ATOM      3  C   LIG    1       -1.212  -0.896   0.010  0.00  0.00    +0.350 C 
ATOM      4  N   LIG    1       -2.202  -0.386   0.970  0.00  0.00    -0.600 N 
ATOM      5  C   LIG    1       -2.013  -0.257   2.298  0.00  0.00    +0.520 C 
ATOM      6  O   LIG    1       -0.953  -0.576   2.794  0.00  0.00    -0.490 OA
ATOM      7  C   LIG    1       -3.435  -0.039   0.234  0.00  0.00    +0.260 C 
ENDROOT
BRANCH   3   8
ATOM      8  C   LIG    1        0.002  -0.004   0.002  0.00  0.00    +0.230 A 
ATOM      9  N   LIG    1       -0.016   1.303   0.009  0.00  0.00    -0.310 NA
ATOM     10  N   LIG    1        1.323   1.727  -0.001  0.00  0.00    -0.480 N 
ATOM     11  H   LIG    1        1.643   2.643   0.001  0.00  0.00    +0.440 HD
ATOM     12  C   LIG    1        2.073   0.612  -0.015  0.00  0.00    +0.290 A 
ATOM     13  C   LIG    1        3.579   0.558  -0.029  0.00  0.00    +0.190 C 
ATOM     14  N   LIG    1        1.268  -0.419  -0.012  0.00  0.00    -0.530 NA
ENDBRANCH   3   8
BRANCH   1  16
ATOM     15  C   LIG    1       -5.208  -2.470  -1.121  0.00  0.00    +0.210 C 
ATOM     16  O   LIG    1       -3.840  -2.239  -0.779  0.00  0.00    -0.370 OA
ENDBRANCH   1  16
BRANCH   5  17
ATOM     17  C   LIG    1       -3.120   0.283   3.167  0.00  0.00    +0.360 C 
BRANCH  17  18
ATOM     18  N   LIG    1       -2.670   0.324   4.561  0.00  0.00    -0.310 N 
ATOM     19  C   LIG    1       -2.678   1.415   5.339  0.00  0.00    +0.250 A 
ATOM     20  C   LIG    1       -2.185   1.055   6.580  0.00  0.00    -0.200 A 
ATOM     21  C   LIG    1       -1.953   1.736   7.794  0.00  0.00    +0.070 A 
ATOM     22  C   LIG    1       -1.436   1.062   8.851  0.00  0.00    -0.030 A 
ATOM     23  C   LIG    1       -1.123  -0.297   8.774  0.00  0.00    +0.050 A 
ATOM     24  C   LIG    1       -1.321  -1.013   7.638  0.00  0.00    +0.030 A 
ATOM     25  C   LIG    1       -1.856  -0.377   6.497  0.00  0.00    +0.100 A 
ATOM     26  N   LIG    1       -2.163  -0.768   5.274  0.00  0.00    -0.270 NA
ENDBRANCH  17  18
ENDBRANCH   5  17
TORSDOF 4
