REMARK  Name = ZINCrD000000CIlb.0
REMARK                            x       y       z     vdW  Elec       q    Type
REMARK                         _______ _______ _______ _____ _____    ______ ____
ROOT
ATOM      1  O   LIG    1       -2.263   0.012   2.850  0.00  0.00    -0.530 OA
ATOM      2  C   LIG    1       -2.848   0.515   1.910  0.00  0.00    +0.610 C 
ATOM      3  N   LIG    1       -2.157   1.182   0.965  0.00  0.00    -0.600 N 
ATOM      4  C   LIG    1       -0.713   1.431   1.118  0.00  0.00    +0.310 C 
ATOM      5  C   LIG    1        0.041   0.686   0.011  0.00  0.00    +0.110 C 
ATOM      6  C   LIG    1       -0.657   0.923  -1.308  0.00  0.00    +0.090 A 
ATOM      7  C   LIG    1       -1.930   1.361  -1.423  0.00  0.00    -0.190 A 
ATOM      8  C   LIG    1       -2.226   1.454  -2.836  0.00  0.00    -0.070 A 
ATOM      9  C   LIG    1       -3.368   1.843  -3.543  0.00  0.00    +0.040 A 
ATOM     10  C   LIG    1       -3.289   1.806  -4.925  0.00  0.00    +0.070 A 
ATOM     11  C   LIG    1       -2.136   1.405  -5.583  0.00  0.00    +0.000 A 
ATOM     12  C   LIG    1       -0.995   1.017  -4.902  0.00  0.00    +0.040 A 
ATOM     13  F   LIG    1       -4.367   2.172  -5.654  0.00  0.00    -0.140 F 
ATOM     14  C   LIG    1       -1.047   1.044  -3.510  0.00  0.00    +0.090 A 
ATOM     15  N   LIG    1       -0.121   0.733  -2.555  0.00  0.00    -0.580 N 
ATOM     16  H   LIG    1        0.781   0.422  -2.733  0.00  0.00    +0.420 HD
ATOM     17  C   LIG    1       -2.824   1.683  -0.250  0.00  0.00    +0.380 C 
ENDROOT
BRANCH   2  18
ATOM     18  C   LIG    1       -4.314   0.396   1.805  0.00  0.00    -0.070 A 
ATOM     19  C   LIG    1       -5.124  -0.348   2.606  0.00  0.00    +0.250 A 
ATOM     20  O   LIG    1       -6.380  -0.170   2.166  0.00  0.00    -0.190 OA
ATOM     21  C   LIG    1       -6.342   0.658   1.113  0.00  0.00    +0.210 A 
ATOM     22  N   LIG    1       -5.110   1.005   0.885  0.00  0.00    -0.460 NA
BRANCH  21  23
ATOM     23  C   LIG    1       -7.538   1.116   0.318  0.00  0.00    +0.130 C 
ATOM     24  C   LIG    1       -8.513   1.855   1.240  0.00  0.00    +0.010 C 
ATOM     25  C   LIG    1       -9.761   2.244   0.442  0.00  0.00    +0.220 C 
ATOM     26  O   LIG    1      -10.352   1.071  -0.120  0.00  0.00    -0.380 OA
ATOM     27  C   LIG    1       -9.502   0.367  -1.028  0.00  0.00    +0.220 C 
ATOM     28  C   LIG    1       -8.245  -0.100  -0.289  0.00  0.00    +0.010 C 
ENDBRANCH  21  23
ENDBRANCH   2  18
TORSDOF 2
