REMARK  Name = ZINCtj00001yywyP.0
REMARK                            x       y       z     vdW  Elec       q    Type
REMARK                         _______ _______ _______ _____ _____    ______ ____
ROOT
ATOM      1  C   LIG    1       -3.947   1.510   4.788  0.00  0.00    +0.000 C 
ATOM      2  C   LIG    1       -4.900   2.680   4.435  0.00  0.00    +0.280 C 
ATOM      3  N   LIG    1       -6.158   2.317   5.137  0.00  0.00    -0.390 N 
ATOM      4  C   LIG    1       -5.743   1.747   6.437  0.00  0.00    +0.280 C 
ATOM      5  H   LIG    1       -6.669   1.631   4.603  0.00  0.00    +0.430 HD
ATOM      6  C   LIG    1       -4.317   1.187   6.253  0.00  0.00    +0.130 C 
ENDROOT
BRANCH   1  16
ATOM      7  C   LIG    1        0.085   2.718   4.728  0.00  0.00    +0.080 C 
ATOM      8  C   LIG    1       -0.599   2.752   3.360  0.00  0.00    +0.220 C 
ATOM      9  C   LIG    1        0.107   1.788   2.405  0.00  0.00    +0.280 C 
ATOM     10  N   LIG    1       -0.698   1.558   1.213  0.00  0.00    -0.600 N 
ATOM     11  C   LIG    1       -2.016   1.753   1.141  0.00  0.00    +0.500 C 
ATOM     12  C   LIG    1       -2.825   2.318   2.276  0.00  0.00    +0.310 C 
ATOM     13  O   LIG    1       -2.589   1.455   0.115  0.00  0.00    -0.530 OA
ATOM     14  C   LIG    1       -0.013   1.086   0.008  0.00  0.00    +0.290 C 
ATOM     15  N   LIG    1       -2.001   2.322   3.494  0.00  0.00    -0.610 N 
ATOM     16  C   LIG    1       -2.508   1.946   4.685  0.00  0.00    +0.540 C 
ATOM     17  O   LIG    1       -1.806   1.959   5.674  0.00  0.00    -0.500 OA
ENDBRANCH   1  16
BRANCH   6  18
ATOM     18  C   LIG    1       -4.303  -0.303   6.480  0.00  0.00    -0.270 A 
ATOM     19  C   LIG    1       -3.522  -0.966   7.364  0.00  0.00    +0.280 A 
ATOM     20  N   LIG    1       -3.809  -2.280   7.261  0.00  0.00    -0.360 N 
ATOM     21  N   LIG    1       -4.799  -2.430   6.281  0.00  0.00    -0.280 NA
ATOM     22  C   LIG    1       -3.194  -3.360   8.036  0.00  0.00    +0.370 C 
ATOM     23  C   LIG    1       -5.099  -1.244   5.818  0.00  0.00    +0.220 A 
ENDBRANCH   6  18
BRANCH   3  24
ATOM     24  C   LIG    1       -6.983   3.514   5.348  0.00  0.00    +0.330 C 
BRANCH  24  25
ATOM     25  C   LIG    1       -7.453   4.041   4.017  0.00  0.00    -0.160 A 
ATOM     26  C   LIG    1       -6.694   4.974   3.337  0.00  0.00    +0.030 A 
ATOM     27  C   LIG    1       -7.123   5.455   2.114  0.00  0.00    +0.030 A 
ATOM     28  C   LIG    1       -8.316   5.009   1.575  0.00  0.00    +0.060 A 
ATOM     29  C   LIG    1       -9.078   4.079   2.258  0.00  0.00    +0.030 A 
ATOM     30  C   LIG    1       -8.646   3.595   3.479  0.00  0.00    +0.040 A 
ENDBRANCH  24  25
ENDBRANCH   3  24
TORSDOF 4
