REMARK  Name = ZINCtj00001yywyP.1
REMARK                            x       y       z     vdW  Elec       q    Type
REMARK                         _______ _______ _______ _____ _____    ______ ____
ROOT
ATOM      1  C   LIG    1        4.081   1.479  -1.282  0.00  0.00    +0.010 C 
ATOM      2  C   LIG    1        4.877   2.685  -0.739  0.00  0.00    +0.280 C 
ATOM      3  N   LIG    1        5.287   2.278   0.629  0.00  0.00    -0.390 N 
ATOM      4  C   LIG    1        4.103   1.560   1.166  0.00  0.00    +0.280 C 
ATOM      5  H   LIG    1        6.086   1.663   0.590  0.00  0.00    +0.430 HD
ATOM      6  C   LIG    1        3.572   0.738  -0.028  0.00  0.00    +0.130 C 
ENDROOT
BRANCH   1  16
ATOM      7  C   LIG    1        6.591  -1.179  -3.369  0.00  0.00    +0.080 C 
ATOM      8  C   LIG    1        6.423   0.183  -4.044  0.00  0.00    +0.220 C 
ATOM      9  C   LIG    1        5.774   0.004  -5.424  0.00  0.00    +0.280 C 
ATOM     10  N   LIG    1        5.315   1.283  -5.948  0.00  0.00    -0.600 N 
ATOM     11  C   LIG    1        5.049   2.356  -5.201  0.00  0.00    +0.500 C 
ATOM     12  C   LIG    1        5.284   2.400  -3.716  0.00  0.00    +0.320 C 
ATOM     13  O   LIG    1        4.597   3.341  -5.745  0.00  0.00    -0.530 OA
ATOM     14  C   LIG    1        5.134   1.400  -7.397  0.00  0.00    +0.300 C 
ATOM     15  N   LIG    1        5.535   1.034  -3.233  0.00  0.00    -0.610 N 
ATOM     16  C   LIG    1        4.980   0.580  -2.092  0.00  0.00    +0.520 C 
ATOM     17  O   LIG    1        5.204  -0.551  -1.716  0.00  0.00    -0.500 OA
ENDBRANCH   1  16
BRANCH   6  18
ATOM     18  C   LIG    1        2.066   0.708  -0.014  0.00  0.00    -0.270 A 
ATOM     19  C   LIG    1        1.292  -0.402  -0.012  0.00  0.00    +0.270 A 
ATOM     20  N   LIG    1        0.002  -0.004   0.002  0.00  0.00    -0.360 N 
ATOM     21  N   LIG    1       -0.017   1.397   0.010  0.00  0.00    -0.280 NA
ATOM     22  C   LIG    1       -1.171  -0.882   0.008  0.00  0.00    +0.370 C 
ATOM     23  C   LIG    1        1.220   1.822   0.000  0.00  0.00    +0.230 A 
ENDBRANCH   6  18
BRANCH   3  24
ATOM     24  C   LIG    1        5.589   3.460   1.448  0.00  0.00    +0.330 C 
BRANCH  24  25
ATOM     25  C   LIG    1        6.811   4.152   0.901  0.00  0.00    -0.160 A 
ATOM     26  C   LIG    1        8.066   3.805   1.362  0.00  0.00    +0.040 A 
ATOM     27  C   LIG    1        9.187   4.437   0.857  0.00  0.00    +0.030 A 
ATOM     28  C   LIG    1        9.052   5.422  -0.103  0.00  0.00    +0.060 A 
ATOM     29  C   LIG    1        7.795   5.773  -0.561  0.00  0.00    +0.030 A 
ATOM     30  C   LIG    1        6.675   5.138  -0.059  0.00  0.00    +0.030 A 
ENDBRANCH  24  25
ENDBRANCH   3  24
TORSDOF 4
