REMARK  Name = ZINCvU00000005RF.0
REMARK                            x       y       z     vdW  Elec       q    Type
REMARK                         _______ _______ _______ _____ _____    ______ ____
ROOT
ATOM      1  C   LIG    1       -3.137   1.627   0.297  0.00  0.00    +0.410 A 
ATOM      2  C   LIG    1       -2.147   1.778   1.298  0.00  0.00    -0.180 A 
ATOM      3  C   LIG    1       -2.569   2.177   2.570  0.00  0.00    +0.110 A 
ATOM      4  S   LIG    1       -1.182   2.289   3.644  0.00  0.00    +0.190 S 
ATOM      5  C   LIG    1       -0.076   1.796   2.376  0.00  0.00    -0.180 A 
ATOM      6  C   LIG    1        1.413   1.650   2.557  0.00  0.00    +0.140 C 
ATOM      7  N   LIG    1       -3.871   2.406   2.782  0.00  0.00    -0.480 NA
ATOM      8  C   LIG    1       -4.749   2.257   1.818  0.00  0.00    +0.380 A 
ATOM      9  C   LIG    1       -0.713   1.569   1.243  0.00  0.00    -0.060 A 
ATOM     10  C   LIG    1       -0.004   1.131  -0.013  0.00  0.00    +0.130 C 
ATOM     11  N   LIG    1       -4.400   1.877   0.602  0.00  0.00    -0.560 NA
ENDROOT
BRANCH   1  12
ATOM     12  O   LIG    1       -2.796   1.239  -0.955  0.00  0.00    -0.230 OA
BRANCH  12  19
ATOM     13  C   LIG    1       -6.902   0.323  -4.633  0.00  0.00    +0.030 A 
ATOM     14  C   LIG    1       -7.498   1.407  -5.194  0.00  0.00    -0.080 A 
ATOM     15  C   LIG    1       -7.073   2.704  -4.839  0.00  0.00    +0.510 A 
ATOM     16  O   LIG    1       -6.084   2.904  -3.954  0.00  0.00    -0.270 OA
ATOM     17  C   LIG    1       -5.450   1.870  -3.359  0.00  0.00    +0.160 A 
ATOM     18  C   LIG    1       -4.431   2.094  -2.446  0.00  0.00    +0.020 A 
ATOM     19  C   LIG    1       -3.794   1.018  -1.849  0.00  0.00    +0.140 A 
ATOM     20  C   LIG    1       -4.165  -0.288  -2.161  0.00  0.00    +0.010 A 
ATOM     21  C   LIG    1       -5.170  -0.526  -3.054  0.00  0.00    +0.110 A 
ATOM     22  O   LIG    1       -7.616   3.667  -5.350  0.00  0.00    -0.460 OA
ATOM     23  C   LIG    1       -5.824   0.548  -3.667  0.00  0.00    -0.140 A 
BRANCH  13  25
ATOM     24  C   LIG    1       -6.438  -1.618  -6.105  0.00  0.00    +0.040 C 
ATOM     25  C   LIG    1       -7.338  -1.074  -4.994  0.00  0.00    +0.080 C 
ENDBRANCH  13  25
ENDBRANCH  12  19
ENDBRANCH   1  12
BRANCH   8  26
ATOM     26  C   LIG    1       -6.203   2.527   2.108  0.00  0.00    +0.300 C 
BRANCH  26  27
ATOM     27  N   LIG    1       -6.501   3.940   1.839  0.00  0.00    -0.510 NA
ATOM     28  C   LIG    1       -6.063   4.326   0.473  0.00  0.00    +0.170 C 
ATOM     29  C   LIG    1       -6.895   5.600   0.180  0.00  0.00    +0.020 C 
ATOM     30  C   LIG    1       -8.259   5.279   0.833  0.00  0.00    +0.020 C 
ATOM     31  C   LIG    1       -7.958   4.192   1.880  0.00  0.00    +0.180 C 
ENDBRANCH  26  27
ENDBRANCH   8  26
TORSDOF 5
