REMARK  Name = ZINCrH000004v8FK.0
REMARK                            x       y       z     vdW  Elec       q    Type
REMARK                         _______ _______ _______ _____ _____    ______ ____
ROOT
ATOM      1  O   LIG    1       -2.079  -4.872  -2.848  0.00  0.00    -0.490 OA
ATOM      2  C   LIG    1       -2.875  -4.842  -3.769  0.00  0.00    +0.610 C 
ATOM      3  N   LIG    1       -3.184  -3.668  -4.354  0.00  0.00    -0.670 N 
ATOM      4  H   LIG    1       -3.874  -3.632  -5.035  0.00  0.00    +0.420 HD
ENDROOT
BRANCH   3   5
ATOM      5  C   LIG    1       -2.511  -2.501  -3.980  0.00  0.00    +0.200 A 
ATOM      6  C   LIG    1       -3.175  -1.281  -3.986  0.00  0.00    -0.020 A 
ATOM      7  C   LIG    1       -2.507  -0.131  -3.615  0.00  0.00    +0.150 A 
ATOM      8  C   LIG    1       -1.179  -0.192  -3.237  0.00  0.00    -0.690 A 
ATOM      9  C   LIG    1       -0.513  -1.404  -3.235  0.00  0.00    +0.150 A 
ATOM     10  C   LIG    1       -1.176  -2.559  -3.600  0.00  0.00    +0.010 A 
BRANCH   8  11
ATOM     11  S   LIG    1       -0.330   1.278  -2.764  0.00  0.00    +2.710 S 
ATOM     12  O   LIG    1        1.053   1.028  -2.973  0.00  0.00    -0.950 OA
ATOM     13  O   LIG    1       -1.026   2.356  -3.375  0.00  0.00    -0.950 OA
BRANCH  11  14
ATOM     14  N   LIG    1       -0.532   1.456  -1.131  0.00  0.00    -1.010 NA
ATOM     15  C   LIG    1        0.357   0.913  -0.093  0.00  0.00    +0.270 C 
ATOM     16  C   LIG    1       -0.238   1.306   1.276  0.00  0.00    +0.030 C 
ATOM     17  C   LIG    1       -1.735   1.563   0.939  0.00  0.00    +0.030 C 
ATOM     18  C   LIG    1       -1.634   2.185  -0.476  0.00  0.00    +0.270 C 
ENDBRANCH  11  14
ENDBRANCH   8  11
ENDBRANCH   3   5
BRANCH   2  19
ATOM     19  C   LIG    1       -3.497  -6.083  -4.240  0.00  0.00    -0.070 A 
ATOM     20  C   LIG    1       -3.275  -7.333  -3.739  0.00  0.00    +0.070 A 
ATOM     21  C   LIG    1       -4.073  -8.215  -4.484  0.00  0.00    -0.010 A 
ATOM     22  C   LIG    1       -4.741  -7.473  -5.396  0.00  0.00    +0.030 A 
ATOM     23  O   LIG    1       -4.395  -6.189  -5.242  0.00  0.00    -0.160 OA
BRANCH  22  24
ATOM     24  C   LIG    1       -5.717  -8.004  -6.413  0.00  0.00    +0.230 C 
BRANCH  24  25
ATOM     25  S   LIG    1       -7.388  -7.998  -5.708  0.00  0.00    -0.210 S 
BRANCH  25  26
ATOM     26  C   LIG    1       -8.404  -8.659  -7.058  0.00  0.00    +0.450 C 
ATOM     27  F   LIG    1       -7.963  -9.946  -7.386  0.00  0.00    -0.180 F 
ATOM     28  F   LIG    1       -8.290  -7.827  -8.177  0.00  0.00    -0.180 F 
ENDBRANCH  25  26
ENDBRANCH  24  25
ENDBRANCH  22  24
ENDBRANCH   2  19
TORSDOF 7
