REMARK  Name = ZINCqH00000393oo.0
REMARK                            x       y       z     vdW  Elec       q    Type
REMARK                         _______ _______ _______ _____ _____    ______ ____
ROOT
ATOM      1  C   LIG    1        2.074   0.714  -0.014  0.00  0.00    +0.040 A 
ATOM      2  C   LIG    1        1.303  -0.404  -0.013  0.00  0.00    +0.190 A 
ATOM      3  N   LIG    1        0.002  -0.004   0.002  0.00  0.00    -0.330 N 
ATOM      4  N   LIG    1       -0.017   1.397   0.010  0.00  0.00    -0.270 NA
ATOM      5  C   LIG    1        1.219   1.826   0.000  0.00  0.00    +0.290 A 
ENDROOT
BRANCH   1   9
ATOM      6  N   LIG    1        5.473   1.968  -0.038  0.00  0.00    -0.730 N 
ATOM      7  H   LIG    1        5.979   1.141  -0.047  0.00  0.00    +0.400 HD
ATOM      8  C   LIG    1        4.125   1.933  -0.026  0.00  0.00    +0.710 C 
ATOM      9  N   LIG    1        3.482   0.750  -0.026  0.00  0.00    -0.660 N 
ATOM     10  H   LIG    1        3.988  -0.078  -0.035  0.00  0.00    +0.410 HD
ATOM     11  O   LIG    1        3.491   2.971  -0.015  0.00  0.00    -0.570 OA
BRANCH   6  16
ATOM     12  C   LIG    1        7.576   3.092  -0.647  0.00  0.00    +0.120 C 
ATOM     13  C   LIG    1        8.582   3.490   0.453  0.00  0.00    +0.050 C 
ATOM     14  C   LIG    1        7.804   3.276   1.775  0.00  0.00    +0.030 C 
ATOM     15  C   LIG    1        6.373   3.747   1.410  0.00  0.00    +0.030 C 
ATOM     16  C   LIG    1        6.173   3.255  -0.038  0.00  0.00    +0.270 C 
BRANCH  12  18
ATOM     17  N   LIG    1        7.842   4.660  -2.713  0.00  0.00    -0.420 NA
ATOM     18  C   LIG    1        7.726   3.977  -1.813  0.00  0.00    +0.210 C 
ENDBRANCH  12  18
ENDBRANCH   6  16
ENDBRANCH   1   9
BRANCH   3  19
ATOM     19  C   LIG    1       -1.119  -0.845   0.008  0.00  0.00    +0.170 A 
ATOM     20  C   LIG    1       -0.956  -2.223  -0.007  0.00  0.00    +0.030 A 
ATOM     21  C   LIG    1       -2.063  -3.049   0.004  0.00  0.00    +0.060 A 
ATOM     22  C   LIG    1       -3.333  -2.504   0.021  0.00  0.00    +0.060 A 
ATOM     23  C   LIG    1       -3.500  -1.131   0.030  0.00  0.00    -0.160 A 
ATOM     24  C   LIG    1       -2.397  -0.300   0.024  0.00  0.00    +0.070 A 
BRANCH  23  25
ATOM     25  C   LIG    1       -4.886  -0.541   0.047  0.00  0.00    +0.510 C 
ATOM     26  F   LIG    1       -4.862   0.689   0.714  0.00  0.00    -0.170 F 
ATOM     27  F   LIG    1       -5.756  -1.414   0.711  0.00  0.00    -0.170 F 
ATOM     28  F   LIG    1       -5.329  -0.351  -1.266  0.00  0.00    -0.170 F 
ENDBRANCH  23  25
ENDBRANCH   3  19
TORSDOF 5
