REMARK  Name = ZINCrD00000F5LFo.0
REMARK                            x       y       z     vdW  Elec       q    Type
REMARK                         _______ _______ _______ _____ _____    ______ ____
ROOT
ATOM      1  C   LIG    1        0.009   1.240   0.229  0.00  0.00    +0.510 C 
ATOM      2  N   LIG    1       -1.163   1.904   0.277  0.00  0.00    -0.730 N 
ATOM      3  H   LIG    1       -1.179   2.869   0.174  0.00  0.00    +0.400 HD
ATOM      4  O   LIG    1        0.029   0.035   0.357  0.00  0.00    -0.520 OA
ENDROOT
BRANCH   2   5
ATOM      5  C   LIG    1       -2.413   1.169   0.483  0.00  0.00    +0.320 C 
ATOM      6  C   LIG    1       -2.941   0.659  -0.864  0.00  0.00    +0.030 C 
ATOM      7  C   LIG    1       -4.363   0.120  -0.685  0.00  0.00    +0.020 C 
ATOM      8  C   LIG    1       -5.324   1.287  -0.421  0.00  0.00    +0.100 C 
ATOM      9  C   LIG    1       -4.744   2.139   0.681  0.00  0.00    -0.220 A 
ATOM     10  C   LIG    1       -5.396   3.096   1.455  0.00  0.00    +0.230 A 
ATOM     11  N   LIG    1       -4.527   3.601   2.296  0.00  0.00    -0.290 NA
ATOM     12  N   LIG    1       -3.290   2.975   2.078  0.00  0.00    -0.350 N 
ATOM     13  C   LIG    1       -3.449   2.086   1.085  0.00  0.00    +0.060 A 
BRANCH  12  14
ATOM     14  C   LIG    1       -2.047   3.243   2.806  0.00  0.00    +0.250 C 
ATOM     15  C   LIG    1       -2.255   2.950   4.293  0.00  0.00    +0.050 C 
ATOM     16  C   LIG    1       -1.656   4.711   2.624  0.00  0.00    +0.050 C 
ENDBRANCH  12  14
ENDBRANCH   2   5
BRANCH   1  17
ATOM     17  C   LIG    1        1.294   1.996   0.011  0.00  0.00    +0.110 C 
BRANCH  17  21
ATOM     18  C   LIG    1        4.570  -0.748  -0.043  0.00  0.00    +0.150 A 
ATOM     19  C   LIG    1        3.910  -0.430  -1.223  0.00  0.00    -0.010 A 
ATOM     20  C   LIG    1        2.851   0.458  -1.202  0.00  0.00    +0.040 A 
ATOM     21  C   LIG    1        2.449   1.028  -0.008  0.00  0.00    -0.090 A 
ATOM     22  C   LIG    1        3.108   0.717   1.167  0.00  0.00    +0.040 A 
ATOM     23  C   LIG    1        4.163  -0.173   1.154  0.00  0.00    +0.010 A 
BRANCH  18  25
ATOM     24  C   LIG    1        5.855  -2.462   0.991  0.00  0.00    +0.540 C 
ATOM     25  N   LIG    1        5.642  -1.646  -0.061  0.00  0.00    -0.670 N 
ATOM     26  H   LIG    1        6.232  -1.683  -0.830  0.00  0.00    +0.410 HD
ATOM     27  O   LIG    1        5.061  -2.486   1.913  0.00  0.00    -0.520 OA
BRANCH  24  29
ATOM     28  C   LIG    1        7.256  -4.128   2.062  0.00  0.00    +0.160 C 
ATOM     29  C   LIG    1        7.046  -3.323   1.024  0.00  0.00    -0.090 C 
ENDBRANCH  24  29
ENDBRANCH  18  25
ENDBRANCH  17  21
ENDBRANCH   1  17
TORSDOF 6
