REMARK  Name = ZINCvU00000006vS.0
REMARK                            x       y       z     vdW  Elec       q    Type
REMARK                         _______ _______ _______ _____ _____    ______ ____
ROOT
ATOM      1  C   LIG    1       -2.745   1.100  -0.003  0.00  0.00    +0.070 C 
ENDROOT
BRANCH   1   2
ATOM      2  C   LIG    1       -2.698   0.188  -1.202  0.00  0.00    -0.090 A 
ATOM      3  C   LIG    1       -2.916   0.700  -2.468  0.00  0.00    +0.040 A 
ATOM      4  C   LIG    1       -2.868  -0.136  -3.568  0.00  0.00    +0.000 A 
ATOM      5  C   LIG    1       -2.611  -1.484  -3.402  0.00  0.00    +0.010 A 
ATOM      6  C   LIG    1       -2.398  -1.996  -2.135  0.00  0.00    +0.010 A 
ATOM      7  C   LIG    1       -2.442  -1.160  -1.036  0.00  0.00    +0.060 A 
ENDBRANCH   1   2
BRANCH   1  10
ATOM      8  N   LIG    1       -5.117   1.094   0.701  0.00  0.00    -0.660 N 
ATOM      9  H   LIG    1       -4.951   0.248   1.146  0.00  0.00    +0.410 HD
ATOM     10  C   LIG    1       -4.106   1.741   0.087  0.00  0.00    +0.540 C 
ATOM     11  O   LIG    1       -4.292   2.839  -0.392  0.00  0.00    -0.500 OA
BRANCH   8  17
ATOM     12  C   LIG    1       -9.988   0.456   0.531  0.00  0.00    +0.090 C 
ATOM     13  C   LIG    1       -8.783   1.357   0.615  0.00  0.00    -0.060 A 
ATOM     14  C   LIG    1       -8.949   2.728   0.688  0.00  0.00    -0.010 A 
ATOM     15  C   LIG    1       -7.846   3.557   0.765  0.00  0.00    -0.060 A 
ATOM     16  C   LIG    1       -6.574   3.019   0.770  0.00  0.00    +0.020 A 
ATOM     17  C   LIG    1       -6.404   1.643   0.697  0.00  0.00    +0.150 A 
ATOM     18  C   LIG    1       -8.031   5.051   0.845  0.00  0.00    +0.100 C 
ATOM     19  C   LIG    1       -7.514   0.812   0.614  0.00  0.00    -0.020 A 
ENDBRANCH   8  17
ENDBRANCH   1  10
BRANCH   1  20
ATOM     20  S   LIG    1       -1.483   2.386  -0.172  0.00  0.00    +0.080 S 
BRANCH  20  21
ATOM     21  C   LIG    1       -0.027   1.396  -0.102  0.00  0.00    +0.140 A 
ATOM     22  N   LIG    1        0.022   0.091   0.035  0.00  0.00    -0.280 NA
ATOM     23  N   LIG    1        1.244  -0.307   0.042  0.00  0.00    -0.270 NA
ATOM     24  C   LIG    1        2.051   0.720  -0.092  0.00  0.00    +0.270 A 
ATOM     25  N   LIG    1        1.263   1.843  -0.188  0.00  0.00    -0.460 N 
ATOM     26  C   LIG    1        1.711   3.228  -0.350  0.00  0.00    +0.350 C 
BRANCH  24  27
ATOM     27  C   LIG    1        3.529   0.677  -0.131  0.00  0.00    -0.140 A 
ATOM     28  C   LIG    1        4.307  -0.179  -0.847  0.00  0.00    +0.060 A 
ATOM     29  O   LIG    1        5.593   0.115  -0.604  0.00  0.00    -0.170 OA
ATOM     30  C   LIG    1        5.694   1.142   0.253  0.00  0.00    +0.180 A 
ATOM     31  C   LIG    1        3.809  -1.271  -1.758  0.00  0.00    +0.180 C 
ATOM     32  C   LIG    1        4.461   1.554   0.591  0.00  0.00    -0.050 A 
ENDBRANCH  24  27
ENDBRANCH  20  21
ENDBRANCH   1  20
TORSDOF 6
