REMARK  Name = ZINCrH00000No53G.0
REMARK                            x       y       z     vdW  Elec       q    Type
REMARK                         _______ _______ _______ _____ _____    ______ ____
ROOT
ATOM      1  N   LIG    1       -2.082  -0.162   1.273  0.00  0.00    -0.580 N 
ENDROOT
BRANCH   1   2
ATOM      2  C   LIG    1       -2.007  -1.009   2.367  0.00  0.00    +0.430 A 
ATOM      3  C   LIG    1       -1.227  -2.161   2.292  0.00  0.00    -0.100 A 
ATOM      4  C   LIG    1       -1.155  -2.996   3.374  0.00  0.00    +0.160 A 
ATOM      5  C   LIG    1       -1.876  -2.658   4.529  0.00  0.00    -0.150 A 
ATOM      6  C   LIG    1       -2.638  -1.487   4.535  0.00  0.00    +0.380 A 
ATOM      7  N   LIG    1       -2.675  -0.709   3.473  0.00  0.00    -0.540 NA
BRANCH   5   8
ATOM      8  C   LIG    1       -1.831  -3.500   5.687  0.00  0.00    +0.260 C 
ATOM      9  N   LIG    1       -1.796  -4.168   6.605  0.00  0.00    -0.420 NA
ENDBRANCH   5   8
ENDBRANCH   1   2
BRANCH   1  10
ATOM     10  C   LIG    1       -2.809   1.106   1.376  0.00  0.00    +0.370 C 
BRANCH  10  14
ATOM     11  C   LIG    1       -6.842   0.507   0.261  0.00  0.00    -0.130 A 
ATOM     12  C   LIG    1       -6.514   0.452   1.607  0.00  0.00    +0.050 A 
ATOM     13  C   LIG    1       -5.190   0.643   1.972  0.00  0.00    +0.000 A 
ATOM     14  C   LIG    1       -4.250   0.891   0.991  0.00  0.00    +0.100 A 
ATOM     15  N   LIG    1       -4.598   0.938  -0.281  0.00  0.00    -0.470 NA
ATOM     16  C   LIG    1       -5.846   0.755  -0.665  0.00  0.00    +0.250 A 
BRANCH  11  18
ATOM     17  C   LIG    1       -8.505  -1.186  -0.457  0.00  0.00    +0.020 C 
ATOM     18  C   LIG    1       -8.266   0.301  -0.186  0.00  0.00    +0.070 C 
ENDBRANCH  11  18
ENDBRANCH  10  14
ENDBRANCH   1  10
BRANCH   1  19
ATOM     19  C   LIG    1       -1.433  -0.534   0.013  0.00  0.00    +0.290 C 
BRANCH  19  20
ATOM     20  C   LIG    1        0.002  -0.004   0.002  0.00  0.00    -0.020 C 
ATOM     21  C   LIG    1       -0.019   1.526   0.010  0.00  0.00    +0.010 C 
ATOM     22  C   LIG    1        1.417   2.055  -0.000  0.00  0.00    +0.000 C 
ATOM     23  C   LIG    1        2.133   1.562  -1.259  0.00  0.00    +0.020 C 
ATOM     24  C   LIG    1        2.154   0.032  -1.268  0.00  0.00    +0.000 C 
ATOM     25  C   LIG    1        0.718  -0.497  -1.257  0.00  0.00    +0.030 C 
BRANCH  24  26
ATOM     26  C   LIG    1        2.870  -0.461  -2.526  0.00  0.00    +0.170 C 
BRANCH  26  27
ATOM     27  O   LIG    1        4.242  -0.065  -2.480  0.00  0.00    -0.570 OA
ATOM     28  H   LIG    1        4.758  -0.345  -3.248  0.00  0.00    +0.380 HD
ENDBRANCH  26  27
ENDBRANCH  24  26
ENDBRANCH  19  20
ENDBRANCH   1  19
TORSDOF 9
