REMARK  Name = ZINCqH0000008qiF.0
REMARK                            x       y       z     vdW  Elec       q    Type
REMARK                         _______ _______ _______ _____ _____    ______ ____
ROOT
ATOM      1  C   LIG    1       -2.113   8.321   2.412  0.00  0.00    -0.080 A 
ATOM      2  C   LIG    1       -3.216   7.509   2.682  0.00  0.00    +0.030 A 
ATOM      3  C   LIG    1       -4.204   7.955   3.536  0.00  0.00    +0.120 A 
ATOM      4  C   LIG    1       -4.109   9.208   4.114  0.00  0.00    -0.660 A 
ATOM      5  C   LIG    1       -3.021  10.020   3.846  0.00  0.00    +0.130 A 
ATOM      6  C   LIG    1       -2.023   9.584   2.999  0.00  0.00    +0.070 A 
ENDROOT
BRANCH   1   9
ATOM      7  N   LIG    1       -1.137   6.627   0.937  0.00  0.00    -0.720 N 
ATOM      8  H   LIG    1       -1.901   6.060   1.127  0.00  0.00    +0.400 HD
ATOM      9  C   LIG    1       -1.048   7.848   1.503  0.00  0.00    +0.560 C 
ATOM     10  O   LIG    1       -0.091   8.559   1.265  0.00  0.00    -0.520 OA
BRANCH   7  12
ATOM     11  C   LIG    1       -0.353   6.673  -1.379  0.00  0.00    +0.040 C 
ATOM     12  C   LIG    1       -0.082   6.158   0.036  0.00  0.00    +0.280 C 
BRANCH  12  13
ATOM     13  C   LIG    1       -0.061   4.651   0.028  0.00  0.00    -0.080 A 
ATOM     14  C   LIG    1        1.145   3.977   0.013  0.00  0.00    +0.040 A 
ATOM     15  C   LIG    1        1.165   2.595   0.005  0.00  0.00    +0.060 A 
ATOM     16  C   LIG    1       -0.024   1.887   0.012  0.00  0.00    -0.090 A 
ATOM     17  C   LIG    1       -1.231   2.562   0.022  0.00  0.00    +0.060 A 
ATOM     18 BR   LIG    1        0.002  -0.004   0.002  0.00  0.00    -0.040 Br
ATOM     19  C   LIG    1       -1.249   3.944   0.036  0.00  0.00    +0.020 A 
ENDBRANCH  12  13
ENDBRANCH   7  12
ENDBRANCH   1   9
BRANCH   4  20
ATOM     20  S   LIG    1       -5.379   9.772   5.198  0.00  0.00    +2.710 S 
ATOM     21  O   LIG    1       -4.787  10.761   6.029  0.00  0.00    -0.950 OA
ATOM     22  O   LIG    1       -6.018   8.610   5.707  0.00  0.00    -0.950 OA
BRANCH  20  23
ATOM     23  N   LIG    1       -6.504  10.556   4.268  0.00  0.00    -1.010 NA
ATOM     24  C   LIG    1       -6.500  11.990   3.947  0.00  0.00    +0.270 C 
ATOM     25  C   LIG    1       -7.747  12.268   3.080  0.00  0.00    +0.030 C 
ATOM     26  C   LIG    1       -8.688  11.089   3.441  0.00  0.00    +0.040 C 
ATOM     27  C   LIG    1       -7.677   9.931   3.631  0.00  0.00    +0.270 C 
ENDBRANCH  20  23
ENDBRANCH   4  20
TORSDOF 5
