REMARK  Name = ZINCrD00000F5LoG.0
REMARK                            x       y       z     vdW  Elec       q    Type
REMARK                         _______ _______ _______ _____ _____    ______ ____
ROOT
ATOM      1  N   LIG    1       -2.823   3.690   0.734  0.00  0.00    -0.480 N 
ATOM      2  C   LIG    1       -1.576   3.433   0.376  0.00  0.00    +0.560 A 
ATOM      3  C   LIG    1       -1.215   2.011   0.342  0.00  0.00    -0.250 A 
ATOM      4  S   LIG    1       -2.694   1.167   0.838  0.00  0.00    +0.120 S 
ATOM      5  C   LIG    1       -0.018   1.466   0.010  0.00  0.00    +0.250 C 
ATOM      6  O   LIG    1       -0.785   4.314   0.092  0.00  0.00    -0.450 OA
ATOM      7  C   LIG    1       -3.647   2.647   1.043  0.00  0.00    +0.200 A 
ATOM      8  C   LIG    1       -4.982   2.731   1.442  0.00  0.00    -0.030 C 
ENDROOT
BRANCH   1  16
ATOM      9  C   LIG    1       -3.986   4.824  -1.604  0.00  0.00    +0.100 C 
ATOM     10  C   LIG    1       -3.863   5.601  -0.318  0.00  0.00    -0.050 A 
ATOM     11  C   LIG    1       -4.326   6.900  -0.249  0.00  0.00    +0.020 A 
ATOM     12  C   LIG    1       -4.208   7.616   0.928  0.00  0.00    +0.050 A 
ATOM     13  C   LIG    1       -3.632   7.031   2.041  0.00  0.00    +0.020 A 
ATOM     14  C   LIG    1       -3.172   5.730   1.980  0.00  0.00    -0.050 A 
ATOM     15  C   LIG    1       -2.545   5.094   3.193  0.00  0.00    +0.100 C 
ATOM     16  C   LIG    1       -3.289   5.009   0.799  0.00  0.00    +0.080 A 
ENDBRANCH   1  16
BRANCH   5  17
ATOM     17  C   LIG    1        0.207   0.024   0.189  0.00  0.00    -0.090 A 
ATOM     18  C   LIG    1       -0.575  -0.703   1.093  0.00  0.00    +0.060 A 
ATOM     19  C   LIG    1       -0.362  -2.056   1.251  0.00  0.00    +0.030 A 
ATOM     20  C   LIG    1        0.631  -2.693   0.527  0.00  0.00    +0.080 A 
ATOM     21  C   LIG    1        1.415  -1.980  -0.365  0.00  0.00    -0.090 A 
ATOM     22 BR   LIG    1        2.768  -2.863  -1.347  0.00  0.00    -0.030 Br
ATOM     23  C   LIG    1        1.210  -0.627  -0.539  0.00  0.00    +0.100 A 
ENDBRANCH   5  17
BRANCH   8  24
ATOM     24  C   LIG    1       -5.615   4.009   1.561  0.00  0.00    +0.260 C 
ATOM     25  N   LIG    1       -6.118   5.024   1.655  0.00  0.00    -0.380 NA
ENDBRANCH   8  24
BRANCH   8  26
ATOM     26  C   LIG    1       -5.718   1.537   1.734  0.00  0.00    +0.270 C 
ATOM     27  N   LIG    1       -6.301   0.590   1.965  0.00  0.00    -0.380 NA
ENDBRANCH   8  26
TORSDOF 4
