REMARK  Name = ZINCpe000000VibD.0
REMARK                            x       y       z     vdW  Elec       q    Type
REMARK                         _______ _______ _______ _____ _____    ______ ____
ROOT
ATOM      1  C   LIG    1       -0.364   8.180  -3.657  0.00  0.00    -0.210 A 
ATOM      2  C   LIG    1       -1.612   8.686  -3.786  0.00  0.00    +0.110 A 
ATOM      3  N   LIG    1       -1.704   9.246  -5.014  0.00  0.00    -0.330 N 
ATOM      4  N   LIG    1       -0.471   9.078  -5.657  0.00  0.00    -0.290 NA
ATOM      5  C   LIG    1       -2.705   8.634  -2.749  0.00  0.00    +0.150 C 
ATOM      6  C   LIG    1        0.333   8.443  -4.841  0.00  0.00    +0.100 A 
ATOM      7  C   LIG    1        1.761   8.060  -5.129  0.00  0.00    +0.160 C 
ENDROOT
BRANCH   3   8
ATOM      8  C   LIG    1       -2.833   9.883  -5.548  0.00  0.00    +0.140 A 
ATOM      9  C   LIG    1       -3.195   9.663  -6.870  0.00  0.00    +0.060 A 
ATOM     10  C   LIG    1       -4.311  10.286  -7.393  0.00  0.00    +0.020 A 
ATOM     11  C   LIG    1       -5.062  11.140  -6.603  0.00  0.00    +0.100 A 
ATOM     12  C   LIG    1       -4.700  11.365  -5.285  0.00  0.00    +0.020 A 
ATOM     13  F   LIG    1       -6.150  11.753  -7.118  0.00  0.00    -0.130 F 
ATOM     14  C   LIG    1       -3.588  10.739  -4.757  0.00  0.00    +0.040 A 
ENDBRANCH   3   8
BRANCH   1  15
ATOM     15  C   LIG    1        0.181   7.465  -2.448  0.00  0.00    +0.150 C 
BRANCH  15  18
ATOM     16  N   LIG    1        0.318   5.143  -1.605  0.00  0.00    -0.730 N 
ATOM     17  H   LIG    1        0.778   5.487  -0.824  0.00  0.00    +0.410 HD
ATOM     18  C   LIG    1       -0.084   5.987  -2.576  0.00  0.00    +0.510 C 
ATOM     19  O   LIG    1       -0.660   5.557  -3.553  0.00  0.00    -0.520 OA
BRANCH  16  20
ATOM     20  C   LIG    1        0.060   3.706  -1.730  0.00  0.00    +0.260 C 
BRANCH  20  21
ATOM     21  C   LIG    1        0.614   2.980  -0.503  0.00  0.00    +0.260 C 
BRANCH  21  22
ATOM     22  C   LIG    1        0.348   1.502  -0.631  0.00  0.00    +0.430 C 
ATOM     23  O   LIG    1        1.271   0.729  -0.734  0.00  0.00    -0.490 OA
BRANCH  22  25
ATOM     24  C   LIG    1       -1.095  -0.391  -0.759  0.00  0.00    +0.280 C 
ATOM     25  O   LIG    1       -0.914   1.044  -0.631  0.00  0.00    -0.350 OA
ENDBRANCH  22  25
ENDBRANCH  21  22
BRANCH  21  26
ATOM     26  O   LIG    1        2.022   3.205  -0.411  0.00  0.00    -0.530 OA
ATOM     27  H   LIG    1        2.521   2.891  -1.178  0.00  0.00    +0.390 HD
ENDBRANCH  21  26
ENDBRANCH  20  21
ENDBRANCH  16  20
ENDBRANCH  15  18
ENDBRANCH   1  15
TORSDOF 8
