REMARK  Name = ZINCpe00000MI8Iu.0
REMARK                            x       y       z     vdW  Elec       q    Type
REMARK                         _______ _______ _______ _____ _____    ______ ____
ROOT
ATOM      1  C   LIG    1       -1.039  -3.522  -0.007  0.00  0.00    +0.320 C 
ATOM      2  C   LIG    1       -0.913  -4.178  -1.399  0.00  0.00    +0.060 C 
ATOM      3  C   LIG    1       -0.702  -5.677  -1.058  0.00  0.00    +0.040 C 
ATOM      4  C   LIG    1        0.148  -5.585   0.234  0.00  0.00    +0.270 C 
ATOM      5  N   LIG    1       -0.393  -4.421   0.959  0.00  0.00    -0.600 N 
ATOM      6  C   LIG    1       -0.308  -4.216   2.289  0.00  0.00    +0.540 C 
ATOM      7  O   LIG    1       -0.790  -3.217   2.780  0.00  0.00    -0.530 OA
ENDROOT
BRANCH   1  17
ATOM      8  C   LIG    1       -2.423  -0.757   0.021  0.00  0.00    +0.340 C 
ATOM      9  N   LIG    1       -0.975  -0.979   0.006  0.00  0.00    -0.480 N 
ATOM     10  C   LIG    1        0.002  -0.004   0.002  0.00  0.00    +0.050 A 
ATOM     11  C   LIG    1       -0.017   1.384   0.010  0.00  0.00    +0.010 A 
ATOM     12  C   LIG    1        1.172   2.083   0.002  0.00  0.00    +0.030 A 
ATOM     13  C   LIG    1        2.384   1.409  -0.013  0.00  0.00    +0.000 A 
ATOM     14  C   LIG    1        2.422   0.043  -0.021  0.00  0.00    +0.070 A 
ATOM     15  C   LIG    1        1.230  -0.687  -0.013  0.00  0.00    +0.050 A 
ATOM     16  N   LIG    1        0.945  -2.014  -0.018  0.00  0.00    -0.480 NA
ATOM     17  C   LIG    1       -0.345  -2.184  -0.006  0.00  0.00    +0.280 A 
ENDBRANCH   1  17
BRANCH   6  18
ATOM     18  C   LIG    1        0.387  -5.226   3.165  0.00  0.00    +0.090 C 
BRANCH  18  19
ATOM     19  C   LIG    1        0.343  -4.755   4.620  0.00  0.00    +0.250 C 
ATOM     20  N   LIG    1        1.161  -3.543   4.797  0.00  0.00    -0.710 N 
ATOM     21  H   LIG    1        1.027  -2.686   4.365  0.00  0.00    +0.450 HD
ATOM     22  C   LIG    1        2.129  -3.858   5.677  0.00  0.00    +0.700 C 
ATOM     23  N   LIG    1        2.046  -5.126   6.096  0.00  0.00    -0.680 N 
ATOM     24  H   LIG    1        2.657  -5.531   6.731  0.00  0.00    +0.440 HD
ATOM     25  O   LIG    1        2.984  -3.078   6.048  0.00  0.00    -0.540 OA
ATOM     26  C   LIG    1        1.004  -5.772   5.529  0.00  0.00    +0.530 C 
ATOM     27  O   LIG    1        0.667  -6.923   5.708  0.00  0.00    -0.460 OA
ENDBRANCH  18  19
ENDBRANCH   6  18
TORSDOF 3
