REMARK  Name = ZINCzw0000000isY.0
REMARK                            x       y       z     vdW  Elec       q    Type
REMARK                         _______ _______ _______ _____ _____    ______ ____
ROOT
ATOM      1  N   LIG    1        0.002  -0.004   0.002  0.00  0.00    -0.730 N 
ATOM      2  H   LIG    1        0.849  -0.478  -0.009  0.00  0.00    +0.410 HD
ATOM      3  C   LIG    1       -1.156  -0.694   0.009  0.00  0.00    +0.600 C 
ATOM      4  O   LIG    1       -2.217  -0.100   0.023  0.00  0.00    -0.490 OA
ENDROOT
BRANCH   3   5
ATOM      5  C   LIG    1       -1.136  -2.170   0.001  0.00  0.00    -0.040 A 
ATOM      6  N   LIG    1        0.006  -2.825  -0.013  0.00  0.00    -0.170 NA
ATOM      7  N   LIG    1        0.056  -4.106  -0.021  0.00  0.00    -0.270 N 
ATOM      8  C   LIG    1       -1.047  -4.894  -0.015  0.00  0.00    +0.140 A 
ATOM      9  C   LIG    1       -2.287  -4.352   0.000  0.00  0.00    -0.080 A 
ATOM     10  C   LIG    1       -0.890  -6.393  -0.025  0.00  0.00    +0.150 C 
ATOM     11  C   LIG    1       -2.391  -2.937   0.015  0.00  0.00    +0.380 A 
ATOM     12  O   LIG    1       -3.478  -2.379   0.034  0.00  0.00    -0.450 OA
BRANCH   7  13
ATOM     13  C   LIG    1        1.313  -4.722  -0.036  0.00  0.00    +0.070 A 
ATOM     14  C   LIG    1        1.903  -5.128   1.153  0.00  0.00    +0.070 A 
ATOM     15  C   LIG    1        3.143  -5.736   1.135  0.00  0.00    +0.030 A 
ATOM     16  C   LIG    1        3.798  -5.941  -0.066  0.00  0.00    +0.090 A 
ATOM     17  C   LIG    1        3.215  -5.537  -1.253  0.00  0.00    +0.010 A 
ATOM     18  C   LIG    1        1.971  -4.933  -1.243  0.00  0.00    +0.130 A 
ATOM     19  F   LIG    1        1.399  -4.544  -2.404  0.00  0.00    -0.120 F 
ENDBRANCH   7  13
ENDBRANCH   3   5
BRANCH   1  20
ATOM     20  C   LIG    1       -0.018   1.461   0.010  0.00  0.00    +0.280 C 
BRANCH  20  21
ATOM     21  C   LIG    1        1.418   1.990  -0.001  0.00  0.00    +0.040 C 
BRANCH  21  22
ATOM     22  C   LIG    1        1.397   3.520   0.008  0.00  0.00    +0.280 C 
BRANCH  22  26
ATOM     23  N   LIG    1        4.885   5.618   1.085  0.00  0.00    -0.480 N 
ATOM     24  C   LIG    1        4.191   6.022  -0.146  0.00  0.00    +0.220 C 
ATOM     25  C   LIG    1        2.756   5.493  -0.116  0.00  0.00    +0.280 C 
ATOM     26  N   LIG    1        2.775   4.029  -0.003  0.00  0.00    -0.390 N 
ATOM     27  C   LIG    1        3.449   3.642   1.244  0.00  0.00    +0.270 C 
ATOM     28  H   LIG    1        3.272   3.637  -0.789  0.00  0.00    +0.420 HD
ATOM     29  C   LIG    1        4.890   4.155   1.225  0.00  0.00    +0.230 C 
BRANCH  23  33
ATOM     30  C   LIG    1        8.763   7.143   1.185  0.00  0.00    +0.130 A 
ATOM     31  C   LIG    1        8.296   6.367   2.235  0.00  0.00    +0.010 A 
ATOM     32  C   LIG    1        7.011   5.861   2.203  0.00  0.00    +0.050 A 
ATOM     33  C   LIG    1        6.187   6.130   1.119  0.00  0.00    +0.040 A 
ATOM     34  C   LIG    1        6.657   6.902   0.065  0.00  0.00    +0.010 A 
ATOM     35  C   LIG    1        7.940   7.412   0.101  0.00  0.00    -0.040 A 
BRANCH  30  37
ATOM     36  C   LIG    1       10.443   8.432   0.102  0.00  0.00    +0.250 C 
ATOM     37  O   LIG    1       10.028   7.641   1.217  0.00  0.00    -0.310 OA
ENDBRANCH  30  37
ENDBRANCH  23  33
ENDBRANCH  22  26
ENDBRANCH  21  22
ENDBRANCH  20  21
ENDBRANCH   1  20
TORSDOF 8
