REMARK  Name = ZINCnE000001SMqz.0
REMARK                            x       y       z     vdW  Elec       q    Type
REMARK                         _______ _______ _______ _____ _____    ______ ____
ROOT
ATOM      1  O   LIG    1       -3.632  -2.095   0.025  0.00  0.00    -0.510 OA
ATOM      2  C   LIG    1       -2.571  -2.688   0.012  0.00  0.00    +0.570 C 
ATOM      3  N   LIG    1       -1.413  -1.998   0.005  0.00  0.00    -0.750 N 
ATOM      4  H   LIG    1       -0.567  -2.472  -0.006  0.00  0.00    +0.390 HD
ENDROOT
BRANCH   2   5
ATOM      5  C   LIG    1       -2.551  -4.163   0.004  0.00  0.00    -0.270 A 
ATOM      6  C   LIG    1       -1.335  -4.849  -0.017  0.00  0.00    +0.090 A 
ATOM      7  C   LIG    1       -1.323  -6.228  -0.020  0.00  0.00    -0.090 A 
ATOM      8  C   LIG    1       -2.513  -6.937  -0.012  0.00  0.00    +0.030 A 
ATOM      9  C   LIG    1       -3.723  -6.271   0.003  0.00  0.00    -0.050 A 
ATOM     10  C   LIG    1       -3.753  -4.885   0.012  0.00  0.00    +0.310 A 
ATOM     11  O   LIG    1       -4.941  -4.230   0.026  0.00  0.00    -0.640 OA
BRANCH   8  12
ATOM     12  N   LIG    1       -2.487  -8.416  -0.021  0.00  0.00    +0.030 N 
ATOM     13  O   LIG    1       -1.422  -9.007  -0.035  0.00  0.00    -0.180 OA
ATOM     14  O   LIG    1       -3.531  -9.044  -0.015  0.00  0.00    -0.180 OA
ENDBRANCH   8  12
ENDBRANCH   2   5
BRANCH   3  15
ATOM     15  C   LIG    1       -1.433  -0.534   0.013  0.00  0.00    +0.280 C 
BRANCH  15  16
ATOM     16  C   LIG    1        0.002  -0.004   0.002  0.00  0.00    +0.070 C 
BRANCH  16  17
ATOM     17  S   LIG    1       -0.022   1.810   0.012  0.00  0.00    -0.080 S 
BRANCH  17  18
ATOM     18  C   LIG    1        1.689   2.229  -0.002  0.00  0.00    -0.080 A 
ATOM     19  C   LIG    1        2.651   1.227  -0.011  0.00  0.00    +0.010 A 
ATOM     20  C   LIG    1        3.991   1.559  -0.026  0.00  0.00    +0.050 A 
ATOM     21  C   LIG    1        4.377   2.889  -0.023  0.00  0.00    -0.040 A 
ATOM     22  C   LIG    1        3.420   3.889  -0.009  0.00  0.00    +0.050 A 
ATOM     23 CL   LIG    1        6.063   3.302  -0.035  0.00  0.00    -0.070 Cl
ATOM     24  C   LIG    1        2.079   3.563   0.001  0.00  0.00    +0.050 A 
ENDBRANCH  17  18
ENDBRANCH  16  17
ENDBRANCH  15  16
ENDBRANCH   3  15
TORSDOF 6
