REMARK  Name = ZINCrH000004prmp.0
REMARK                            x       y       z     vdW  Elec       q    Type
REMARK                         _______ _______ _______ _____ _____    ______ ____
ROOT
ATOM      1  C   LIG    1       -2.830   2.970  -2.234  0.00  0.00    -0.160 A 
ATOM      2  C   LIG    1       -2.109   3.420  -3.342  0.00  0.00    +0.060 A 
ATOM      3  C   LIG    1       -2.729   3.531  -4.568  0.00  0.00    -0.010 A 
ATOM      4  C   LIG    1       -4.067   3.199  -4.707  0.00  0.00    +0.060 A 
ATOM      5  C   LIG    1       -4.793   2.753  -3.621  0.00  0.00    +0.020 A 
ATOM      6  C   LIG    1       -4.184   2.629  -2.380  0.00  0.00    +0.200 A 
ENDROOT
BRANCH   1   9
ATOM      7  N   LIG    1       -0.863   3.138  -0.792  0.00  0.00    -0.720 N 
ATOM      8  H   LIG    1       -0.352   3.427  -1.565  0.00  0.00    +0.400 HD
ATOM      9  C   LIG    1       -2.173   2.848  -0.919  0.00  0.00    +0.570 C 
ATOM     10  O   LIG    1       -2.812   2.487   0.049  0.00  0.00    -0.540 OA
BRANCH   7  12
ATOM     11  C   LIG    1        0.241   1.571   0.727  0.00  0.00    +0.040 C 
ATOM     12  C   LIG    1       -0.209   3.018   0.514  0.00  0.00    +0.280 C 
BRANCH  12  13
ATOM     13  C   LIG    1        0.990   3.929   0.561  0.00  0.00    -0.100 A 
ATOM     14  C   LIG    1        1.810   4.051  -0.545  0.00  0.00    +0.000 A 
ATOM     15  C   LIG    1        2.907   4.890  -0.503  0.00  0.00    +0.010 A 
ATOM     16  C   LIG    1        3.191   5.600   0.649  0.00  0.00    +0.000 A 
ATOM     17  C   LIG    1        2.374   5.474   1.757  0.00  0.00    +0.020 A 
ATOM     18  C   LIG    1        1.274   4.638   1.714  0.00  0.00    +0.020 A 
ENDBRANCH  12  13
ENDBRANCH   7  12
ENDBRANCH   1   9
BRANCH   6  19
ATOM     19  N   LIG    1       -4.913   2.174  -1.284  0.00  0.00    -0.650 N 
ATOM     20  H   LIG    1       -4.520   1.531  -0.674  0.00  0.00    +0.430 HD
ATOM     21  C   LIG    1       -6.165   2.627  -1.073  0.00  0.00    +0.540 C 
ATOM     22  O   LIG    1       -6.692   3.354  -1.888  0.00  0.00    -0.510 OA
BRANCH  21  23
ATOM     23  C   LIG    1       -6.909   2.230   0.176  0.00  0.00    +0.110 C 
BRANCH  23  24
ATOM     24  S   LIG    1       -8.550   2.993   0.168  0.00  0.00    +0.120 S 
BRANCH  24  25
ATOM     25  C   LIG    1       -9.180   2.378   1.695  0.00  0.00    -0.020 A 
ATOM     26  N   LIG    1       -8.553   1.595   2.526  0.00  0.00    -0.270 NA
ATOM     27  N   LIG    1       -9.159   1.252   3.577  0.00  0.00    -0.250 NA
ATOM     28  C   LIG    1      -10.359   1.700   3.758  0.00  0.00    +0.220 A 
ATOM     29  S   LIG    1      -10.772   2.718   2.377  0.00  0.00    +0.120 S 
ENDBRANCH  24  25
ENDBRANCH  23  24
ENDBRANCH  21  23
ENDBRANCH   6  19
TORSDOF 7
