REMARK  Name = ZINCrg000000t25G.1
REMARK                            x       y       z     vdW  Elec       q    Type
REMARK                         _______ _______ _______ _____ _____    ______ ____
ROOT
ATOM      1  C   LIG    1       -1.179   2.151   0.019  0.00  0.00    +0.530 C 
ATOM      2  N   LIG    1       -0.123   1.431   0.450  0.00  0.00    -0.610 N 
ATOM      3  C   LIG    1       -0.149  -0.039   0.448  0.00  0.00    +0.330 C 
ATOM      4  C   LIG    1        0.443  -0.544   1.734  0.00  0.00    -0.030 C 
ATOM      5  C   LIG    1        1.084   0.223   2.585  0.00  0.00    -0.040 C 
ATOM      6  C   LIG    1        1.298   1.696   2.402  0.00  0.00    +0.070 C 
ATOM      7  C   LIG    1        1.104   2.085   0.934  0.00  0.00    +0.270 C 
ATOM      8  O   LIG    1       -2.138   1.590  -0.466  0.00  0.00    -0.530 OA
ENDROOT
BRANCH   5   9
ATOM      9  C   LIG    1        1.631  -0.407   3.803  0.00  0.00    -0.140 A 
ATOM     10  C   LIG    1        2.933  -0.703   4.050  0.00  0.00    +0.260 A 
ATOM     11  N   LIG    1        3.050  -1.275   5.284  0.00  0.00    -0.580 N 
ATOM     12  H   LIG    1        3.884  -1.569   5.682  0.00  0.00    +0.420 HD
ATOM     13  C   LIG    1        1.815  -1.379   5.881  0.00  0.00    +0.280 A 
ATOM     14  N   LIG    1        1.414  -1.859   7.051  0.00  0.00    -0.500 NA
ATOM     15  C   LIG    1        0.146  -1.848   7.405  0.00  0.00    +0.300 A 
ATOM     16  C   LIG    1       -0.835  -1.335   6.572  0.00  0.00    -0.060 A 
ATOM     17  C   LIG    1       -0.477  -0.821   5.339  0.00  0.00    +0.100 A 
ATOM     18  C   LIG    1        0.872  -0.843   4.986  0.00  0.00    -0.140 A 
ENDBRANCH   5   9
BRANCH   1  23
ATOM     19  N   LIG    1       -2.582   5.638   0.239  0.00  0.00    -1.000 NA
ATOM     20  C   LIG    1       -1.891   6.324  -0.862  0.00  0.00    +0.300 C 
ATOM     21  C   LIG    1       -0.461   5.784  -0.960  0.00  0.00    +0.020 C 
ATOM     22  C   LIG    1       -0.504   4.260  -1.098  0.00  0.00    +0.040 C 
ATOM     23  C   LIG    1       -1.166   3.653   0.141  0.00  0.00    -0.020 C 
ATOM     24  C   LIG    1       -2.604   4.169   0.252  0.00  0.00    +0.320 C 
BRANCH  19  25
ATOM     25  S   LIG    1       -3.319   6.504   1.442  0.00  0.00    +2.790 S 
ATOM     26  O   LIG    1       -4.313   5.653   1.998  0.00  0.00    -0.970 OA
ATOM     27  O   LIG    1       -3.609   7.783   0.896  0.00  0.00    -0.980 OA
BRANCH  25  28
ATOM     28  N   LIG    1       -2.194   6.747   2.632  0.00  0.00    -1.260 NA
ATOM     29  H   LIG    1       -1.490   6.095   2.774  0.00  0.00    +0.410 HD
ATOM     30  H   LIG    1       -2.238   7.541   3.187  0.00  0.00    +0.420 HD
ENDBRANCH  25  28
ENDBRANCH  19  25
ENDBRANCH   1  23
TORSDOF 4
