REMARK  Name = ZINCrg000000t25G.0
REMARK                            x       y       z     vdW  Elec       q    Type
REMARK                         _______ _______ _______ _____ _____    ______ ____
ROOT
ATOM      1  C   LIG    1       -1.086  -2.618  -2.492  0.00  0.00    +0.530 C 
ATOM      2  N   LIG    1       -2.069  -3.510  -2.726  0.00  0.00    -0.610 N 
ATOM      3  C   LIG    1       -3.195  -3.669  -1.795  0.00  0.00    +0.330 C 
ATOM      4  C   LIG    1       -3.473  -5.134  -1.603  0.00  0.00    -0.050 C 
ATOM      5  C   LIG    1       -2.936  -6.076  -2.347  0.00  0.00    -0.030 C 
ATOM      6  C   LIG    1       -1.971  -5.822  -3.467  0.00  0.00    +0.070 C 
ATOM      7  C   LIG    1       -2.060  -4.360  -3.929  0.00  0.00    +0.280 C 
ATOM      8  O   LIG    1       -1.087  -1.969  -1.467  0.00  0.00    -0.540 OA
ENDROOT
BRANCH   5   9
ATOM      9  C   LIG    1       -3.308  -7.473  -2.063  0.00  0.00    -0.190 A 
ATOM     10  C   LIG    1       -4.557  -8.060  -2.208  0.00  0.00    +0.250 A 
ATOM     11  N   LIG    1       -4.493  -9.337  -1.850  0.00  0.00    -0.550 NA
ATOM     12  C   LIG    1       -3.276  -9.688  -1.462  0.00  0.00    +0.260 A 
ATOM     13  N   LIG    1       -2.735 -10.867  -1.016  0.00  0.00    -0.500 N 
ATOM     14  H   LIG    1       -3.296 -11.654  -0.941  0.00  0.00    +0.420 HD
ATOM     15  C   LIG    1       -1.437 -10.943  -0.682  0.00  0.00    +0.330 A 
ATOM     16  C   LIG    1       -0.609  -9.865  -0.771  0.00  0.00    -0.070 A 
ATOM     17  C   LIG    1       -1.098  -8.641  -1.217  0.00  0.00    +0.180 A 
ATOM     18  C   LIG    1       -2.438  -8.546  -1.571  0.00  0.00    -0.160 A 
ENDBRANCH   5   9
BRANCH   1  23
ATOM     19  N   LIG    1        2.053  -1.175  -3.991  0.00  0.00    -1.000 NA
ATOM     20  C   LIG    1        1.587  -0.705  -5.303  0.00  0.00    +0.280 C 
ATOM     21  C   LIG    1        0.537  -1.686  -5.834  0.00  0.00    +0.020 C 
ATOM     22  C   LIG    1       -0.574  -1.851  -4.795  0.00  0.00    +0.030 C 
ATOM     23  C   LIG    1        0.014  -2.425  -3.504  0.00  0.00    -0.020 C 
ATOM     24  C   LIG    1        1.058  -1.458  -2.948  0.00  0.00    +0.320 C 
BRANCH  19  25
ATOM     25  S   LIG    1        3.668  -1.390  -3.696  0.00  0.00    +2.790 S 
ATOM     26  O   LIG    1        4.284  -1.588  -4.962  0.00  0.00    -0.980 OA
ATOM     27  O   LIG    1        3.761  -2.327  -2.632  0.00  0.00    -0.980 OA
BRANCH  25  28
ATOM     28  N   LIG    1        4.254   0.043  -3.110  0.00  0.00    -1.260 NA
ATOM     29  H   LIG    1        3.851   0.881  -3.386  0.00  0.00    +0.410 HD
ATOM     30  H   LIG    1        5.001   0.045  -2.491  0.00  0.00    +0.420 HD
ENDBRANCH  25  28
ENDBRANCH  19  25
ENDBRANCH   1  23
TORSDOF 4
