REMARK  Name = ZINCpe000000ZcEv.0
REMARK                            x       y       z     vdW  Elec       q    Type
REMARK                         _______ _______ _______ _____ _____    ______ ____
ROOT
ATOM      1  C   LIG    1        2.411  -2.732  -0.137  0.00  0.00    +0.510 C 
ATOM      2  N   LIG    1        1.238  -2.078  -0.020  0.00  0.00    -0.650 N 
ATOM      3  H   LIG    1        0.410  -2.577   0.062  0.00  0.00    +0.420 HD
ATOM      4  O   LIG    1        3.454  -2.112  -0.144  0.00  0.00    -0.490 OA
ENDROOT
BRANCH   2   5
ATOM      5  C   LIG    1        1.215  -0.681  -0.019  0.00  0.00    +0.150 A 
ATOM      6  C   LIG    1        2.137   0.032  -0.775  0.00  0.00    +0.020 A 
ATOM      7  C   LIG    1        2.111   1.413  -0.772  0.00  0.00    +0.060 A 
ATOM      8  C   LIG    1        1.168   2.086  -0.017  0.00  0.00    -0.130 A 
ATOM      9  C   LIG    1        0.249   1.380   0.737  0.00  0.00    +0.050 A 
ATOM     10  C   LIG    1        0.269  -0.001   0.738  0.00  0.00    -0.010 A 
BRANCH   8  11
ATOM     11  C   LIG    1        1.143   3.593  -0.015  0.00  0.00    +0.390 C 
BRANCH  11  12
ATOM     12  N   LIG    1        0.266   4.068  -1.088  0.00  0.00    -0.630 N 
ATOM     13  C   LIG    1       -1.176   4.329  -0.961  0.00  0.00    +0.240 C 
ATOM     14  C   LIG    1       -1.589   4.801  -2.369  0.00  0.00    +0.260 C 
ATOM     15  O   LIG    1       -0.349   4.757  -3.133  0.00  0.00    -0.330 OA
ATOM     16  C   LIG    1        0.647   4.341  -2.343  0.00  0.00    +0.640 C 
ATOM     17  O   LIG    1        1.793   4.218  -2.730  0.00  0.00    -0.520 OA
ENDBRANCH  11  12
ENDBRANCH   8  11
ENDBRANCH   2   5
BRANCH   1  19
ATOM     18  O   LIG    1        1.383  -4.841  -0.250  0.00  0.00    -0.520 OA
ATOM     19  C   LIG    1        2.426  -4.221  -0.257  0.00  0.00    +0.510 C 
ATOM     20  N   LIG    1        3.599  -4.875  -0.373  0.00  0.00    -0.690 N 
ATOM     21  H   LIG    1        4.432  -4.379  -0.379  0.00  0.00    +0.420 HD
BRANCH  20  22
ATOM     22  C   LIG    1        3.614  -6.335  -0.491  0.00  0.00    +0.290 C 
BRANCH  22  23
ATOM     23  C   LIG    1        5.060  -6.822  -0.609  0.00  0.00    +0.140 C 
ATOM     24  C   LIG    1        5.087  -8.357  -0.742  0.00  0.00    +0.010 C 
ATOM     25  C   LIG    1        5.808  -8.610  -2.088  0.00  0.00    +0.000 C 
ATOM     26  C   LIG    1        6.575  -7.280  -2.299  0.00  0.00    +0.210 C 
ATOM     27  O   LIG    1        5.664  -6.277  -1.794  0.00  0.00    -0.370 OA
ENDBRANCH  22  23
ENDBRANCH  20  22
ENDBRANCH   1  19
TORSDOF 6
