REMARK  Name = ZINCpe00000L1A3y.0
REMARK                            x       y       z     vdW  Elec       q    Type
REMARK                         _______ _______ _______ _____ _____    ______ ____
ROOT
ATOM      1  N   LIG    1       -1.160   0.108  -0.105  0.00  0.00    -0.520 NA
ATOM      2  C   LIG    1       -0.278  -0.294   0.998  0.00  0.00    +0.160 C 
ATOM      3  C   LIG    1        1.077   0.402   0.848  0.00  0.00    +0.040 C 
ATOM      4  C   LIG    1        0.871   1.919   0.861  0.00  0.00    +0.000 C 
ATOM      5  C   LIG    1       -0.090   2.305  -0.267  0.00  0.00    +0.180 C 
ATOM      6  C   LIG    1       -1.411   1.554  -0.085  0.00  0.00    +0.220 C 
ENDROOT
BRANCH   5   7
ATOM      7  C   LIG    1       -0.345   3.790  -0.224  0.00  0.00    -0.110 A 
ATOM      8  C   LIG    1       -1.393   4.290   0.524  0.00  0.00    +0.000 A 
ATOM      9  C   LIG    1       -1.625   5.652   0.567  0.00  0.00    +0.000 A 
ATOM     10  C   LIG    1       -0.813   6.513  -0.147  0.00  0.00    +0.000 A 
ATOM     11  C   LIG    1        0.233   6.013  -0.900  0.00  0.00    +0.010 A 
ATOM     12  C   LIG    1        0.467   4.651  -0.939  0.00  0.00    +0.010 A 
ENDBRANCH   5   7
BRANCH   5  13
ATOM     13  O   LIG    1        0.489   1.956  -1.526  0.00  0.00    -0.530 OA
ATOM     14  H   LIG    1        1.330   2.396  -1.708  0.00  0.00    +0.370 HD
ENDBRANCH   5  13
BRANCH   1  15
ATOM     15  C   LIG    1       -2.421  -0.646  -0.073  0.00  0.00    +0.300 C 
BRANCH  15  18
ATOM     16  N   LIG    1       -1.736  -4.221  -0.117  0.00  0.00    -0.230 N 
ATOM     17  C   LIG    1       -1.950  -3.073   0.583  0.00  0.00    +0.140 A 
ATOM     18  C   LIG    1       -2.142  -2.102  -0.341  0.00  0.00    +0.020 A 
ATOM     19  N   LIG    1       -2.031  -2.688  -1.538  0.00  0.00    -0.220 NA
ATOM     20  N   LIG    1       -1.791  -3.941  -1.372  0.00  0.00    -0.050 NA
BRANCH  16  26
ATOM     21  C   LIG    1       -1.343  -4.836   2.873  0.00  0.00    +0.380 C 
ATOM     22  N   LIG    1       -1.317  -5.778   1.751  0.00  0.00    -0.360 N 
ATOM     23  N   LIG    1       -1.108  -7.164   1.821  0.00  0.00    -0.030 NA
ATOM     24  N   LIG    1       -1.151  -7.637   0.625  0.00  0.00    -0.220 NA
ATOM     25  C   LIG    1       -1.382  -6.655  -0.245  0.00  0.00    +0.190 A 
ATOM     26  C   LIG    1       -1.494  -5.485   0.432  0.00  0.00    +0.250 A 
ENDBRANCH  16  26
ENDBRANCH  15  18
ENDBRANCH   1  15
TORSDOF 5
