REMARK  Name = ZINCvU00000008qW.0
REMARK                            x       y       z     vdW  Elec       q    Type
REMARK                         _______ _______ _______ _____ _____    ______ ____
ROOT
ATOM      1  C   LIG    1       -0.729   1.549   1.162  0.00  0.00    +0.020 C 
ATOM      2  C   LIG    1        0.054   0.915   0.011  0.00  0.00    +0.090 C 
ENDROOT
BRANCH   1   5
ATOM      3  N   LIG    1       -2.408  -0.153   1.796  0.00  0.00    -0.660 N 
ATOM      4  H   LIG    1       -1.687  -0.679   2.177  0.00  0.00    +0.410 HD
ATOM      5  C   LIG    1       -2.136   1.010   1.170  0.00  0.00    +0.530 C 
ATOM      6  O   LIG    1       -3.023   1.621   0.614  0.00  0.00    -0.500 OA
BRANCH   3  10
ATOM      7  C   LIG    1       -6.347  -1.488   2.094  0.00  0.00    +0.130 A 
ATOM      8  C   LIG    1       -5.311  -2.404   1.968  0.00  0.00    +0.010 A 
ATOM      9  C   LIG    1       -4.007  -1.962   1.870  0.00  0.00    +0.010 A 
ATOM     10  C   LIG    1       -3.731  -0.601   1.896  0.00  0.00    +0.130 A 
ATOM     11  C   LIG    1       -4.767   0.315   2.026  0.00  0.00    +0.040 A 
ATOM     12  C   LIG    1       -6.071  -0.127   2.120  0.00  0.00    +0.040 A 
BRANCH   7  15
ATOM     13  C   LIG    1      -10.076  -1.762   1.647  0.00  0.00    +0.110 C 
ATOM     14  C   LIG    1       -8.667  -1.228   1.628  0.00  0.00    +0.510 C 
ATOM     15  N   LIG    1       -7.670  -1.937   2.194  0.00  0.00    -0.680 N 
ATOM     16  H   LIG    1       -7.869  -2.757   2.672  0.00  0.00    +0.410 HD
ATOM     17  O   LIG    1       -8.430  -0.160   1.104  0.00  0.00    -0.520 OA
ENDBRANCH   7  15
ENDBRANCH   3  10
ENDBRANCH   1   5
BRANCH   1  18
ATOM     18  S   LIG    1       -0.773   3.346   0.945  0.00  0.00    +0.060 S 
BRANCH  18  19
ATOM     19  C   LIG    1        0.940   3.718   1.121  0.00  0.00    +0.200 A 
ATOM     20  C   LIG    1        1.403   5.057   1.017  0.00  0.00    -0.160 A 
ATOM     21  C   LIG    1        0.674   6.283   0.772  0.00  0.00    +0.060 A 
ATOM     22  C   LIG    1        1.431   7.380   0.735  0.00  0.00    -0.120 A 
ATOM     23  S   LIG    1        3.119   6.997   1.015  0.00  0.00    +0.200 S 
ATOM     24  C   LIG    1        2.775   5.281   1.173  0.00  0.00    +0.100 A 
ATOM     25  N   LIG    1        3.583   4.237   1.400  0.00  0.00    -0.490 NA
ATOM     26  C   LIG    1        3.106   3.016   1.483  0.00  0.00    +0.540 A 
ATOM     27  N   LIG    1        1.819   2.752   1.349  0.00  0.00    -0.530 NA
BRANCH  22  28
ATOM     28  C   LIG    1        0.912   8.745   0.501  0.00  0.00    -0.030 A 
ATOM     29  C   LIG    1       -0.453   8.950   0.293  0.00  0.00    +0.030 A 
ATOM     30  C   LIG    1       -0.931  10.226   0.080  0.00  0.00    +0.020 A 
ATOM     31  C   LIG    1       -0.059  11.300   0.060  0.00  0.00    +0.020 A 
ATOM     32  C   LIG    1        1.296  11.103   0.260  0.00  0.00    +0.020 A 
ATOM     33  C   LIG    1        1.786   9.833   0.480  0.00  0.00    +0.010 A 
ENDBRANCH  22  28
ENDBRANCH  18  19
ENDBRANCH   1  18
TORSDOF 6
