REMARK  Name = ZINCqH0000008OfI.0
REMARK                            x       y       z     vdW  Elec       q    Type
REMARK                         _______ _______ _______ _____ _____    ______ ____
ROOT
ATOM      1  C   LIG    1        1.900   2.366   1.500  0.00  0.00    +0.040 C 
ATOM      2  C   LIG    1        1.386   2.232   0.065  0.00  0.00    +0.190 C 
ATOM      3  O   LIG    1       -0.051   2.071   0.046  0.00  0.00    -0.350 OA
ATOM      4  C   LIG    1       -0.288   0.683   0.337  0.00  0.00    +0.320 C 
ATOM      5  N   LIG    1        0.905  -0.082  -0.061  0.00  0.00    -0.610 N 
ATOM      6  C   LIG    1        1.078  -1.416   0.025  0.00  0.00    +0.680 C 
ATOM      7  O   LIG    1        2.149  -1.910  -0.265  0.00  0.00    -0.550 OA
ATOM      8  C   LIG    1       -1.502   0.190  -0.451  0.00  0.00    +0.080 C 
ATOM      9  C   LIG    1       -0.538   0.505   1.836  0.00  0.00    +0.050 C 
ATOM     10  C   LIG    1        1.877   0.909  -0.575  0.00  0.00    +0.210 C 
ENDROOT
BRANCH   6  11
ATOM     11  O   LIG    1        0.063  -2.201   0.432  0.00  0.00    -0.360 OA
BRANCH  11  12
ATOM     12  C   LIG    1        0.320  -3.629   0.501  0.00  0.00    +0.140 C 
ATOM     13  C   LIG    1        0.708  -4.144  -0.887  0.00  0.00    +0.040 C 
ATOM     14  C   LIG    1       -0.940  -4.352   0.980  0.00  0.00    +0.080 C 
ATOM     15  C   LIG    1        1.464  -3.894   1.481  0.00  0.00    +0.040 C 
ENDBRANCH  11  12
ENDBRANCH   6  11
BRANCH  10  16
ATOM     16  C   LIG    1        3.294   0.570  -0.109  0.00  0.00    +0.300 C 
BRANCH  16  17
ATOM     17  N   LIG    1        4.240   1.529  -0.687  0.00  0.00    -0.700 N 
ATOM     18  H   LIG    1        3.913   2.278  -1.210  0.00  0.00    +0.410 HD
BRANCH  17  19
ATOM     19  C   LIG    1        5.602   1.365  -0.487  0.00  0.00    +0.450 A 
ATOM     20  N   LIG    1        6.038   0.341   0.233  0.00  0.00    -0.520 NA
ATOM     21  C   LIG    1        7.323   0.143   0.445  0.00  0.00    +0.400 A 
ATOM     22  C   LIG    1        8.272   1.022  -0.080  0.00  0.00    -0.140 A 
ATOM     23  C   LIG    1        7.838   2.118  -0.842  0.00  0.00    +0.180 A 
ATOM     24  C   LIG    1        6.493   2.283  -1.042  0.00  0.00    -0.160 A 
ATOM     25 CL   LIG    1        5.904   3.622  -1.976  0.00  0.00    -0.050 Cl
BRANCH  22  26
ATOM     26  C   LIG    1        9.668   0.809   0.157  0.00  0.00    +0.260 C 
ATOM     27  N   LIG    1       10.776   0.640   0.344  0.00  0.00    -0.410 NA
ENDBRANCH  22  26
ENDBRANCH  17  19
ENDBRANCH  16  17
ENDBRANCH  10  16
TORSDOF 6
