REMARK  Name = ZINCrH000004rv5Q.0
REMARK                            x       y       z     vdW  Elec       q    Type
REMARK                         _______ _______ _______ _____ _____    ______ ____
ROOT
ATOM      1  C   LIG    1        2.318  -0.664   0.138  0.00  0.00    +0.100 C 
ATOM      2  C   LIG    1        2.400   0.833  -0.024  0.00  0.00    -0.050 A 
ATOM      3  C   LIG    1        3.631   1.451  -0.120  0.00  0.00    +0.020 A 
ATOM      4  C   LIG    1        3.707   2.825  -0.263  0.00  0.00    +0.110 A 
ATOM      5  C   LIG    1        2.551   3.582  -0.315  0.00  0.00    -0.670 A 
ATOM      6  C   LIG    1        1.317   2.969  -0.226  0.00  0.00    +0.140 A 
ATOM      7  C   LIG    1        1.237   1.590  -0.083  0.00  0.00    +0.120 A 
ENDROOT
BRANCH   7   8
ATOM      8  N   LIG    1       -0.011   0.966   0.007  0.00  0.00    -0.660 N 
ATOM      9  H   LIG    1       -0.144   0.088  -0.384  0.00  0.00    +0.410 HD
ATOM     10  C   LIG    1       -1.031   1.586   0.633  0.00  0.00    +0.560 C 
ATOM     11  O   LIG    1       -0.888   2.719   1.052  0.00  0.00    -0.490 OA
BRANCH  10  12
ATOM     12  C   LIG    1       -2.321   0.890   0.811  0.00  0.00    -0.150 A 
ATOM     13  C   LIG    1       -2.490  -0.409   0.326  0.00  0.00    +0.060 A 
ATOM     14  C   LIG    1       -3.697  -1.056   0.501  0.00  0.00    +0.090 A 
ATOM     15  C   LIG    1       -4.744  -0.415   1.145  0.00  0.00    +0.070 A 
ATOM     16  C   LIG    1       -4.586   0.872   1.623  0.00  0.00    +0.030 A 
ATOM     17  F   LIG    1       -3.861  -2.314   0.037  0.00  0.00    -0.130 F 
ATOM     18  C   LIG    1       -3.381   1.530   1.460  0.00  0.00    +0.160 A 
ATOM     19  F   LIG    1       -3.229   2.789   1.927  0.00  0.00    -0.110 F 
ENDBRANCH  10  12
ENDBRANCH   7   8
BRANCH   5  20
ATOM     20  S   LIG    1        2.654   5.332  -0.497  0.00  0.00    +2.690 S 
ATOM     21  O   LIG    1        1.418   5.750  -1.061  0.00  0.00    -0.950 OA
ATOM     22  O   LIG    1        3.913   5.600  -1.098  0.00  0.00    -0.950 OA
BRANCH  20  23
ATOM     23  N   LIG    1        2.715   5.980   1.026  0.00  0.00    -0.990 NA
ATOM     24  C   LIG    1        1.482   6.354   1.731  0.00  0.00    +0.290 C 
ATOM     25  C   LIG    1        1.475   5.665   3.103  0.00  0.00    +0.020 C 
ATOM     26  C   LIG    1        2.760   6.022   3.854  0.00  0.00    +0.010 C 
ATOM     27  C   LIG    1        3.970   5.514   3.066  0.00  0.00    +0.010 C 
ATOM     28  C   LIG    1        4.005   6.197   1.695  0.00  0.00    +0.290 C 
ENDBRANCH  20  23
ENDBRANCH   5  20
TORSDOF 4
