REMARK  Name = ZINCbw0000000Hf3.0
REMARK                            x       y       z     vdW  Elec       q    Type
REMARK                         _______ _______ _______ _____ _____    ______ ____
ROOT
ATOM      1  C   LIG    1        0.067   1.185   2.485  0.00  0.00    +0.350 A 
ATOM      2  N   LIG    1        0.290  -0.093   2.718  0.00  0.00    -0.510 NA
ATOM      3  C   LIG    1        0.988  -0.478   3.775  0.00  0.00    +0.350 A 
ATOM      4  C   LIG    1        1.477   0.481   4.646  0.00  0.00    -0.060 A 
ATOM      5  C   LIG    1        1.217   1.817   4.370  0.00  0.00    +0.220 A 
ATOM      6 CL   LIG    1        1.804   3.064   5.425  0.00  0.00    -0.010 Cl
ATOM      7  N   LIG    1        0.515   2.126   3.290  0.00  0.00    -0.510 NA
ENDROOT
BRANCH   1   8
ATOM      8  C   LIG    1       -0.729   1.579   1.267  0.00  0.00    +0.070 C 
ATOM      9  C   LIG    1       -2.121   0.950   1.341  0.00  0.00    +0.050 C 
BRANCH   8  11
ATOM     10  C   LIG    1       -0.753   1.593  -1.232  0.00  0.00    +0.030 C 
ATOM     11  C   LIG    1       -0.013   1.086   0.008  0.00  0.00    +0.030 C 
ENDBRANCH   8  11
ENDBRANCH   1   8
TORSDOF 2
