REMARK  Name = ZINCrg000000rdSG.0
REMARK                            x       y       z     vdW  Elec       q    Type
REMARK                         _______ _______ _______ _____ _____    ______ ____
ROOT
ATOM      1  N   LIG    1        3.532   3.315   0.089  0.00  0.00    -0.720 N 
ATOM      2  H   LIG    1        3.586   2.346   0.083  0.00  0.00    +0.420 HD
ATOM      3  C   LIG    1        2.333   3.924   0.001  0.00  0.00    +0.590 C 
ATOM      4  O   LIG    1        2.271   5.135  -0.085  0.00  0.00    -0.550 OA
ENDROOT
BRANCH   3   5
ATOM      5  C   LIG    1        1.099   3.123   0.010  0.00  0.00    -0.330 A 
ATOM      6  C   LIG    1       -0.142   3.730   0.039  0.00  0.00    +0.460 A 
ATOM      7  N   LIG    1       -1.260   2.958   0.047  0.00  0.00    -0.520 N 
ATOM      8  C   LIG    1       -1.187   1.618   0.022  0.00  0.00    +0.700 A 
ATOM      9  N   LIG    1       -0.012   0.966   0.000  0.00  0.00    -0.650 N 
ATOM     10  H   LIG    1        0.001  -0.004  -0.013  0.00  0.00    +0.440 HD
ATOM     11  O   LIG    1       -2.217   0.973   0.025  0.00  0.00    -0.500 OA
ATOM     12  C   LIG    1        1.151   1.652  -0.010  0.00  0.00    +0.570 A 
ATOM     13  O   LIG    1        2.218   1.068  -0.035  0.00  0.00    -0.510 OA
BRANCH   7  14
ATOM     14  C   LIG    1       -2.575   3.603   0.077  0.00  0.00    +0.340 C 
BRANCH  14  15
ATOM     15  C   LIG    1       -3.056   3.847  -1.355  0.00  0.00    +0.170 C 
BRANCH  15  16
ATOM     16  O   LIG    1       -3.265   2.593  -2.007  0.00  0.00    -0.560 OA
ATOM     17  H   LIG    1       -3.571   2.671  -2.921  0.00  0.00    +0.380 HD
ENDBRANCH  15  16
ENDBRANCH  14  15
ENDBRANCH   7  14
ENDBRANCH   3   5
BRANCH   1  18
ATOM     18  C   LIG    1        4.754   4.116   0.192  0.00  0.00    +0.270 C 
BRANCH  18  20
ATOM     19  C   LIG    1        5.901   2.379   1.576  0.00  0.00    +0.040 C 
ATOM     20  C   LIG    1        5.967   3.187   0.278  0.00  0.00    +0.020 C 
BRANCH  20  21
ATOM     21  C   LIG    1        7.231   4.007   0.260  0.00  0.00    -0.040 A 
ATOM     22  C   LIG    1        7.456   4.950   1.246  0.00  0.00    +0.030 A 
ATOM     23  C   LIG    1        8.618   5.699   1.233  0.00  0.00    +0.070 A 
ATOM     24  C   LIG    1        9.549   5.514   0.228  0.00  0.00    -0.190 A 
ATOM     25  C   LIG    1        9.321   4.575  -0.761  0.00  0.00    +0.070 A 
ATOM     26  C   LIG    1        8.162   3.822  -0.745  0.00  0.00    +0.030 A 
BRANCH  24  27
ATOM     27  C   LIG    1       10.812   6.335   0.210  0.00  0.00    +0.510 C 
ATOM     28  F   LIG    1       11.841   5.594  -0.381  0.00  0.00    -0.180 F 
ATOM     29  F   LIG    1       11.171   6.667   1.521  0.00  0.00    -0.180 F 
ATOM     30  F   LIG    1       10.598   7.505  -0.525  0.00  0.00    -0.180 F 
ENDBRANCH  24  27
ENDBRANCH  20  21
ENDBRANCH  18  20
ENDBRANCH   1  18
TORSDOF 8
