REMARK  Name = ZINCpe00000VVH2A.1
REMARK                            x       y       z     vdW  Elec       q    Type
REMARK                         _______ _______ _______ _____ _____    ______ ____
ROOT
ATOM      1  N   LIG    1       -0.203   3.486   4.885  0.00  0.00    -0.560 NA
ATOM      2  C   LIG    1       -0.783   2.628   5.928  0.00  0.00    +0.190 C 
ATOM      3  C   LIG    1        0.245   2.420   7.043  0.00  0.00    +0.180 C 
ATOM      4  N   LIG    1        0.638   3.724   7.594  0.00  0.00    -0.530 NA
ATOM      5  C   LIG    1        1.217   4.581   6.551  0.00  0.00    +0.200 C 
ATOM      6  C   LIG    1        0.189   4.790   5.436  0.00  0.00    +0.210 C 
ENDROOT
BRANCH   1   7
ATOM      7  C   LIG    1       -1.134   3.648   3.760  0.00  0.00    +0.500 C 
BRANCH   7  11
ATOM      8  N   LIG    1       -0.372   1.165   1.226  0.00  0.00    -0.570 N 
ATOM      9  C   LIG    1       -1.332   0.467   1.871  0.00  0.00    +0.510 C 
ATOM     10  C   LIG    1       -1.787   1.357   2.990  0.00  0.00    +0.510 C 
ATOM     11  N   LIG    1       -1.046   2.480   2.880  0.00  0.00    -0.570 N 
ATOM     12  O   LIG    1       -2.640   1.117   3.818  0.00  0.00    -0.410 OA
ATOM     13  O   LIG    1       -1.740  -0.643   1.603  0.00  0.00    -0.410 OA
ATOM     14  C   LIG    1       -0.211   2.349   1.837  0.00  0.00    +0.720 C 
ATOM     15  O   LIG    1        0.587   3.196   1.488  0.00  0.00    -0.480 OA
BRANCH   8  17
ATOM     16  C   LIG    1       -0.365   1.117  -1.220  0.00  0.00    +0.040 C 
ATOM     17  C   LIG    1        0.375   0.702   0.054  0.00  0.00    +0.320 C 
ENDBRANCH   8  17
ENDBRANCH   7  11
ENDBRANCH   1   7
BRANCH   4  18
ATOM     18  C   LIG    1        1.568   3.561   8.719  0.00  0.00    +0.230 C 
BRANCH  18  19
ATOM     19  C   LIG    1        0.825   3.016   9.911  0.00  0.00    -0.080 A 
ATOM     20  C   LIG    1        0.987   1.694  10.281  0.00  0.00    +0.010 A 
ATOM     21  C   LIG    1        0.309   1.195  11.378  0.00  0.00    -0.010 A 
ATOM     22  C   LIG    1       -0.539   2.015  12.098  0.00  0.00    +0.010 A 
ATOM     23  C   LIG    1       -0.705   3.336  11.725  0.00  0.00    +0.000 A 
ATOM     24  C   LIG    1       -0.023   3.836  10.632  0.00  0.00    -0.060 A 
ATOM     25  C   LIG    1       -0.205   5.276  10.224  0.00  0.00    +0.090 C 
ENDBRANCH  18  19
ENDBRANCH   4  18
TORSDOF 5
