REMARK  Name = ZINC9p0000004SQ5.0
REMARK                            x       y       z     vdW  Elec       q    Type
REMARK                         _______ _______ _______ _____ _____    ______ ____
ROOT
ATOM      1  C   LIG    1       -3.723  -1.383   0.483  0.00  0.00    -0.160 A 
ATOM      2  C   LIG    1       -3.418  -1.259  -0.818  0.00  0.00    +0.020 A 
ATOM      3  C   LIG    1       -2.141  -0.785  -1.072  0.00  0.00    +0.120 A 
ATOM      4  C   LIG    1       -1.412  -0.526   0.013  0.00  0.00    -0.310 A 
ATOM      5  S   LIG    1       -2.345  -0.891   1.458  0.00  0.00    +0.150 S 
ENDROOT
BRANCH   1   7
ATOM      6  C   LIG    1       -5.019  -1.884   2.912  0.00  0.00    +0.140 C 
ATOM      7  S   LIG    1       -5.264  -1.957   1.116  0.00  0.00    -0.000 S 
ENDBRANCH   1   7
BRANCH   4   8
ATOM      8  C   LIG    1        0.002  -0.004   0.002  0.00  0.00    +0.380 C 
BRANCH   8   9
ATOM      9  N   LIG    1       -0.018   1.465   0.010  0.00  0.00    -0.640 N 
ATOM     10  H   LIG    1       -0.490   1.790   0.840  0.00  0.00    +0.430 HD
ATOM     11  H   LIG    1       -0.506   1.799  -0.807  0.00  0.00    +0.440 HD
ATOM     12  H   LIG    1        0.929   1.814   0.003  0.00  0.00    +0.440 HD
ENDBRANCH   8   9
ENDBRANCH   4   8
TORSDOF 3
