REMARK  Name = ZINCpk00000y1D9d.0
REMARK                            x       y       z     vdW  Elec       q    Type
REMARK                         _______ _______ _______ _____ _____    ______ ____
ROOT
ATOM      1  N   LIG    1        1.014   6.544   2.180  0.00  0.00    -1.100 NA
ATOM      2  H   LIG    1        0.286   6.888   2.721  0.00  0.00    +0.420 HD
ENDROOT
BRANCH   1   9
ATOM      3  C   LIG    1        1.583   2.973   4.319  0.00  0.00    +0.220 A 
ATOM      4  N   LIG    1        2.265   3.510   5.299  0.00  0.00    -0.290 NA
ATOM      5  N   LIG    1        2.630   4.791   4.877  0.00  0.00    -0.360 N 
ATOM      6  C   LIG    1        3.402   5.799   5.602  0.00  0.00    +0.310 C 
ATOM      7  C   LIG    1        3.905   6.848   4.603  0.00  0.00    +0.050 C 
ATOM      8  C   LIG    1        2.737   7.332   3.739  0.00  0.00    +0.060 C 
ATOM      9  C   LIG    1        2.291   6.196   2.808  0.00  0.00    +0.370 C 
ATOM     10  C   LIG    1        2.128   4.945   3.636  0.00  0.00    +0.250 A 
ATOM     11  N   LIG    1        1.504   3.848   3.314  0.00  0.00    -0.500 NA
BRANCH   3  12
ATOM     12  C   LIG    1        0.984   1.590   4.324  0.00  0.00    +0.310 C 
BRANCH  12  14
ATOM     13  C   LIG    1       -1.006   0.383   4.897  0.00  0.00    +0.220 C 
ATOM     14  O   LIG    1       -0.345   1.648   4.848  0.00  0.00    -0.380 OA
ENDBRANCH  12  14
ENDBRANCH   3  12
ENDBRANCH   1   9
BRANCH   1  15
ATOM     15  S   LIG    1        0.814   6.349   0.548  0.00  0.00    +2.700 S 
ATOM     16  O   LIG    1       -0.540   6.678   0.268  0.00  0.00    -0.950 OA
ATOM     17  O   LIG    1        1.915   6.998  -0.071  0.00  0.00    -0.950 OA
BRANCH  15  18
ATOM     18  C   LIG    1        0.990   4.631   0.202  0.00  0.00    -0.660 A 
ATOM     19  C   LIG    1        2.050   4.189  -0.570  0.00  0.00    +0.130 A 
ATOM     20  C   LIG    1        2.197   2.844  -0.839  0.00  0.00    +0.030 A 
ATOM     21  C   LIG    1        1.267   1.929  -0.342  0.00  0.00    +0.040 A 
ATOM     22  C   LIG    1        0.199   2.382   0.436  0.00  0.00    +0.050 A 
ATOM     23  C   LIG    1        0.067   3.729   0.703  0.00  0.00    +0.070 A 
ATOM     24  C   LIG    1       -1.085   4.220   1.542  0.00  0.00    +0.110 C 
BRANCH  21  25
ATOM     25  C   LIG    1        1.410   0.533  -0.624  0.00  0.00    +0.240 C 
ATOM     26  N   LIG    1        1.523  -0.575  -0.847  0.00  0.00    -0.400 NA
ENDBRANCH  21  25
ENDBRANCH  15  18
ENDBRANCH   1  15
TORSDOF 6
