REMARK  Name = ZINCrg00000SjSr0.0
REMARK                            x       y       z     vdW  Elec       q    Type
REMARK                         _______ _______ _______ _____ _____    ______ ____
ROOT
ATOM      1  C   LIG    1       -0.036   1.279   0.991  0.00  0.00    +0.510 C 
ATOM      2  N   LIG    1       -1.167   1.819   1.485  0.00  0.00    -0.700 N 
ATOM      3  H   LIG    1       -1.953   1.265   1.617  0.00  0.00    +0.420 HD
ATOM      4  O   LIG    1        0.945   1.973   0.822  0.00  0.00    -0.510 OA
ENDROOT
BRANCH   1  11
ATOM      5  C   LIG    1        1.201  -2.126  -0.228  0.00  0.00    +0.300 C 
ATOM      6  C   LIG    1        1.884  -2.146  -1.604  0.00  0.00    +0.030 C 
ATOM      7  C   LIG    1        3.261  -1.487  -1.493  0.00  0.00    +0.010 C 
ATOM      8  C   LIG    1        3.097  -0.029  -1.058  0.00  0.00    +0.020 C 
ATOM      9  C   LIG    1        2.427   0.016   0.319  0.00  0.00    +0.270 C 
ATOM     10  N   LIG    1        1.169  -0.740   0.258  0.00  0.00    -0.570 N 
ATOM     11  C   LIG    1        0.009  -0.175   0.645  0.00  0.00    +0.500 C 
ATOM     12  O   LIG    1       -1.000  -0.846   0.714  0.00  0.00    -0.490 OA
BRANCH   5  16
ATOM     13  C   LIG    1       -2.942  -4.879   0.392  0.00  0.00    +0.350 C 
ATOM     14  N   LIG    1       -2.007  -3.853  -0.078  0.00  0.00    -0.380 N 
ATOM     15  C   LIG    1       -0.722  -3.714   0.307  0.00  0.00    +0.230 A 
ATOM     16  C   LIG    1       -0.206  -2.650  -0.353  0.00  0.00    -0.220 A 
ATOM     17  C   LIG    1       -1.210  -2.127  -1.175  0.00  0.00    +0.260 A 
ATOM     18  N   LIG    1       -2.289  -2.847  -1.012  0.00  0.00    -0.300 NA
ENDBRANCH   5  16
ENDBRANCH   1  11
BRANCH   2  19
ATOM     19  C   LIG    1       -1.211   3.244   1.824  0.00  0.00    +0.270 C 
BRANCH  19  20
ATOM     20  C   LIG    1       -2.599   3.599   2.360  0.00  0.00    +0.270 C 
BRANCH  20  21
ATOM     21  N   LIG    1       -2.643   5.023   2.699  0.00  0.00    -0.730 N 
ATOM     22  H   LIG    1       -1.858   5.577   2.568  0.00  0.00    +0.400 HD
ATOM     23  C   LIG    1       -3.774   5.564   3.193  0.00  0.00    +0.600 C 
ATOM     24  O   LIG    1       -4.760   4.869   3.358  0.00  0.00    -0.520 OA
BRANCH  23  25
ATOM     25  C   LIG    1       -3.818   6.989   3.532  0.00  0.00    -0.280 A 
ATOM     26  C   LIG    1       -4.903   7.652   4.033  0.00  0.00    +0.110 A 
ATOM     27  C   LIG    1       -4.666   8.986   4.265  0.00  0.00    +0.000 A 
ATOM     28  C   LIG    1       -3.433   9.406   3.956  0.00  0.00    -0.050 A 
ATOM     29  S   LIG    1       -2.485   8.122   3.353  0.00  0.00    +0.200 S 
ENDBRANCH  23  25
ENDBRANCH  20  21
ENDBRANCH  19  20
ENDBRANCH   2  19
TORSDOF 6
