REMARK  Name = ZINCrH000004sCAA.0
REMARK                            x       y       z     vdW  Elec       q    Type
REMARK                         _______ _______ _______ _____ _____    ______ ____
ROOT
ATOM      1  N   LIG    1        1.156   1.879   0.003  0.00  0.00    -0.740 N 
ATOM      2  H   LIG    1        1.162   2.847  -0.064  0.00  0.00    +0.410 HD
ATOM      3  C   LIG    1       -0.014   1.212   0.009  0.00  0.00    +0.710 C 
ATOM      4  N   LIG    1       -1.178   1.892   0.018  0.00  0.00    -0.630 N 
ATOM      5  C   LIG    1       -1.189   3.358  -0.075  0.00  0.00    +0.260 C 
ATOM      6  C   LIG    1       -1.996   3.925   1.091  0.00  0.00    +0.020 C 
ATOM      7  C   LIG    1       -3.386   3.285   1.105  0.00  0.00    +0.000 C 
ATOM      8  C   LIG    1       -3.252   1.773   1.299  0.00  0.00    +0.020 C 
ATOM      9  C   LIG    1       -2.459   1.181   0.129  0.00  0.00    +0.300 C 
ATOM     10  O   LIG    1       -0.021  -0.004  -0.000  0.00  0.00    -0.590 OA
ENDROOT
BRANCH   1  11
ATOM     11  C   LIG    1        2.420   1.144   0.099  0.00  0.00    +0.320 C 
ATOM     12  C   LIG    1        2.846   0.680  -1.295  0.00  0.00    +0.050 C 
BRANCH  11  18
ATOM     13  C   LIG    1        4.162   5.643   0.901  0.00  0.00    +0.180 C 
ATOM     14  C   LIG    1        4.310   4.151   1.058  0.00  0.00    +0.320 A 
ATOM     15  N   LIG    1        5.362   3.675   1.694  0.00  0.00    -0.520 NA
ATOM     16  C   LIG    1        5.526   2.372   1.853  0.00  0.00    +0.330 A 
ATOM     17  C   LIG    1        4.571   1.506   1.343  0.00  0.00    -0.080 A 
ATOM     18  C   LIG    1        3.482   2.043   0.676  0.00  0.00    +0.170 A 
ATOM     19  N   LIG    1        3.385   3.358   0.556  0.00  0.00    -0.520 NA
ENDBRANCH  11  18
ENDBRANCH   1  11
BRANCH   7  20
ATOM     20  C   LIG    1       -4.207   3.875   2.254  0.00  0.00    +0.080 C 
BRANCH  20  21
ATOM     21  C   LIG    1       -4.444   5.341   2.001  0.00  0.00    -0.020 A 
ATOM     22  C   LIG    1       -3.546   6.278   2.476  0.00  0.00    -0.020 A 
ATOM     23  C   LIG    1       -3.759   7.626   2.239  0.00  0.00    +0.130 A 
ATOM     24  C   LIG    1       -4.879   8.035   1.536  0.00  0.00    -0.050 A 
ATOM     25  C   LIG    1       -5.781   7.096   1.066  0.00  0.00    +0.140 A 
ATOM     26  F   LIG    1       -6.875   7.495   0.380  0.00  0.00    -0.130 F 
ATOM     27  F   LIG    1       -2.878   8.540   2.698  0.00  0.00    -0.130 F 
ATOM     28  C   LIG    1       -5.563   5.749   1.299  0.00  0.00    -0.020 A 
ENDBRANCH  20  21
ENDBRANCH   7  20
TORSDOF 4
