REMARK  Name = ZINCrH000004seYV.0
REMARK                            x       y       z     vdW  Elec       q    Type
REMARK                         _______ _______ _______ _____ _____    ______ ____
ROOT
ATOM      1  C   LIG    1       -4.919   5.132   0.493  0.00  0.00    +0.250 C 
ATOM      2  C   LIG    1       -5.024   6.211  -0.608  0.00  0.00    +0.170 C 
ATOM      3  S   LIG    1       -6.849   6.340  -0.817  0.00  0.00    -0.230 S 
ATOM      4  C   LIG    1       -7.146   4.566  -0.424  0.00  0.00    +0.380 C 
ATOM      5  N   LIG    1       -6.091   4.274   0.567  0.00  0.00    -0.590 N 
ATOM      6  C   LIG    1       -6.207   3.284   1.475  0.00  0.00    +0.610 C 
ATOM      7  O   LIG    1       -5.320   3.097   2.286  0.00  0.00    -0.510 OA
ENDROOT
BRANCH   6   8
ATOM      8  C   LIG    1       -7.405   2.432   1.485  0.00  0.00    +0.040 A 
ATOM      9  C   LIG    1       -8.372   2.421   0.531  0.00  0.00    +0.010 A 
ATOM     10  C   LIG    1       -9.343   1.463   0.911  0.00  0.00    -0.110 A 
ATOM     11  C   LIG    1      -10.539   1.023   0.330  0.00  0.00    +0.090 A 
ATOM     12  C   LIG    1      -11.284   0.063   0.954  0.00  0.00    -0.060 A 
ATOM     13  C   LIG    1      -10.866  -0.482   2.162  0.00  0.00    +0.060 A 
ATOM     14  C   LIG    1       -9.694  -0.065   2.752  0.00  0.00    +0.020 A 
ATOM     15 CL   LIG    1      -12.765  -0.481   0.231  0.00  0.00    -0.070 Cl
ATOM     16  C   LIG    1       -8.918   0.912   2.136  0.00  0.00    +0.110 A 
ATOM     17  N   LIG    1       -7.729   1.518   2.469  0.00  0.00    -0.440 N 
ATOM     18  C   LIG    1       -6.938   1.242   3.671  0.00  0.00    +0.340 C 
ENDBRANCH   6   8
BRANCH   1  21
ATOM     19  N   LIG    1       -2.480   4.831   0.209  0.00  0.00    -0.630 N 
ATOM     20  H   LIG    1       -2.375   5.780   0.377  0.00  0.00    +0.420 HD
ATOM     21  C   LIG    1       -3.709   4.277   0.220  0.00  0.00    +0.500 C 
ATOM     22  O   LIG    1       -3.841   3.090   0.010  0.00  0.00    -0.440 OA
BRANCH  19  27
ATOM     23  C   LIG    1        2.259   2.580  -0.657  0.00  0.00    +0.160 C 
ATOM     24  C   LIG    1        0.823   2.984  -0.447  0.00  0.00    -0.230 A 
ATOM     25  C   LIG    1       -0.236   2.174  -0.500  0.00  0.00    +0.240 A 
ATOM     26  N   LIG    1       -1.394   2.768  -0.285  0.00  0.00    -0.470 NA
ATOM     27  C   LIG    1       -1.364   4.042  -0.043  0.00  0.00    +0.260 A 
ATOM     28  S   LIG    1        0.247   4.610  -0.088  0.00  0.00    +0.130 S 
ENDBRANCH  19  27
ENDBRANCH   1  21
TORSDOF 3
