REMARK  Name = ZINCpe00000FU7PW.0
REMARK                            x       y       z     vdW  Elec       q    Type
REMARK                         _______ _______ _______ _____ _____    ______ ____
ROOT
ATOM      1  C   LIG    1        2.093   1.112   2.697  0.00  0.00    +0.600 C 
ATOM      2  N   LIG    1        2.560   1.121   3.961  0.00  0.00    -0.640 N 
ATOM      3  C   LIG    1        2.018   1.469   5.286  0.00  0.00    +0.360 C 
ATOM      4  C   LIG    1        3.039   0.506   5.883  0.00  0.00    -0.580 C 
ATOM      5  C   LIG    1        2.588  -0.939   6.100  0.00  0.00    +0.040 C 
ATOM      6  C   LIG    1        2.317  -1.146   7.603  0.00  0.00    +0.110 C 
ATOM      7  C   LIG    1        3.514  -0.520   8.367  0.00  0.00    -0.290 C 
ATOM      8  S   LIG    1        3.808   1.038   7.444  0.00  0.00    +2.410 S 
ATOM      9  O   LIG    1        3.034   2.082   8.020  0.00  0.00    -0.910 OA
ATOM     10  O   LIG    1        5.204   1.214   7.247  0.00  0.00    -0.920 OA
ATOM     11  C   LIG    1        3.837   0.794   4.620  0.00  0.00    +0.360 C 
ATOM     12  O   LIG    1        2.782   0.671   1.798  0.00  0.00    -0.520 OA
ENDROOT
BRANCH   1  20
ATOM     13  C   LIG    1        0.712   0.253   0.304  0.00  0.00    +0.110 C 
ATOM     14  C   LIG    1        0.067   1.230   1.253  0.00  0.00    -0.060 A 
ATOM     15  C   LIG    1       -1.193   1.729   0.982  0.00  0.00    +0.090 A 
ATOM     16  C   LIG    1       -1.789   2.623   1.857  0.00  0.00    +0.020 A 
ATOM     17  C   LIG    1       -1.123   3.029   3.000  0.00  0.00    +0.040 A 
ATOM     18  C   LIG    1        0.138   2.542   3.278  0.00  0.00    +0.040 A 
ATOM     19  F   LIG    1       -1.847   1.341  -0.135  0.00  0.00    -0.130 F 
ATOM     20  C   LIG    1        0.742   1.637   2.404  0.00  0.00    -0.110 A 
ENDBRANCH   1  20
BRANCH   5  21
ATOM     21  C   LIG    1        1.328  -1.200   5.316  0.00  0.00    +0.530 C 
ATOM     22  N   LIG    1        1.386  -1.877   4.152  0.00  0.00    -0.610 N 
ATOM     23  C   LIG    1        2.654  -2.460   3.707  0.00  0.00    +0.280 C 
ATOM     24  C   LIG    1        0.182  -2.028   3.331  0.00  0.00    +0.290 C 
ATOM     25  O   LIG    1        0.261  -0.802   5.733  0.00  0.00    -0.530 OA
ENDBRANCH   5  21
TORSDOF 2
