REMARK  Name = ZINCpe000000SztN.0
REMARK                            x       y       z     vdW  Elec       q    Type
REMARK                         _______ _______ _______ _____ _____    ______ ____
ROOT
ATOM      1  C   LIG    1        7.420  -1.694   1.548  0.00  0.00    +0.530 C 
ATOM      2  N   LIG    1        6.402  -1.441   0.702  0.00  0.00    -0.610 N 
ATOM      3  C   LIG    1        6.519  -0.400  -0.330  0.00  0.00    +0.300 C 
ATOM      4  C   LIG    1        5.301   0.524  -0.231  0.00  0.00    +0.190 C 
ATOM      5  N   LIG    1        4.074  -0.281  -0.297  0.00  0.00    -0.490 N 
ATOM      6  C   LIG    1        3.980  -1.205   0.842  0.00  0.00    +0.190 C 
ATOM      7  C   LIG    1        5.145  -2.199   0.786  0.00  0.00    +0.290 C 
ATOM      8  O   LIG    1        8.478  -1.115   1.414  0.00  0.00    -0.520 OA
ENDROOT
BRANCH   5   9
ATOM      9  C   LIG    1        2.943   0.535  -0.374  0.00  0.00    +0.110 A 
ATOM     10  C   LIG    1        1.677  -0.034  -0.445  0.00  0.00    -0.020 A 
ATOM     11  C   LIG    1        0.561   0.776  -0.521  0.00  0.00    +0.030 A 
ATOM     12  C   LIG    1        0.703   2.152  -0.527  0.00  0.00    -0.020 A 
ATOM     13  C   LIG    1        1.961   2.721  -0.456  0.00  0.00    +0.030 A 
ATOM     14  C   LIG    1        3.081   1.917  -0.380  0.00  0.00    -0.040 A 
ENDBRANCH   5   9
BRANCH   1  15
ATOM     15  C   LIG    1        7.244  -2.695   2.661  0.00  0.00    +0.180 C 
ATOM     16  C   LIG    1        7.144  -4.102   2.070  0.00  0.00    +0.020 C 
BRANCH  15  22
ATOM     17  C   LIG    1       12.890  -4.393   4.802  0.00  0.00    +0.100 C 
ATOM     18  C   LIG    1       11.581  -4.241   5.533  0.00  0.00    +0.510 C 
ATOM     19  N   LIG    1       10.623  -3.431   5.039  0.00  0.00    -0.620 N 
ATOM     20  C   LIG    1        9.338  -3.269   5.736  0.00  0.00    +0.300 C 
ATOM     21  C   LIG    1        8.206  -3.504   4.730  0.00  0.00    +0.170 C 
ATOM     22  N   LIG    1        8.398  -2.626   3.568  0.00  0.00    -0.520 NA
ATOM     23  C   LIG    1        9.645  -2.944   2.860  0.00  0.00    +0.190 C 
ATOM     24  C   LIG    1       10.836  -2.686   3.788  0.00  0.00    +0.280 C 
ATOM     25  O   LIG    1       11.389  -4.848   6.565  0.00  0.00    -0.550 OA
ENDBRANCH  15  22
ENDBRANCH   1  15
TORSDOF 3
