REMARK  Name = ZINCvU00000009be.0
REMARK                            x       y       z     vdW  Elec       q    Type
REMARK                         _______ _______ _______ _____ _____    ______ ____
ROOT
ATOM      1  C   LIG    1       -2.200   1.017   1.040  0.00  0.00    +0.270 C 
ATOM      2  C   LIG    1       -2.433   0.390  -0.351  0.00  0.00    +0.050 C 
ATOM      3  C   LIG    1       -1.100   0.680  -1.091  0.00  0.00    +0.040 C 
ATOM      4  C   LIG    1       -0.070   0.541   0.058  0.00  0.00    +0.250 C 
ATOM      5  N   LIG    1       -0.744   1.105   1.242  0.00  0.00    -0.610 N 
ATOM      6  C   LIG    1       -0.128   1.615   2.327  0.00  0.00    +0.580 C 
ATOM      7  O   LIG    1        1.081   1.746   2.335  0.00  0.00    -0.530 OA
ENDROOT
BRANCH   1  12
ATOM      8  C   LIG    1       -2.589  -1.547   3.789  0.00  0.00    +0.100 A 
ATOM      9  C   LIG    1       -3.946  -1.459   4.060  0.00  0.00    -0.040 A 
ATOM     10  C   LIG    1       -4.736  -0.572   3.355  0.00  0.00    -0.030 A 
ATOM     11  C   LIG    1       -4.171   0.232   2.375  0.00  0.00    +0.100 A 
ATOM     12  C   LIG    1       -2.813   0.144   2.104  0.00  0.00    -0.090 A 
ATOM     13  C   LIG    1       -2.025  -0.746   2.806  0.00  0.00    +0.040 A 
BRANCH   8  15
ATOM     14  C   LIG    1       -2.460  -3.216   5.478  0.00  0.00    +0.230 C 
ATOM     15  O   LIG    1       -1.812  -2.420   4.483  0.00  0.00    -0.310 OA
ENDBRANCH   8  15
BRANCH  11  16
ATOM     16  O   LIG    1       -4.948   1.105   1.681  0.00  0.00    -0.320 OA
ATOM     17  C   LIG    1       -6.338   1.142   2.012  0.00  0.00    +0.240 C 
ENDBRANCH  11  16
ENDBRANCH   1  12
BRANCH   6  18
ATOM     18  C   LIG    1       -0.922   2.015   3.506  0.00  0.00    -0.170 A 
ATOM     19  C   LIG    1       -2.305   2.179   3.396  0.00  0.00    +0.100 A 
ATOM     20  C   LIG    1       -3.042   2.547   4.500  0.00  0.00    -0.090 A 
ATOM     21  C   LIG    1       -2.411   2.767   5.718  0.00  0.00    +0.160 A 
ATOM     22  C   LIG    1       -1.034   2.610   5.830  0.00  0.00    -0.020 A 
ATOM     23  C   LIG    1       -0.290   2.237   4.733  0.00  0.00    +0.120 A 
BRANCH  21  24
ATOM     24  O   LIG    1       -3.140   3.134   6.802  0.00  0.00    -0.310 OA
BRANCH  24  25
ATOM     25  C   LIG    1       -4.550   3.277   6.617  0.00  0.00    +0.310 C 
BRANCH  25  26
ATOM     26  C   LIG    1       -5.188   3.687   7.919  0.00  0.00    +0.060 A 
ATOM     27  C   LIG    1       -4.488   3.868   9.043  0.00  0.00    -0.050 A 
ATOM     28  S   LIG    1       -5.613   4.340  10.314  0.00  0.00    +0.130 S 
ATOM     29  C   LIG    1       -6.915   4.239   9.210  0.00  0.00    +0.050 A 
ATOM     30  C   LIG    1       -8.357   4.515   9.550  0.00  0.00    +0.180 C 
ATOM     31  N   LIG    1       -6.484   3.891   8.044  0.00  0.00    -0.470 NA
ENDBRANCH  25  26
ENDBRANCH  24  25
ENDBRANCH  21  24
ENDBRANCH   6  18
TORSDOF 7
