REMARK  Name = ZINCpk00000kOFJv.0
REMARK                            x       y       z     vdW  Elec       q    Type
REMARK                         _______ _______ _______ _____ _____    ______ ____
ROOT
ATOM      1  C   LIG    1        2.294  -5.115   2.480  0.00  0.00    +0.600 C 
ATOM      2  N   LIG    1        2.929  -5.974   1.658  0.00  0.00    -0.590 N 
ATOM      3  C   LIG    1        3.069  -5.674   0.227  0.00  0.00    +0.270 C 
ATOM      4  C   LIG    1        2.492  -6.837  -0.582  0.00  0.00    +0.300 C 
ATOM      5  N   LIG    1        3.050  -8.094  -0.063  0.00  0.00    -1.000 NA
ATOM      6  C   LIG    1        2.905  -8.396   1.367  0.00  0.00    +0.300 C 
ATOM      7  C   LIG    1        3.487  -7.231   2.177  0.00  0.00    +0.160 C 
ATOM      8  C   LIG    1        3.110  -7.391   3.651  0.00  0.00    +0.070 C 
ATOM      9  C   LIG    1        5.010  -7.215   2.031  0.00  0.00    +0.040 C 
ATOM     10  O   LIG    1        2.258  -5.332   3.677  0.00  0.00    -0.510 OA
ENDROOT
BRANCH   1  13
ATOM     11  C   LIG    1       -0.565  -4.269   3.079  0.00  0.00    +0.160 C 
ATOM     12  C   LIG    1        0.376  -3.512   2.178  0.00  0.00    +0.150 A 
ATOM     13  C   LIG    1        1.647  -3.918   1.932  0.00  0.00    -0.300 A 
ATOM     14  S   LIG    1        2.380  -2.753   0.831  0.00  0.00    +0.180 S 
ATOM     15  C   LIG    1        0.932  -1.844   0.815  0.00  0.00    +0.070 A 
ATOM     16  N   LIG    1        0.038  -2.406   1.564  0.00  0.00    -0.470 NA
BRANCH  15  17
ATOM     17  C   LIG    1        0.724  -0.572   0.035  0.00  0.00    +0.060 C 
ATOM     18  C   LIG    1       -0.432  -0.730  -0.983  0.00  0.00    +0.040 C 
ATOM     19  C   LIG    1       -1.195   0.606  -0.898  0.00  0.00    +0.200 C 
ATOM     20  O   LIG    1       -0.494   1.440   0.039  0.00  0.00    -0.370 OA
ATOM     21  C   LIG    1        0.196   0.560   0.953  0.00  0.00    +0.240 C 
ENDBRANCH  15  17
ENDBRANCH   1  13
BRANCH   5  22
ATOM     22  S   LIG    1        3.828  -9.150  -1.073  0.00  0.00    +2.610 S 
ATOM     23  O   LIG    1        4.720  -9.857  -0.222  0.00  0.00    -0.950 OA
ATOM     24  O   LIG    1        4.316  -8.332  -2.128  0.00  0.00    -0.950 OA
ATOM     25  C   LIG    1        2.518 -10.249  -1.676  0.00  0.00    -0.280 C 
ENDBRANCH   5  22
TORSDOF 3
