REMARK  Name = ZINCrH000004qNzb.0
REMARK                            x       y       z     vdW  Elec       q    Type
REMARK                         _______ _______ _______ _____ _____    ______ ____
ROOT
ATOM      1  N   LIG    1        2.136   0.851   5.830  0.00  0.00    -0.680 N 
ATOM      2  H   LIG    1        1.958   0.046   6.343  0.00  0.00    +0.410 HD
ATOM      3  C   LIG    1        3.065   1.729   6.256  0.00  0.00    +0.710 C 
ATOM      4  N   LIG    1        3.820   1.442   7.335  0.00  0.00    -0.730 N 
ATOM      5  H   LIG    1        3.694   0.602   7.805  0.00  0.00    +0.400 HD
ATOM      6  O   LIG    1        3.222   2.781   5.668  0.00  0.00    -0.560 OA
ENDROOT
BRANCH   4   7
ATOM      7  C   LIG    1        4.829   2.397   7.799  0.00  0.00    +0.370 C 
ATOM      8  C   LIG    1        5.921   1.673   8.620  0.00  0.00    +0.080 C 
ATOM      9  C   LIG    1        6.249   2.725   9.702  0.00  0.00    +0.230 C 
ATOM     10  N   LIG    1        5.036   3.544   9.836  0.00  0.00    -0.480 N 
ATOM     11  C   LIG    1        4.430   4.438  10.682  0.00  0.00    +0.140 A 
ATOM     12  C   LIG    1        3.266   4.792  10.107  0.00  0.00    +0.160 A 
ATOM     13  N   LIG    1        3.162   4.135   8.944  0.00  0.00    -0.460 NA
ATOM     14  C   LIG    1        7.427   3.593   9.256  0.00  0.00    +0.050 C 
ATOM     15  C   LIG    1        4.218   3.384   8.773  0.00  0.00    +0.170 A 
ENDBRANCH   4   7
BRANCH   1  19
ATOM     16  C   LIG    1        1.907   2.732   1.274  0.00  0.00    +0.110 C 
ATOM     17  C   LIG    1        1.296   2.002   2.442  0.00  0.00    -0.080 A 
ATOM     18  C   LIG    1        2.032   1.780   3.591  0.00  0.00    +0.070 A 
ATOM     19  C   LIG    1        1.427   1.099   4.646  0.00  0.00    +0.120 A 
ATOM     20  C   LIG    1        0.116   0.671   4.511  0.00  0.00    +0.230 A 
ATOM     21  N   LIG    1       -0.560   0.905   3.401  0.00  0.00    -0.490 NA
ATOM     22  C   LIG    1       -0.015   1.543   2.378  0.00  0.00    +0.270 A 
BRANCH  22  23
ATOM     23  N   LIG    1       -0.766   1.762   1.225  0.00  0.00    -0.480 N 
ATOM     24  C   LIG    1       -1.099   0.493   0.565  0.00  0.00    +0.180 C 
ATOM     25  C   LIG    1       -1.795   0.778  -0.768  0.00  0.00    +0.020 C 
ATOM     26  C   LIG    1       -3.067   1.591  -0.511  0.00  0.00    +0.010 C 
ATOM     27  C   LIG    1       -2.697   2.884   0.221  0.00  0.00    +0.030 C 
ATOM     28  C   LIG    1       -1.975   2.539   1.525  0.00  0.00    +0.140 C 
ATOM     29  C   LIG    1       -1.587   3.829   2.250  0.00  0.00    +0.020 C 
ENDBRANCH  22  23
ENDBRANCH   1  19
TORSDOF 3
