REMARK  Name = ZINCpk00000KfKQZ.0
REMARK                            x       y       z     vdW  Elec       q    Type
REMARK                         _______ _______ _______ _____ _____    ______ ____
ROOT
ATOM      1  C   LIG    1        0.307   1.706   3.334  0.00  0.00    +0.610 C 
ATOM      2  N   LIG    1        1.016   1.758   4.479  0.00  0.00    -0.590 N 
ATOM      3  C   LIG    1        0.404   2.264   5.715  0.00  0.00    +0.300 C 
ATOM      4  C   LIG    1        0.582   1.216   6.819  0.00  0.00    -0.020 C 
ATOM      5  C   LIG    1        2.067   0.867   6.949  0.00  0.00    +0.050 C 
ATOM      6  C   LIG    1        2.571   0.273   5.632  0.00  0.00    +0.020 C 
ATOM      7  C   LIG    1        2.413   1.304   4.517  0.00  0.00    +0.220 C 
ATOM      8  C   LIG    1        2.781   0.667   3.176  0.00  0.00    +0.060 C 
ATOM      9  O   LIG    1        0.852   1.377   2.297  0.00  0.00    -0.520 OA
ENDROOT
BRANCH   1  12
ATOM     10  C   LIG    1       -1.633   1.426   0.898  0.00  0.00    +0.200 C 
ATOM     11  C   LIG    1       -1.980   1.927   2.276  0.00  0.00    +0.140 A 
ATOM     12  C   LIG    1       -1.127   2.047   3.337  0.00  0.00    -0.100 A 
ATOM     13  N   LIG    1       -1.817   2.530   4.385  0.00  0.00    -0.210 NA
ATOM     14  N   LIG    1       -3.045   2.717   4.044  0.00  0.00    -0.050 NA
ATOM     15  N   LIG    1       -3.191   2.348   2.699  0.00  0.00    -0.310 N 
BRANCH  15  16
ATOM     16  C   LIG    1       -4.370   2.404   1.940  0.00  0.00    +0.110 A 
ATOM     17  C   LIG    1       -5.211   3.503   2.043  0.00  0.00    +0.090 A 
ATOM     18  C   LIG    1       -6.369   3.558   1.292  0.00  0.00    +0.010 A 
ATOM     19  C   LIG    1       -6.695   2.513   0.443  0.00  0.00    +0.120 A 
ATOM     20  C   LIG    1       -5.859   1.414   0.343  0.00  0.00    +0.020 A 
ATOM     21  F   LIG    1       -7.830   2.567  -0.287  0.00  0.00    -0.130 F 
ATOM     22  C   LIG    1       -4.698   1.357   1.089  0.00  0.00    +0.070 A 
ENDBRANCH  15  16
ENDBRANCH   1  12
BRANCH   4  23
ATOM     23  C   LIG    1        0.079   1.772   8.126  0.00  0.00    +0.530 C 
ATOM     24  O   LIG    1        0.831   1.876   9.071  0.00  0.00    -0.540 OA
ATOM     25  N   LIG    1       -1.209   2.152   8.245  0.00  0.00    -0.850 N 
ATOM     26  H   LIG    1       -1.533   2.510   9.086  0.00  0.00    +0.400 HD
ATOM     27  H   LIG    1       -1.811   2.069   7.489  0.00  0.00    +0.400 HD
ENDBRANCH   4  23
TORSDOF 3
