REMARK  Name = ZINCqH0000035FzV.0
REMARK                            x       y       z     vdW  Elec       q    Type
REMARK                         _______ _______ _______ _____ _____    ______ ____
ROOT
ATOM      1  C   LIG    1        0.085  -2.766   0.087  0.00  0.00    +0.510 C 
ATOM      2  N   LIG    1        1.237  -2.073  -0.019  0.00  0.00    -0.670 N 
ATOM      3  H   LIG    1        2.080  -2.545  -0.108  0.00  0.00    +0.410 HD
ATOM      4  O   LIG    1       -0.976  -2.179   0.098  0.00  0.00    -0.500 OA
ENDROOT
BRANCH   2   5
ATOM      5  C   LIG    1        1.216  -0.674   0.001  0.00  0.00    +0.150 A 
ATOM      6  C   LIG    1        0.171  -0.009   0.621  0.00  0.00    +0.010 A 
ATOM      7  C   LIG    1        0.152   1.372   0.638  0.00  0.00    +0.030 A 
ATOM      8  C   LIG    1        1.172   2.080   0.036  0.00  0.00    -0.020 A 
ATOM      9  C   LIG    1        2.221   1.418  -0.590  0.00  0.00    -0.060 A 
ATOM     10  C   LIG    1        3.292   2.257  -1.238  0.00  0.00    +0.080 C 
ATOM     11  C   LIG    1        4.551   1.427  -1.479  0.00  0.00    +0.020 C 
ATOM     12  C   LIG    1        4.151   0.143  -2.215  0.00  0.00    +0.020 C 
ATOM     13  C   LIG    1        3.363  -0.740  -1.249  0.00  0.00    +0.060 C 
ATOM     14  C   LIG    1        2.248   0.043  -0.605  0.00  0.00    -0.110 A 
ENDBRANCH   2   5
BRANCH   1  15
ATOM     15  C   LIG    1        0.117  -4.269   0.191  0.00  0.00    +0.120 C 
BRANCH  15  18
ATOM     16  C   LIG    1       -3.291  -5.603  -0.754  0.00  0.00    +0.150 A 
ATOM     17  C   LIG    1       -1.995  -5.119  -0.848  0.00  0.00    -0.090 A 
ATOM     18  C   LIG    1       -1.292  -4.794   0.297  0.00  0.00    +0.000 A 
ATOM     19  C   LIG    1       -1.875  -4.956   1.540  0.00  0.00    -0.090 A 
ATOM     20  C   LIG    1       -3.173  -5.434   1.642  0.00  0.00    +0.150 A 
ATOM     21  C   LIG    1       -3.883  -5.761   0.493  0.00  0.00    +0.030 A 
BRANCH  16  23
ATOM     22  C   LIG    1       -3.310  -5.734  -3.129  0.00  0.00    +0.240 C 
ATOM     23  O   LIG    1       -3.982  -5.922  -1.881  0.00  0.00    -0.300 OA
ENDBRANCH  16  23
BRANCH  20  24
ATOM     24  O   LIG    1       -3.748  -5.587   2.865  0.00  0.00    -0.300 OA
ATOM     25  C   LIG    1       -2.959  -5.231   4.002  0.00  0.00    +0.240 C 
ENDBRANCH  20  24
BRANCH  21  26
ATOM     26  O   LIG    1       -5.155  -6.236   0.589  0.00  0.00    -0.310 OA
ATOM     27  C   LIG    1       -5.312  -7.652   0.697  0.00  0.00    +0.210 C 
ENDBRANCH  21  26
ENDBRANCH  15  18
ENDBRANCH   1  15
TORSDOF 6
