REMARK  Name = ZINCpk00000KfL6S.0
REMARK                            x       y       z     vdW  Elec       q    Type
REMARK                         _______ _______ _______ _____ _____    ______ ____
ROOT
ATOM      1  C   LIG    1       -2.156   1.044   1.302  0.00  0.00    +0.290 C 
ENDROOT
BRANCH   1   2
ATOM      2  N   LIG    1       -2.876   1.532   0.122  0.00  0.00    -0.710 N 
ATOM      3  H   LIG    1       -2.552   2.311  -0.356  0.00  0.00    +0.410 HD
ATOM      4  C   LIG    1       -3.987   0.897  -0.299  0.00  0.00    +0.510 C 
ATOM      5  O   LIG    1       -4.341  -0.129   0.241  0.00  0.00    -0.520 OA
BRANCH   4   6
ATOM      6  C   LIG    1       -4.791   1.463  -1.441  0.00  0.00    +0.240 C 
ATOM      7  C   LIG    1       -4.208   0.990  -2.791  0.00  0.00    +0.080 C 
ATOM      8  C   LIG    1       -5.058  -0.269  -3.078  0.00  0.00    +0.060 C 
ATOM      9  C   LIG    1       -6.340  -0.035  -2.309  0.00  0.00    +0.530 C 
ATOM     10  O   LIG    1       -7.375  -0.642  -2.483  0.00  0.00    -0.520 OA
ATOM     11  N   LIG    1       -6.163   0.943  -1.403  0.00  0.00    -0.710 N 
ATOM     12  H   LIG    1       -6.854   1.264  -0.802  0.00  0.00    +0.420 HD
ENDBRANCH   4   6
ENDBRANCH   1   2
BRANCH   1  13
ATOM     13  C   LIG    1       -2.812   1.582   2.547  0.00  0.00    +0.450 C 
ATOM     14  O   LIG    1       -3.780   2.299   2.459  0.00  0.00    -0.500 OA
BRANCH  13  16
ATOM     15  C   LIG    1       -3.001   1.819   4.911  0.00  0.00    +0.260 C 
ATOM     16  O   LIG    1       -2.319   1.265   3.755  0.00  0.00    -0.360 OA
ENDBRANCH  13  16
ENDBRANCH   1  13
BRANCH   1  17
ATOM     17  C   LIG    1       -0.703   1.519   1.245  0.00  0.00    +0.060 C 
BRANCH  17  18
ATOM     18  C   LIG    1        0.003   0.860   0.058  0.00  0.00    +0.050 C 
ATOM     19  C   LIG    1        0.071  -0.648   0.287  0.00  0.00    +0.020 C 
ATOM     20  C   LIG    1        0.966  -1.262  -0.797  0.00  0.00    +0.020 C 
ATOM     21  C   LIG    1        2.408  -0.832  -0.531  0.00  0.00    +0.070 C 
ATOM     22  C   LIG    1        2.491   0.662  -0.354  0.00  0.00    -0.070 A 
ATOM     23  C   LIG    1        3.739   1.259  -0.475  0.00  0.00    +0.000 A 
ATOM     24  C   LIG    1        3.881   2.622  -0.319  0.00  0.00    +0.000 A 
ATOM     25  C   LIG    1        2.774   3.401  -0.041  0.00  0.00    +0.000 A 
ATOM     26  C   LIG    1        1.533   2.810   0.078  0.00  0.00    +0.000 A 
ATOM     27  C   LIG    1        1.387   1.438  -0.080  0.00  0.00    -0.070 A 
ENDBRANCH  17  18
ENDBRANCH   1  17
TORSDOF 6
