REMARK  Name = ZINCqH0000007a1O.0
REMARK                            x       y       z     vdW  Elec       q    Type
REMARK                         _______ _______ _______ _____ _____    ______ ____
ROOT
ATOM      1  N   LIG    1       -4.034  -1.387   0.850  0.00  0.00    -0.710 N 
ATOM      2  H   LIG    1       -3.145  -1.776   0.850  0.00  0.00    +0.400 HD
ATOM      3  C   LIG    1       -5.064  -2.064   0.305  0.00  0.00    +0.560 C 
ATOM      4  O   LIG    1       -6.193  -1.620   0.385  0.00  0.00    -0.520 OA
ENDROOT
BRANCH   3   5
ATOM      5  C   LIG    1       -4.821  -3.350  -0.392  0.00  0.00    -0.030 A 
ATOM      6  C   LIG    1       -3.583  -3.926  -0.383  0.00  0.00    +0.000 A 
ATOM      7  C   LIG    1       -3.376  -5.197  -1.073  0.00  0.00    +0.540 A 
ATOM      8  N   LIG    1       -4.384  -5.801  -1.727  0.00  0.00    -0.630 N 
ATOM      9  H   LIG    1       -4.219  -6.643  -2.181  0.00  0.00    +0.420 HD
ATOM     10  C   LIG    1       -5.646  -5.250  -1.765  0.00  0.00    +0.180 A 
ATOM     11  C   LIG    1       -6.676  -5.893  -2.447  0.00  0.00    -0.030 A 
ATOM     12  C   LIG    1       -7.934  -5.330  -2.477  0.00  0.00    +0.070 A 
ATOM     13  C   LIG    1       -8.186  -4.127  -1.832  0.00  0.00    -0.020 A 
ATOM     14  C   LIG    1       -7.191  -3.480  -1.156  0.00  0.00    +0.110 A 
ATOM     15  O   LIG    1       -2.273  -5.713  -1.062  0.00  0.00    -0.520 OA
ATOM     16  C   LIG    1       -5.907  -4.031  -1.113  0.00  0.00    -0.110 A 
ENDBRANCH   3   5
BRANCH   1  17
ATOM     17  C   LIG    1       -4.256  -0.065   1.440  0.00  0.00    +0.230 C 
ATOM     18  C   LIG    1       -4.725  -0.226   2.888  0.00  0.00    +0.020 C 
BRANCH  17  19
ATOM     19  C   LIG    1       -2.951   0.732   1.412  0.00  0.00    +0.030 C 
BRANCH  19  20
ATOM     20  C   LIG    1       -2.548   1.000  -0.039  0.00  0.00    +0.060 C 
BRANCH  20  24
ATOM     21  C   LIG    1        1.098   3.227  -0.124  0.00  0.00    +0.120 A 
ATOM     22  C   LIG    1        1.131   1.840  -0.127  0.00  0.00    -0.020 A 
ATOM     23  C   LIG    1       -0.049   1.123  -0.095  0.00  0.00    +0.050 A 
ATOM     24  C   LIG    1       -1.262   1.785  -0.067  0.00  0.00    -0.120 A 
ATOM     25  C   LIG    1       -1.297   3.168  -0.059  0.00  0.00    +0.040 A 
ATOM     26  C   LIG    1       -0.120   3.890  -0.090  0.00  0.00    -0.080 A 
BRANCH  21  28
ATOM     27  C   LIG    1        2.148   5.360  -0.151  0.00  0.00    +0.250 C 
ATOM     28  O   LIG    1        2.258   3.935  -0.156  0.00  0.00    -0.320 OA
ENDBRANCH  21  28
ENDBRANCH  20  24
ENDBRANCH  19  20
ENDBRANCH  17  19
ENDBRANCH   1  17
TORSDOF 6
