REMARK  Name = ZINCrm000000HwiS.1
REMARK                            x       y       z     vdW  Elec       q    Type
REMARK                         _______ _______ _______ _____ _____    ______ ____
ROOT
ATOM      1  N   LIG    1        0.337   4.786   4.161  0.00  0.00    -0.750 N 
ATOM      2  H   LIG    1       -0.551   5.152   4.030  0.00  0.00    +0.400 HD
ATOM      3  C   LIG    1        0.630   3.550   3.712  0.00  0.00    +0.530 C 
ATOM      4  O   LIG    1        1.741   3.092   3.876  0.00  0.00    -0.510 OA
ENDROOT
BRANCH   3   5
ATOM      5  C   LIG    1       -0.424   2.735   3.007  0.00  0.00    -0.020 C 
ATOM      6  C   LIG    1        0.068   1.348   2.557  0.00  0.00    +0.160 C 
ATOM      7  C   LIG    1       -0.725   1.577   1.266  0.00  0.00    -0.580 C 
ATOM      8  C   LIG    1       -0.013   1.086   0.008  0.00  0.00    +0.110 C 
ATOM      9  C   LIG    1       -0.749   1.591  -1.232  0.00  0.00    +0.160 C 
ATOM     10  C   LIG    1       -2.122   0.936  -1.347  0.00  0.00    +0.090 C 
ATOM     11  C   LIG    1       -3.064   1.489  -0.275  0.00  0.00    -0.300 C 
ATOM     12  S   LIG    1       -2.440   0.998   1.361  0.00  0.00    +2.440 S 
ATOM     13  O   LIG    1       -2.439  -0.421   1.442  0.00  0.00    -0.900 OA
ATOM     14  O   LIG    1       -3.122   1.753   2.354  0.00  0.00    -0.910 OA
ATOM     15  C   LIG    1       -0.574   3.082   1.515  0.00  0.00    +0.120 C 
BRANCH   9  16
ATOM     16  N   LIG    1        0.041   1.271  -2.428  0.00  0.00    -0.630 N 
ATOM     17  H   LIG    1        0.943   1.719  -2.364  0.00  0.00    +0.440 HD
ATOM     18  H   LIG    1       -0.442   1.603  -3.249  0.00  0.00    +0.440 HD
ATOM     19  H   LIG    1        0.166   0.272  -2.492  0.00  0.00    +0.440 HD
ENDBRANCH   9  16
ENDBRANCH   3   5
BRANCH   1  20
ATOM     20  C   LIG    1        1.362   5.578   4.847  0.00  0.00    +0.320 C 
BRANCH  20  21
ATOM     21  C   LIG    1        0.775   6.932   5.251  0.00  0.00    +0.050 C 
ATOM     22  C   LIG    1        0.306   7.678   4.000  0.00  0.00    +0.100 C 
ATOM     23  C   LIG    1        1.845   7.758   5.967  0.00  0.00    +0.110 C 
BRANCH  21  28
ATOM     24  C   LIG    1       -2.167   7.806   7.411  0.00  0.00    +0.010 C 
ATOM     25  C   LIG    1       -1.769   7.027   8.668  0.00  0.00    +0.040 C 
ATOM     26  C   LIG    1       -1.116   5.705   8.251  0.00  0.00    +0.050 C 
ATOM     27  C   LIG    1        0.083   5.998   7.347  0.00  0.00    +0.250 C 
ATOM     28  N   LIG    1       -0.366   6.722   6.152  0.00  0.00    -0.380 N 
ATOM     29  H   LIG    1       -1.072   6.178   5.678  0.00  0.00    +0.410 HD
ATOM     30  C   LIG    1       -0.928   8.021   6.538  0.00  0.00    +0.260 C 
BRANCH  24  32
ATOM     31  C   LIG    1       -4.497   6.907   7.453  0.00  0.00    +0.040 C 
ATOM     32  C   LIG    1       -3.214   7.014   6.627  0.00  0.00    -0.000 C 
ENDBRANCH  24  32
ENDBRANCH  21  28
ENDBRANCH  20  21
ENDBRANCH   1  20
TORSDOF 6
