REMARK  Name = ZINCrm000000HwiS.0
REMARK                            x       y       z     vdW  Elec       q    Type
REMARK                         _______ _______ _______ _____ _____    ______ ____
ROOT
ATOM      1  N   LIG    1        1.153   2.019   0.207  0.00  0.00    -0.750 N 
ATOM      2  H   LIG    1        1.196   2.986   0.262  0.00  0.00    +0.390 HD
ATOM      3  C   LIG    1       -0.037   1.391   0.282  0.00  0.00    +0.520 C 
ATOM      4  O   LIG    1       -0.091   0.182   0.213  0.00  0.00    -0.490 OA
ENDROOT
BRANCH   3   5
ATOM      5  C   LIG    1       -1.302   2.194   0.447  0.00  0.00    +0.010 C 
ATOM      6  C   LIG    1       -1.573   2.627   1.898  0.00  0.00    +0.120 C 
ATOM      7  C   LIG    1       -3.048   2.300   1.631  0.00  0.00    -0.580 C 
ATOM      8  C   LIG    1       -3.853   3.481   1.095  0.00  0.00    +0.120 C 
ATOM      9  C   LIG    1       -4.051   4.516   2.201  0.00  0.00    +0.160 C 
ATOM     10  C   LIG    1       -4.957   3.966   3.298  0.00  0.00    +0.090 C 
ATOM     11  C   LIG    1       -4.218   2.897   4.108  0.00  0.00    -0.300 C 
ATOM     12  S   LIG    1       -3.870   1.479   3.025  0.00  0.00    +2.420 S 
ATOM     13  O   LIG    1       -2.932   0.631   3.672  0.00  0.00    -0.900 OA
ATOM     14  O   LIG    1       -5.104   0.938   2.572  0.00  0.00    -0.910 OA
ATOM     15  C   LIG    1       -2.571   1.329   0.546  0.00  0.00    +0.150 C 
BRANCH   9  16
ATOM     16  N   LIG    1       -4.662   5.723   1.630  0.00  0.00    -0.630 N 
ATOM     17  H   LIG    1       -4.056   6.102   0.917  0.00  0.00    +0.440 HD
ATOM     18  H   LIG    1       -4.795   6.410   2.357  0.00  0.00    +0.440 HD
ATOM     19  H   LIG    1       -5.554   5.489   1.222  0.00  0.00    +0.440 HD
ENDBRANCH   9  16
ENDBRANCH   3   5
BRANCH   1  20
ATOM     20  C   LIG    1        2.383   1.239   0.041  0.00  0.00    +0.320 C 
BRANCH  20  21
ATOM     21  C   LIG    1        3.567   2.189  -0.146  0.00  0.00    +0.050 C 
ATOM     22  C   LIG    1        4.828   1.378  -0.453  0.00  0.00    +0.110 C 
ATOM     23  C   LIG    1        3.780   2.997   1.135  0.00  0.00    +0.100 C 
BRANCH  21  28
ATOM     24  C   LIG    1        4.128   4.999  -2.570  0.00  0.00    -0.010 C 
ATOM     25  C   LIG    1        3.829   4.245  -3.869  0.00  0.00    +0.050 C 
ATOM     26  C   LIG    1        2.674   3.269  -3.627  0.00  0.00    +0.050 C 
ATOM     27  C   LIG    1        3.044   2.325  -2.481  0.00  0.00    +0.250 C 
ATOM     28  N   LIG    1        3.290   3.104  -1.262  0.00  0.00    -0.380 N 
ATOM     29  H   LIG    1        2.474   3.657  -1.047  0.00  0.00    +0.410 HD
ATOM     30  C   LIG    1        4.442   3.991  -1.463  0.00  0.00    +0.250 C 
BRANCH  24  32
ATOM     31  C   LIG    1        4.971   7.006  -3.796  0.00  0.00    +0.030 C 
ATOM     32  C   LIG    1        5.330   5.921  -2.779  0.00  0.00    +0.030 C 
ENDBRANCH  24  32
ENDBRANCH  21  28
ENDBRANCH  20  21
ENDBRANCH   1  20
TORSDOF 6
