REMARK  Name = ZINCrg00000fSBjc.0
REMARK                            x       y       z     vdW  Elec       q    Type
REMARK                         _______ _______ _______ _____ _____    ______ ____
ROOT
ATOM      1  O   LIG    1       -1.736   2.268  -1.088  0.00  0.00    -0.500 OA
ATOM      2  C   LIG    1       -0.742   1.585  -1.213  0.00  0.00    +0.500 C 
ATOM      3  N   LIG    1       -0.288   1.272  -2.443  0.00  0.00    -0.720 N 
ATOM      4  H   LIG    1        0.507   0.726  -2.543  0.00  0.00    +0.400 HD
ENDROOT
BRANCH   3   5
ATOM      5  C   LIG    1       -0.997   1.758  -3.630  0.00  0.00    +0.260 C 
ATOM      6  C   LIG    1       -0.696   0.847  -4.833  0.00  0.00    +0.050 C 
ATOM      7  C   LIG    1       -0.020   1.733  -5.899  0.00  0.00    -0.020 C 
ATOM      8  C   LIG    1       -0.493   3.168  -5.556  0.00  0.00    +0.020 C 
ATOM      9  C   LIG    1       -0.493   3.166  -4.007  0.00  0.00    +0.150 C 
BRANCH   9  10
ATOM     10  O   LIG    1       -1.383   4.166  -3.506  0.00  0.00    -0.550 OA
ATOM     11  H   LIG    1       -1.115   5.071  -3.714  0.00  0.00    +0.380 HD
ENDBRANCH   9  10
BRANCH   7  12
ATOM     12  C   LIG    1       -0.487   1.336  -7.301  0.00  0.00    +0.330 C 
BRANCH  12  13
ATOM     13  N   LIG    1        0.190   2.171  -8.296  0.00  0.00    -0.370 N 
ATOM     14  C   LIG    1        0.919   1.727  -9.341  0.00  0.00    +0.220 A 
ATOM     15  C   LIG    1        1.368   2.809 -10.019  0.00  0.00    -0.120 A 
ATOM     16  C   LIG    1        0.906   3.953  -9.360  0.00  0.00    +0.220 A 
ATOM     17  N   LIG    1        0.200   3.572  -8.327  0.00  0.00    -0.290 NA
ENDBRANCH  12  13
ENDBRANCH   7  12
ENDBRANCH   3   5
BRANCH   2  18
ATOM     18  C   LIG    1       -0.013   1.086   0.008  0.00  0.00    +0.330 C 
BRANCH  18  19
ATOM     19  N   LIG    1       -0.698   1.558   1.213  0.00  0.00    -0.480 N 
ATOM     20  C   LIG    1       -1.681   0.802   1.767  0.00  0.00    +0.350 A 
ATOM     21  C   LIG    1       -2.329   1.218   2.880  0.00  0.00    -0.080 A 
ATOM     22  C   LIG    1       -1.987   2.441   3.473  0.00  0.00    +0.210 A 
ATOM     23  C   LIG    1       -0.999   3.199   2.916  0.00  0.00    -0.320 A 
ATOM     24  C   LIG    1       -0.344   2.735   1.763  0.00  0.00    +0.550 A 
ATOM     25  O   LIG    1        0.545   3.401   1.257  0.00  0.00    -0.520 OA
BRANCH  23  26
ATOM     26  C   LIG    1       -0.613   4.518   3.533  0.00  0.00    +0.530 C 
ATOM     27  F   LIG    1       -0.813   5.545   2.604  0.00  0.00    -0.170 F 
ATOM     28  F   LIG    1        0.736   4.482   3.904  0.00  0.00    -0.170 F 
ATOM     29  F   LIG    1       -1.401   4.753   4.665  0.00  0.00    -0.180 F 
ENDBRANCH  23  26
ENDBRANCH  18  19
ENDBRANCH   2  18
TORSDOF 7
