REMARK  Name = ZINCqH0000008Cxi.0
REMARK                            x       y       z     vdW  Elec       q    Type
REMARK                         _______ _______ _______ _____ _____    ______ ____
ROOT
ATOM      1  N   LIG    1       -2.243  -0.442  -0.228  0.00  0.00    -0.740 N 
ATOM      2  H   LIG    1       -2.125  -1.057   0.513  0.00  0.00    +0.400 HD
ATOM      3  C   LIG    1       -2.157  -0.891  -1.496  0.00  0.00    +0.710 C 
ATOM      4  N   LIG    1       -1.808  -2.170  -1.736  0.00  0.00    -0.630 N 
ATOM      5  C   LIG    1       -1.610  -2.646  -3.112  0.00  0.00    +0.320 C 
ATOM      6  C   LIG    1       -0.220  -3.294  -3.209  0.00  0.00    +0.010 C 
ATOM      7  C   LIG    1       -0.097  -4.385  -2.143  0.00  0.00    +0.110 C 
ATOM      8  C   LIG    1       -0.241  -3.761  -0.753  0.00  0.00    +0.060 C 
ATOM      9  C   LIG    1       -1.625  -3.117  -0.628  0.00  0.00    +0.290 C 
ATOM     10  O   LIG    1       -2.395  -0.141  -2.423  0.00  0.00    -0.580 OA
ENDROOT
BRANCH   1  22
ATOM     11  C   LIG    1       -4.056  -0.081   1.683  0.00  0.00    +0.020 C 
ATOM     12  C   LIG    1       -3.163   1.130   1.409  0.00  0.00    -0.010 C 
ATOM     13  C   LIG    1       -4.000   2.392   1.472  0.00  0.00    +0.020 C 
ATOM     14  C   LIG    1       -3.201   3.679   1.420  0.00  0.00    +0.030 C 
ATOM     15  C   LIG    1       -2.555   3.866   0.044  0.00  0.00    +0.060 C 
ATOM     16  C   LIG    1       -1.235   3.125   0.029  0.00  0.00    -0.070 A 
ATOM     17  C   LIG    1       -0.051   3.841   0.022  0.00  0.00    +0.000 A 
ATOM     18  C   LIG    1        1.156   3.166   0.008  0.00  0.00    +0.000 A 
ATOM     19  C   LIG    1        1.177   1.784   0.000  0.00  0.00    +0.000 A 
ATOM     20  C   LIG    1       -0.010   1.073   0.008  0.00  0.00    +0.010 A 
ATOM     21  C   LIG    1       -1.214   1.754   0.017  0.00  0.00    -0.090 A 
ATOM     22  C   LIG    1       -2.513   0.974   0.031  0.00  0.00    +0.310 C 
ENDBRANCH   1  22
BRANCH   7  23
ATOM     23  C   LIG    1        1.272  -5.059  -2.260  0.00  0.00    +0.420 C 
ATOM     24  F   LIG    1        2.279  -4.106  -2.069  0.00  0.00    -0.180 F 
ATOM     25  F   LIG    1        1.404  -5.630  -3.530  0.00  0.00    -0.180 F 
ATOM     26  F   LIG    1        1.384  -6.057  -1.286  0.00  0.00    -0.170 F 
ENDBRANCH   7  23
BRANCH   7  27
ATOM     27  O   LIG    1       -1.125  -5.358  -2.337  0.00  0.00    -0.520 OA
ATOM     28  H   LIG    1       -1.095  -5.796  -3.198  0.00  0.00    +0.390 HD
ENDBRANCH   7  27
TORSDOF 3
