REMARK  Name = ZINCrg00000bI9IS.0
REMARK                            x       y       z     vdW  Elec       q    Type
REMARK                         _______ _______ _______ _____ _____    ______ ____
ROOT
ATOM      1  C   LIG    1        4.022   5.908  -1.021  0.00  0.00    +0.270 C 
ATOM      2  C   LIG    1        4.809   5.569   0.210  0.00  0.00    -0.020 C 
ATOM      3  C   LIG    1        5.396   6.438   0.970  0.00  0.00    -0.040 C 
ATOM      4  C   LIG    1        5.352   7.921   0.727  0.00  0.00    +0.300 C 
ATOM      5  N   LIG    1        4.786   8.176  -0.605  0.00  0.00    -0.610 N 
ATOM      6  C   LIG    1        5.321   9.097  -1.431  0.00  0.00    +0.500 C 
ATOM      7  O   LIG    1        4.900   9.216  -2.562  0.00  0.00    -0.510 OA
ATOM      8  C   LIG    1        3.610   7.382  -1.002  0.00  0.00    +0.300 C 
ENDROOT
BRANCH   1  10
ATOM      9  C   LIG    1        2.886   3.834  -1.609  0.00  0.00    +0.560 C 
ATOM     10  N   LIG    1        2.822   5.069  -1.074  0.00  0.00    -0.720 N 
ATOM     11  H   LIG    1        1.981   5.403  -0.724  0.00  0.00    +0.400 HD
ATOM     12  O   LIG    1        3.940   3.415  -2.047  0.00  0.00    -0.520 OA
BRANCH   9  17
ATOM     13  C   LIG    1       -1.836   0.549  -1.827  0.00  0.00    +0.110 C 
ATOM     14  C   LIG    1       -0.598   1.407  -1.768  0.00  0.00    -0.090 A 
ATOM     15  C   LIG    1       -0.664   2.672  -1.213  0.00  0.00    +0.040 A 
ATOM     16  C   LIG    1        0.464   3.466  -1.160  0.00  0.00    +0.040 A 
ATOM     17  C   LIG    1        1.675   2.988  -1.662  0.00  0.00    -0.120 A 
ATOM     18  C   LIG    1        1.738   1.708  -2.216  0.00  0.00    +0.060 A 
ATOM     19  C   LIG    1        0.602   0.923  -2.263  0.00  0.00    +0.090 A 
ATOM     20  F   LIG    1        0.660  -0.316  -2.798  0.00  0.00    -0.130 F 
ENDBRANCH   9  17
ENDBRANCH   1  10
BRANCH   6  21
ATOM     21  C   LIG    1        6.444   9.979  -0.948  0.00  0.00    +0.300 C 
BRANCH  21  22
ATOM     22  C   LIG    1        7.752   9.474  -1.500  0.00  0.00    +0.040 A 
ATOM     23  C   LIG    1        8.264   9.751  -2.721  0.00  0.00    -0.090 A 
ATOM     24  C   LIG    1        9.490   9.088  -2.835  0.00  0.00    +0.240 A 
ATOM     25  N   LIG    1        9.707   8.437  -1.722  0.00  0.00    -0.280 NA
ATOM     26  N   LIG    1        8.627   8.668  -0.861  0.00  0.00    -0.360 N 
ATOM     27  C   LIG    1        8.472   8.129   0.493  0.00  0.00    +0.350 C 
ENDBRANCH  21  22
BRANCH  21  28
ATOM     28  O   LIG    1        6.224  11.318  -1.396  0.00  0.00    -0.520 OA
ATOM     29  H   LIG    1        6.182  11.409  -2.358  0.00  0.00    +0.390 HD
ENDBRANCH  21  28
ENDBRANCH   6  21
TORSDOF 5
