REMARK  Name = ZINCpe000000WawI.0
REMARK                            x       y       z     vdW  Elec       q    Type
REMARK                         _______ _______ _______ _____ _____    ______ ____
ROOT
ATOM      1  C   LIG    1        2.444   1.602   0.087  0.00  0.00    +0.260 C 
ATOM      2  C   LIG    1        3.231   2.054  -1.165  0.00  0.00    +0.060 C 
ATOM      3  C   LIG    1        3.841   3.390  -0.688  0.00  0.00    +0.280 C 
ATOM      4  N   LIG    1        3.927   3.282   0.773  0.00  0.00    -0.590 N 
ATOM      5  C   LIG    1        3.148   2.289   1.236  0.00  0.00    +0.520 C 
ATOM      6  O   LIG    1        3.027   1.989   2.405  0.00  0.00    -0.520 OA
ENDROOT
BRANCH   1  11
ATOM      7  C   LIG    1       -2.576   3.240  -1.664  0.00  0.00    +0.160 C 
ATOM      8  C   LIG    1       -2.167   1.834  -1.165  0.00  0.00    +0.090 C 
ATOM      9  C   LIG    1       -1.226   2.106   0.018  0.00  0.00    +0.190 C 
ATOM     10  C   LIG    1       -0.014   1.208   0.009  0.00  0.00    +0.530 C 
ATOM     11  N   LIG    1        1.049   2.043   0.003  0.00  0.00    -0.570 N 
ATOM     12  C   LIG    1        0.666   3.326  -0.089  0.00  0.00    +0.730 C 
ATOM     13  O   LIG    1        1.426   4.271  -0.003  0.00  0.00    -0.510 OA
ATOM     14  O   LIG    1        0.002  -0.004   0.002  0.00  0.00    -0.460 OA
ATOM     15  N   LIG    1       -0.646   3.441  -0.286  0.00  0.00    -0.630 N 
ATOM     16  C   LIG    1       -1.803   4.225  -0.747  0.00  0.00    +0.330 C 
BRANCH   7  18
ATOM     17  C   LIG    1       -4.560   4.307  -2.484  0.00  0.00    +0.220 C 
ATOM     18  O   LIG    1       -3.985   3.430  -1.513  0.00  0.00    -0.370 OA
ENDBRANCH   7  18
ENDBRANCH   1  11
BRANCH   4  19
ATOM     19  C   LIG    1        4.755   4.146   1.619  0.00  0.00    +0.350 C 
BRANCH  19  20
ATOM     20  C   LIG    1        3.957   5.352   2.039  0.00  0.00    -0.100 A 
ATOM     21  C   LIG    1        3.973   6.497   1.264  0.00  0.00    +0.030 A 
ATOM     22  C   LIG    1        3.236   7.602   1.647  0.00  0.00    +0.000 A 
ATOM     23  C   LIG    1        2.492   7.566   2.812  0.00  0.00    +0.010 A 
ATOM     24  C   LIG    1        2.481   6.424   3.590  0.00  0.00    +0.000 A 
ATOM     25  C   LIG    1        3.213   5.317   3.204  0.00  0.00    +0.020 A 
ENDBRANCH  19  20
ENDBRANCH   4  19
TORSDOF 4
