REMARK  Name = ZINCrg00000Av6w1.0
REMARK                            x       y       z     vdW  Elec       q    Type
REMARK                         _______ _______ _______ _____ _____    ______ ____
ROOT
ATOM      1  C   LIG    1       -2.602  -0.548  -0.102  0.00  0.00    +0.580 C 
ATOM      2  N   LIG    1       -3.797  -1.146  -0.276  0.00  0.00    -0.610 N 
ATOM      3  C   LIG    1       -5.006  -0.344  -0.511  0.00  0.00    +0.270 C 
ATOM      4  C   LIG    1       -5.664  -0.819  -1.812  0.00  0.00    +0.270 C 
ATOM      5  N   LIG    1       -5.782  -2.284  -1.771  0.00  0.00    -0.610 N 
ATOM      6  C   LIG    1       -4.573  -3.085  -1.536  0.00  0.00    +0.230 C 
ATOM      7  C   LIG    1       -3.599  -2.899  -2.702  0.00  0.00    +0.030 C 
ATOM      8  C   LIG    1       -6.978  -2.881  -1.946  0.00  0.00    +0.520 C 
ATOM      9  O   LIG    1       -7.063  -4.090  -1.910  0.00  0.00    -0.530 OA
ATOM     10  C   LIG    1       -3.914  -2.610  -0.241  0.00  0.00    +0.290 C 
ATOM     11  O   LIG    1       -1.593  -1.222  -0.010  0.00  0.00    -0.530 OA
ENDROOT
BRANCH   1  16
ATOM     12  C   LIG    1       -2.173   5.142   0.108  0.00  0.00    +0.130 C 
ATOM     13  C   LIG    1       -2.300   3.641   0.067  0.00  0.00    +0.210 A 
ATOM     14  C   LIG    1       -3.234   3.017   0.874  0.00  0.00    -0.100 A 
ATOM     15  C   LIG    1       -3.353   1.639   0.838  0.00  0.00    +0.140 A 
ATOM     16  C   LIG    1       -2.516   0.921  -0.024  0.00  0.00    -0.270 A 
ATOM     17  C   LIG    1       -1.592   1.627  -0.813  0.00  0.00    +0.460 A 
ATOM     18  N   LIG    1       -1.516   2.947  -0.735  0.00  0.00    -0.550 NA
BRANCH  17  19
ATOM     19  N   LIG    1       -0.754   0.940  -1.671  0.00  0.00    -0.830 N 
ATOM     20  H   LIG    1       -0.055   1.414  -2.150  0.00  0.00    +0.410 HD
ATOM     21  H   LIG    1       -0.867  -0.015  -1.798  0.00  0.00    +0.410 HD
ENDBRANCH  17  19
ENDBRANCH   1  16
BRANCH   8  22
ATOM     22  C   LIG    1       -8.209  -2.046  -2.185  0.00  0.00    +0.060 C 
BRANCH  22  23
ATOM     23  C   LIG    1       -9.423  -2.962  -2.349  0.00  0.00    +0.140 C 
BRANCH  23  24
ATOM     24  C   LIG    1      -10.655  -2.127  -2.588  0.00  0.00    +0.080 A 
ATOM     25  C   LIG    1      -11.072  -1.646  -3.782  0.00  0.00    -0.120 A 
ATOM     26  C   LIG    1      -12.253  -0.927  -3.567  0.00  0.00    +0.230 A 
ATOM     27  N   LIG    1      -12.530  -0.969  -2.289  0.00  0.00    -0.300 NA
ATOM     28  N   LIG    1      -11.535  -1.721  -1.650  0.00  0.00    -0.370 N 
ATOM     29  C   LIG    1      -11.464  -2.015  -0.216  0.00  0.00    +0.350 C 
ENDBRANCH  23  24
ENDBRANCH  22  23
ENDBRANCH   8  22
TORSDOF 5
