REMARK  Name = ZINCah0000002mVg.0
REMARK                            x       y       z     vdW  Elec       q    Type
REMARK                         _______ _______ _______ _____ _____    ______ ____
ROOT
ATOM      1  C   LIG    1       -0.719   1.594   1.266  0.00  0.00    +0.000 C 
ATOM      2  C   LIG    1       -2.118   0.978   1.348  0.00  0.00    +0.030 C 
ATOM      3  C   LIG    1       -2.698   1.275   2.736  0.00  0.00    +0.020 C 
ATOM      4  C   LIG    1       -1.891   0.502   3.780  0.00  0.00    +0.260 C 
ATOM      5  N   LIG    1       -0.464   0.741   3.601  0.00  0.00    -0.720 N 
ATOM      6  H   LIG    1        0.126   0.548   4.346  0.00  0.00    +0.400 HD
ATOM      7  C   LIG    1        0.081   1.209   2.478  0.00  0.00    +0.520 C 
ATOM      8  O   LIG    1        1.287   1.329   2.431  0.00  0.00    -0.550 OA
ENDROOT
BRANCH   1  10
ATOM      9  C   LIG    1       -0.810   1.505  -1.229  0.00  0.00    +0.030 C 
ATOM     10  C   LIG    1       -0.013   1.086   0.008  0.00  0.00    +0.000 C 
ATOM     11  C   LIG    1        0.084  -0.440   0.059  0.00  0.00    +0.020 C 
ENDBRANCH   1  10
TORSDOF 1
