REMARK  Name = ZINCqH000000925N.0
REMARK                            x       y       z     vdW  Elec       q    Type
REMARK                         _______ _______ _______ _____ _____    ______ ____
ROOT
ATOM      1  C   LIG    1        0.709  -0.293  -1.518  0.00  0.00    +0.530 C 
ATOM      2  N   LIG    1        1.952  -0.170  -2.025  0.00  0.00    -0.610 N 
ATOM      3  C   LIG    1        2.311  -0.822  -3.292  0.00  0.00    +0.260 C 
ATOM      4  C   LIG    1        3.563  -1.677  -3.072  0.00  0.00    +0.010 C 
ATOM      5  C   LIG    1        4.672  -0.807  -2.476  0.00  0.00    +0.010 C 
ATOM      6  C   LIG    1        4.219  -0.257  -1.122  0.00  0.00    +0.020 C 
ATOM      7  C   LIG    1        2.974   0.614  -1.320  0.00  0.00    +0.230 C 
ATOM      8  O   LIG    1        0.392   0.339  -0.532  0.00  0.00    -0.520 OA
ENDROOT
BRANCH   1  10
ATOM      9  C   LIG    1       -0.904  -0.515  -3.388  0.00  0.00    +0.060 C 
ATOM     10  C   LIG    1       -0.286  -1.214  -2.175  0.00  0.00    -0.030 C 
BRANCH  10  11
ATOM     11  C   LIG    1       -1.388  -1.571  -1.176  0.00  0.00    +0.320 C 
BRANCH  11  12
ATOM     12  N   LIG    1       -2.289  -2.559  -1.775  0.00  0.00    -0.710 N 
ATOM     13  H   LIG    1       -2.128  -2.878  -2.676  0.00  0.00    +0.400 HD
ATOM     14  C   LIG    1       -3.342  -3.023  -1.073  0.00  0.00    +0.650 C 
ATOM     15  O   LIG    1       -3.543  -2.623   0.057  0.00  0.00    -0.560 OA
BRANCH  14  16
ATOM     16  O   LIG    1       -4.170  -3.931  -1.623  0.00  0.00    -0.370 OA
BRANCH  16  17
ATOM     17  C   LIG    1       -5.283  -4.387  -0.809  0.00  0.00    +0.140 C 
ATOM     18  C   LIG    1       -4.747  -5.040   0.467  0.00  0.00    +0.040 C 
ATOM     19  C   LIG    1       -6.106  -5.408  -1.597  0.00  0.00    +0.080 C 
ATOM     20  C   LIG    1       -6.167  -3.195  -0.440  0.00  0.00    +0.040 C 
ENDBRANCH  16  17
ENDBRANCH  14  16
ENDBRANCH  11  12
ENDBRANCH  10  11
ENDBRANCH   1  10
BRANCH   7  21
ATOM     21  C   LIG    1        2.434   1.054   0.042  0.00  0.00    +0.110 C 
BRANCH  21  22
ATOM     22  C   LIG    1        3.489   1.849   0.768  0.00  0.00    -0.080 A 
ATOM     23  C   LIG    1        3.627   3.202   0.521  0.00  0.00    +0.000 A 
ATOM     24  C   LIG    1        4.598   3.930   1.183  0.00  0.00    +0.000 A 
ATOM     25  C   LIG    1        5.425   3.307   2.098  0.00  0.00    -0.010 A 
ATOM     26  C   LIG    1        5.287   1.954   2.345  0.00  0.00    +0.000 A 
ATOM     27  C   LIG    1        4.319   1.225   1.680  0.00  0.00    +0.000 A 
ENDBRANCH  21  22
ENDBRANCH   7  21
TORSDOF 7
