REMARK  Name = ZINCqH00000332DL.0
REMARK                            x       y       z     vdW  Elec       q    Type
REMARK                         _______ _______ _______ _____ _____    ______ ____
ROOT
ATOM      1  C   LIG    1        2.477   1.075  -0.015  0.00  0.00    +0.560 C 
ATOM      2  N   LIG    1        3.633   1.767  -0.023  0.00  0.00    -0.630 N 
ATOM      3  H   LIG    1        3.618   2.737  -0.018  0.00  0.00    +0.430 HD
ATOM      4  O   LIG    1        2.496  -0.141  -0.022  0.00  0.00    -0.460 OA
ENDROOT
BRANCH   2   5
ATOM      5  C   LIG    1        4.843   1.094  -0.037  0.00  0.00    +0.360 A 
ATOM      6  N   LIG    1        4.971  -0.187  -0.040  0.00  0.00    -0.480 NA
ATOM      7  C   LIG    1        6.219  -0.696  -0.059  0.00  0.00    +0.160 A 
ATOM      8  C   LIG    1        6.621  -2.049  -0.070  0.00  0.00    +0.060 A 
ATOM      9  C   LIG    1        7.953  -2.377  -0.083  0.00  0.00    +0.140 A 
ATOM     10  C   LIG    1        8.925  -1.388  -0.087  0.00  0.00    -0.660 A 
ATOM     11  C   LIG    1        8.556  -0.061  -0.078  0.00  0.00    +0.200 A 
ATOM     12  C   LIG    1        7.209   0.292  -0.064  0.00  0.00    -0.210 A 
ATOM     13  S   LIG    1        6.421   1.868  -0.048  0.00  0.00    +0.090 S 
BRANCH  10  14
ATOM     14  S   LIG    1       10.631  -1.828  -0.105  0.00  0.00    +2.500 S 
ATOM     15  O   LIG    1       11.274  -0.715  -0.711  0.00  0.00    -0.930 OA
ATOM     16  O   LIG    1       10.656  -3.110  -0.716  0.00  0.00    -0.930 OA
ATOM     17  C   LIG    1       11.085  -1.949   1.647  0.00  0.00    -0.250 C 
ENDBRANCH  10  14
ENDBRANCH   2   5
BRANCH   1  21
ATOM     18  C   LIG    1       -1.234   3.139   0.030  0.00  0.00    +0.170 A 
ATOM     19  C   LIG    1       -1.214   1.749   0.017  0.00  0.00    -0.080 A 
ATOM     20  C   LIG    1       -0.013   1.076   0.008  0.00  0.00    +0.130 A 
ATOM     21  C   LIG    1        1.188   1.792   0.000  0.00  0.00    -0.180 A 
ATOM     22  C   LIG    1        1.163   3.189   0.008  0.00  0.00    +0.090 A 
ATOM     23  C   LIG    1       -0.042   3.855   0.023  0.00  0.00    -0.020 A 
BRANCH  18  24
ATOM     24  O   LIG    1       -2.420   3.799   0.045  0.00  0.00    -0.310 OA
BRANCH  24  25
ATOM     25  C   LIG    1       -3.605   3.001   0.051  0.00  0.00    +0.190 C 
BRANCH  25  27
ATOM     26  C   LIG    1       -6.103   3.060   0.075  0.00  0.00    +0.040 C 
ATOM     27  C   LIG    1       -4.833   3.914   0.068  0.00  0.00    +0.040 C 
ENDBRANCH  25  27
ENDBRANCH  24  25
ENDBRANCH  18  24
ENDBRANCH   1  21
TORSDOF 6
