REMARK  Name = ZINCqH0000004oRl.0
REMARK                            x       y       z     vdW  Elec       q    Type
REMARK                         _______ _______ _______ _____ _____    ______ ____
ROOT
ATOM      1  C   LIG    1       -2.426  -5.858   2.612  0.00  0.00    +0.290 C 
ENDROOT
BRANCH   1   2
ATOM      2  N   LIG    1       -2.740  -6.543   3.868  0.00  0.00    -0.580 N 
ATOM      3  C   LIG    1       -2.265  -5.946   5.110  0.00  0.00    +0.270 C 
ATOM      4  C   LIG    1       -3.056  -6.492   6.302  0.00  0.00    +0.020 C 
ATOM      5  C   LIG    1       -3.048  -8.024   6.231  0.00  0.00    +0.030 C 
ATOM      6  C   LIG    1       -3.869  -8.456   5.013  0.00  0.00    +0.070 C 
ATOM      7  C   LIG    1       -3.438  -7.678   3.804  0.00  0.00    +0.520 C 
ATOM      8  O   LIG    1       -3.740  -8.104   2.709  0.00  0.00    -0.550 OA
ENDBRANCH   1   2
BRANCH   1   9
ATOM      9  C   LIG    1       -3.461  -4.794   2.349  0.00  0.00    -0.100 A 
ATOM     10  C   LIG    1       -3.868  -3.957   3.371  0.00  0.00    +0.020 A 
ATOM     11  C   LIG    1       -4.813  -2.978   3.127  0.00  0.00    +0.000 A 
ATOM     12  C   LIG    1       -5.359  -2.843   1.865  0.00  0.00    +0.010 A 
ATOM     13  C   LIG    1       -4.955  -3.683   0.844  0.00  0.00    +0.010 A 
ATOM     14  C   LIG    1       -4.007  -4.659   1.086  0.00  0.00    +0.030 A 
ENDBRANCH   1   9
BRANCH   1  17
ATOM     15  N   LIG    1       -0.581  -4.495   1.687  0.00  0.00    -0.720 N 
ATOM     16  H   LIG    1       -1.109  -4.384   0.881  0.00  0.00    +0.400 HD
ATOM     17  C   LIG    1       -1.065  -5.220   2.715  0.00  0.00    +0.520 C 
ATOM     18  O   LIG    1       -0.404  -5.359   3.722  0.00  0.00    -0.510 OA
BRANCH  15  19
ATOM     19  C   LIG    1        0.743  -3.875   1.786  0.00  0.00    +0.350 C 
BRANCH  19  20
ATOM     20  C   LIG    1        0.809  -2.683   0.867  0.00  0.00    +0.040 A 
ATOM     21  N   LIG    1        1.300  -1.532   1.184  0.00  0.00    -0.460 NA
ATOM     22  C   LIG    1        1.280  -0.595   0.259  0.00  0.00    +0.070 A 
ATOM     23  C   LIG    1        0.739  -0.974  -0.903  0.00  0.00    -0.070 A 
ATOM     24  C   LIG    1        1.818   0.793   0.492  0.00  0.00    +0.160 C 
ATOM     25  S   LIG    1        0.246  -2.659  -0.747  0.00  0.00    +0.130 S 
ENDBRANCH  19  20
BRANCH  19  27
ATOM     26  C   LIG    1        1.829  -6.043   2.389  0.00  0.00    +0.030 C 
ATOM     27  C   LIG    1        1.813  -4.891   1.382  0.00  0.00    +0.020 C 
ENDBRANCH  19  27
ENDBRANCH  15  19
ENDBRANCH   1  17
TORSDOF 6
