REMARK  Name = ZINCkj000005gV0i.0
REMARK                            x       y       z     vdW  Elec       q    Type
REMARK                         _______ _______ _______ _____ _____    ______ ____
ROOT
ATOM      1  C   LIG    1        1.396  -2.829  -2.007  0.00  0.00    +0.200 A 
ATOM      2  N   LIG    1        0.854  -4.006  -1.831  0.00  0.00    -0.280 NA
ATOM      3  N   LIG    1       -0.186  -3.899  -1.079  0.00  0.00    -0.260 NA
ATOM      4  C   LIG    1       -0.352  -2.655  -0.744  0.00  0.00    +0.160 A 
ATOM      5  C   LIG    1       -1.431  -2.050   0.119  0.00  0.00    +0.210 C 
ATOM      6  C   LIG    1       -1.431  -0.533  -0.110  0.00  0.00    +0.060 C 
ATOM      7  C   LIG    1        0.002  -0.004   0.002  0.00  0.00    +0.170 C 
ATOM      8  C   LIG    1        0.827  -0.497  -1.193  0.00  0.00    +0.320 C 
ATOM      9  N   LIG    1        0.647  -1.943  -1.323  0.00  0.00    -0.480 N 
ENDROOT
BRANCH   7  10
ATOM     10  N   LIG    1       -0.018   1.465   0.010  0.00  0.00    -0.500 N 
ATOM     11  H   LIG    1       -0.506   1.799  -0.807  0.00  0.00    +0.440 HD
ATOM     12  H   LIG    1        0.929   1.814   0.003  0.00  0.00    +0.430 HD
BRANCH  10  13
ATOM     13  C   LIG    1       -0.705   1.938   1.219  0.00  0.00    +0.420 C 
BRANCH  13  14
ATOM     14  C   LIG    1       -0.726   3.445   1.227  0.00  0.00    +0.120 A 
ATOM     15  N   LIG    1       -1.660   4.196   0.710  0.00  0.00    -0.430 NA
ATOM     16  C   LIG    1       -1.348   5.487   0.904  0.00  0.00    +0.220 A 
ATOM     17  C   LIG    1       -0.175   5.537   1.567  0.00  0.00    +0.050 A 
ATOM     18 CL   LIG    1        0.671   6.969   2.064  0.00  0.00    +0.030 Cl
ATOM     19  N   LIG    1        0.217   4.243   1.776  0.00  0.00    -0.440 N 
ATOM     20  C   LIG    1        1.434   3.804   2.464  0.00  0.00    +0.350 C 
ENDBRANCH  13  14
ENDBRANCH  10  13
ENDBRANCH   7  10
BRANCH   1  22
ATOM     21  C   LIG    1        3.866  -2.622  -1.931  0.00  0.00    +0.050 C 
ATOM     22  C   LIG    1        2.626  -2.521  -2.822  0.00  0.00    +0.150 C 
ENDBRANCH   1  22
TORSDOF 4
