REMARK  Name = ZINCqH0000008zKR.0
REMARK                            x       y       z     vdW  Elec       q    Type
REMARK                         _______ _______ _______ _____ _____    ______ ____
ROOT
ATOM      1  C   LIG    1        1.664   6.675  -3.755  0.00  0.00    -0.010 C 
ATOM      2  C   LIG    1        1.149   7.267  -2.441  0.00  0.00    +0.060 C 
ATOM      3  C   LIG    1        2.210   7.080  -1.351  0.00  0.00    +0.290 C 
ATOM      4  N   LIG    1        2.563   5.655  -1.275  0.00  0.00    -0.990 NA
ATOM      5  C   LIG    1        2.990   4.966  -2.500  0.00  0.00    +0.300 C 
ATOM      6  C   LIG    1        1.915   5.176  -3.578  0.00  0.00    +0.040 C 
ENDROOT
BRANCH   1  14
ATOM      7  C   LIG    1       -1.444   7.056  -6.530  0.00  0.00    +0.050 C 
ATOM      8  C   LIG    1       -0.109   6.649  -7.157  0.00  0.00    +0.210 C 
ATOM      9  C   LIG    1       -0.259   5.295  -7.858  0.00  0.00    +0.020 C 
ATOM     10  C   LIG    1        1.109   4.831  -8.362  0.00  0.00    +0.010 C 
ATOM     11  C   LIG    1        2.060   4.657  -7.175  0.00  0.00    +0.010 C 
ATOM     12  C   LIG    1        2.239   6.009  -6.468  0.00  0.00    +0.260 C 
ATOM     13  N   LIG    1        0.912   6.527  -6.107  0.00  0.00    -0.610 N 
ATOM     14  C   LIG    1        0.637   6.888  -4.838  0.00  0.00    +0.520 C 
ATOM     15  O   LIG    1       -0.436   7.383  -4.567  0.00  0.00    -0.530 OA
ENDBRANCH   1  14
BRANCH   4  16
ATOM     16  S   LIG    1        2.488   4.844   0.167  0.00  0.00    +2.690 S 
ATOM     17  O   LIG    1        1.454   5.461   0.921  0.00  0.00    -0.940 OA
ATOM     18  O   LIG    1        2.497   3.459  -0.151  0.00  0.00    -0.930 OA
BRANCH  16  19
ATOM     19  C   LIG    1        3.991   5.167   1.027  0.00  0.00    -0.670 A 
ATOM     20  C   LIG    1        3.974   5.898   2.199  0.00  0.00    +0.160 A 
ATOM     21  C   LIG    1        5.155   6.152   2.874  0.00  0.00    -0.050 A 
ATOM     22  C   LIG    1        6.354   5.679   2.372  0.00  0.00    +0.110 A 
ATOM     23  C   LIG    1        6.371   4.944   1.202  0.00  0.00    +0.050 A 
ATOM     24 CL   LIG    1        5.132   7.071   4.347  0.00  0.00    -0.040 Cl
ATOM     25  C   LIG    1        5.190   4.690   0.527  0.00  0.00    +0.050 A 
ATOM     26 CL   LIG    1        5.213   3.771  -0.946  0.00  0.00    -0.030 Cl
ENDBRANCH  16  19
ENDBRANCH   4  16
TORSDOF 3
