REMARK  Name = ZINCkj000005gZmF.0
REMARK                            x       y       z     vdW  Elec       q    Type
REMARK                         _______ _______ _______ _____ _____    ______ ____
ROOT
ATOM      1  N   LIG    1        1.500   1.688   1.801  0.00  0.00    -0.470 N 
ATOM      2  C   LIG    1        0.590   2.641   1.451  0.00  0.00    +0.510 A 
ATOM      3  N   LIG    1       -0.553   2.085   1.175  0.00  0.00    -0.470 NA
ATOM      4  C   LIG    1       -0.451   0.743   1.329  0.00  0.00    -0.050 A 
ATOM      5  C   LIG    1       -1.333  -0.340   1.177  0.00  0.00    +0.400 A 
ATOM      6  N   LIG    1       -0.881  -1.565   1.421  0.00  0.00    -0.560 NA
ATOM      7  C   LIG    1        0.368  -1.770   1.798  0.00  0.00    +0.550 A 
ATOM      8  N   LIG    1        1.230  -0.787   1.954  0.00  0.00    -0.520 NA
ATOM      9  C   LIG    1        0.868   0.472   1.733  0.00  0.00    +0.290 A 
ENDROOT
BRANCH   5  10
ATOM     10  N   LIG    1       -2.644  -0.135   0.781  0.00  0.00    -0.440 N 
ATOM     11  C   LIG    1       -2.701   0.522  -0.550  0.00  0.00    +0.240 C 
ATOM     12  C   LIG    1       -4.132   0.195  -1.045  0.00  0.00    +0.070 C 
ATOM     13  C   LIG    1       -4.352  -1.248  -0.536  0.00  0.00    +0.160 C 
ATOM     14  C   LIG    1       -3.358  -1.420   0.627  0.00  0.00    +0.180 C 
ATOM     15  C   LIG    1       -4.115  -1.753   1.915  0.00  0.00    +0.070 C 
BRANCH  13  16
ATOM     16  N   LIG    1       -5.732  -1.416  -0.060  0.00  0.00    -0.390 N 
ATOM     17  C   LIG    1       -6.040  -2.848   0.052  0.00  0.00    +0.320 C 
ATOM     18  C   LIG    1       -6.658  -0.789  -1.012  0.00  0.00    +0.330 C 
ATOM     19  H   LIG    1       -5.831  -0.979   0.844  0.00  0.00    +0.430 HD
ENDBRANCH  13  16
ENDBRANCH   5  10
BRANCH   1  21
ATOM     20  C   LIG    1        3.793   1.748   0.953  0.00  0.00    +0.040 C 
ATOM     21  C   LIG    1        2.896   1.919   2.180  0.00  0.00    +0.310 C 
ENDBRANCH   1  21
TORSDOF 3
