REMARK  Name = ZINC9u0000000C7n.0
REMARK                            x       y       z     vdW  Elec       q    Type
REMARK                         _______ _______ _______ _____ _____    ______ ____
ROOT
ATOM      1  C   LIG    1       -0.013   1.086   0.008  0.00  0.00    +0.000 C 
ATOM      2  C   LIG    1       -0.729   1.579   1.267  0.00  0.00    +0.010 C 
ATOM      3  C   LIG    1       -2.164   1.050   1.278  0.00  0.00    +0.000 C 
ATOM      4  C   LIG    1       -2.904   1.556   0.038  0.00  0.00    +0.000 C 
ATOM      5  C   LIG    1       -2.188   1.063  -1.221  0.00  0.00    +0.000 C 
ATOM      6  C   LIG    1       -0.753   1.593  -1.232  0.00  0.00    +0.030 C 
ENDROOT
BRANCH   1   7
ATOM      7  C   LIG    1        1.423   1.615  -0.003  0.00  0.00    +0.190 C 
BRANCH   7   9
ATOM      8  N   LIG    1        2.746   0.582   1.993  0.00  0.00    -0.440 NA
ATOM      9  C   LIG    1        2.169   1.032   1.124  0.00  0.00    +0.200 C 
ENDBRANCH   7   9
ENDBRANCH   1   7
TORSDOF 2
