REMARK  Name = ZINCkj00000dEhrn.0
REMARK                            x       y       z     vdW  Elec       q    Type
REMARK                         _______ _______ _______ _____ _____    ______ ____
ROOT
ATOM      1  O   LIG    1        2.646  -2.714  -0.402  0.00  0.00    -0.480 OA
ATOM      2  C   LIG    1        1.510  -2.293  -0.303  0.00  0.00    +0.580 C 
ATOM      3  N   LIG    1        0.468  -3.147  -0.345  0.00  0.00    -0.630 N 
ATOM      4  C   LIG    1       -0.903  -2.599  -0.343  0.00  0.00    +0.280 C 
ATOM      5  C   LIG    1       -1.803  -3.363  -1.336  0.00  0.00    +0.050 C 
ATOM      6  C   LIG    1       -1.019  -3.677  -2.592  0.00  0.00    +0.260 C 
ATOM      7  N   LIG    1       -0.429  -5.008  -2.472  0.00  0.00    -0.490 N 
ATOM      8  C   LIG    1        0.841  -5.043  -1.854  0.00  0.00    +0.240 C 
ATOM      9  H   LIG    1       -1.059  -5.587  -1.937  0.00  0.00    +0.420 HD
ATOM     10  H   LIG    1       -0.344  -5.403  -3.397  0.00  0.00    +0.430 HD
ATOM     11  C   LIG    1        0.734  -4.571  -0.385  0.00  0.00    +0.330 C 
ENDROOT
BRANCH   2  12
ATOM     12  C   LIG    1        1.271  -0.846  -0.137  0.00  0.00    -0.150 A 
ATOM     13  C   LIG    1        0.530  -0.377   0.949  0.00  0.00    +0.070 A 
ATOM     14  C   LIG    1        0.310   0.976   1.099  0.00  0.00    +0.010 A 
ATOM     15  C   LIG    1        0.821   1.873   0.176  0.00  0.00    +0.080 A 
ATOM     16  C   LIG    1        1.556   1.423  -0.903  0.00  0.00    -0.010 A 
ATOM     17  C   LIG    1        1.787   0.066  -1.069  0.00  0.00    +0.210 A 
BRANCH  17  18
ATOM     18  N   LIG    1        2.531  -0.392  -2.160  0.00  0.00    -0.330 N 
ATOM     19  C   LIG    1        3.174   0.384  -3.071  0.00  0.00    +0.240 A 
ATOM     20  C   LIG    1        3.775  -0.441  -3.959  0.00  0.00    -0.090 A 
ATOM     21  C   LIG    1        3.485  -1.760  -3.588  0.00  0.00    +0.250 A 
ATOM     22  N   LIG    1        2.741  -1.731  -2.513  0.00  0.00    -0.280 NA
ENDBRANCH  17  18
ENDBRANCH   2  12
TORSDOF 2
