REMARK  Name = ZINCpk00000ebjA5.0
REMARK                            x       y       z     vdW  Elec       q    Type
REMARK                         _______ _______ _______ _____ _____    ______ ____
ROOT
ATOM      1  C   LIG    1        1.247  -2.150  -0.021  0.00  0.00    +0.580 C 
ATOM      2  N   LIG    1        2.422  -2.801  -0.137  0.00  0.00    -0.610 N 
ATOM      3  C   LIG    1        2.476  -4.268  -0.252  0.00  0.00    +0.320 C 
ATOM      4  C   LIG    1        3.054  -4.607  -1.630  0.00  0.00    +0.130 C 
ATOM      5  C   LIG    1        4.296  -3.800  -1.904  0.00  0.00    +0.190 A 
ATOM      6  N   LIG    1        5.123  -4.247  -2.841  0.00  0.00    -0.470 NA
ATOM      7  C   LIG    1        6.221  -3.606  -3.178  0.00  0.00    +0.380 A 
ATOM      8  C   LIG    1        6.564  -2.421  -2.556  0.00  0.00    -0.100 A 
ATOM      9  C   LIG    1        5.733  -1.921  -1.567  0.00  0.00    +0.170 A 
ATOM     10  C   LIG    1        4.583  -2.630  -1.236  0.00  0.00    -0.150 A 
ATOM     11  C   LIG    1        3.698  -2.077  -0.149  0.00  0.00    +0.350 C 
ATOM     12  O   LIG    1        0.209  -2.777   0.053  0.00  0.00    -0.510 OA
ENDROOT
BRANCH   1  19
ATOM     13  C   LIG    1        0.620   4.554  -0.283  0.00  0.00    +0.370 C 
ATOM     14  N   LIG    1        1.364   3.434   0.300  0.00  0.00    -0.390 N 
ATOM     15  N   LIG    1        2.431   3.520   1.206  0.00  0.00    +0.000 NA
ATOM     16  N   LIG    1        2.834   2.336   1.508  0.00  0.00    -0.210 NA
ATOM     17  C   LIG    1        2.102   1.411   0.844  0.00  0.00    -0.030 A 
ATOM     18  C   LIG    1        2.131   0.014   0.813  0.00  0.00    +0.150 A 
ATOM     19  C   LIG    1        1.222  -0.673   0.017  0.00  0.00    -0.150 A 
ATOM     20  C   LIG    1        0.282   0.029  -0.750  0.00  0.00    +0.130 A 
ATOM     21  C   LIG    1        0.249   1.391  -0.724  0.00  0.00    +0.020 A 
ATOM     22  C   LIG    1        1.151   2.099   0.067  0.00  0.00    +0.100 A 
ENDBRANCH   1  19
BRANCH   8  23
ATOM     23  N   LIG    1        7.797  -1.698  -2.940  0.00  0.00    +0.030 N 
ATOM     24  O   LIG    1        8.519  -2.146  -3.812  0.00  0.00    -0.150 OA
ATOM     25  O   LIG    1        8.088  -0.653  -2.385  0.00  0.00    -0.150 OA
ENDBRANCH   8  23
TORSDOF 2
