REMARK  Name = ZINCpk00000y5iu4.0
REMARK                            x       y       z     vdW  Elec       q    Type
REMARK                         _______ _______ _______ _____ _____    ______ ____
ROOT
ATOM      1  N   LIG    1       -2.946   4.652  -0.934  0.00  0.00    -0.530 NA
ATOM      2  C   LIG    1       -2.080   5.366  -1.882  0.00  0.00    +0.160 C 
ATOM      3  C   LIG    1       -2.565   5.099  -3.311  0.00  0.00    +0.290 C 
ATOM      4  N   LIG    1       -3.993   5.443  -3.393  0.00  0.00    -0.590 N 
ATOM      5  C   LIG    1       -4.904   4.872  -2.389  0.00  0.00    +0.310 C 
ATOM      6  C   LIG    1       -4.454   6.258  -4.361  0.00  0.00    +0.580 C 
ATOM      7  O   LIG    1       -3.674   6.825  -5.100  0.00  0.00    -0.530 OA
ATOM      8  C   LIG    1       -4.327   5.149  -0.996  0.00  0.00    +0.170 C 
ENDROOT
BRANCH   6   9
ATOM      9  C   LIG    1       -5.912   6.464  -4.525  0.00  0.00    +0.030 A 
ATOM     10  C   LIG    1       -6.386   7.438  -5.402  0.00  0.00    +0.290 A 
ATOM     11  N   LIG    1       -7.688   7.617  -5.545  0.00  0.00    -0.440 NA
ATOM     12  C   LIG    1       -8.537   6.875  -4.858  0.00  0.00    +0.260 A 
ATOM     13  C   LIG    1       -8.068   5.904  -3.984  0.00  0.00    +0.230 A 
ATOM     14  N   LIG    1       -6.772   5.715  -3.839  0.00  0.00    -0.410 NA
ENDBRANCH   6   9
BRANCH   1  15
ATOM     15  C   LIG    1       -2.416   4.742   0.433  0.00  0.00    +0.260 C 
BRANCH  15  20
ATOM     16  C   LIG    1        1.280   3.992   0.330  0.00  0.00    +0.140 A 
ATOM     17  C   LIG    1        1.249   2.640   0.662  0.00  0.00    -0.150 A 
ATOM     18  C   LIG    1        0.032   2.037   0.904  0.00  0.00    +0.270 A 
ATOM     19  N   LIG    1       -1.092   2.723   0.818  0.00  0.00    -0.460 NA
ATOM     20  C   LIG    1       -1.102   4.006   0.511  0.00  0.00    +0.140 A 
ATOM     21  C   LIG    1        2.527   1.847   0.757  0.00  0.00    +0.100 C 
ATOM     22  C   LIG    1        0.073   4.682   0.255  0.00  0.00    -0.150 A 
ATOM     23  C   LIG    1        0.050   6.146  -0.101  0.00  0.00    +0.110 C 
BRANCH  16  25
ATOM     24  C   LIG    1        2.925   4.621  -1.265  0.00  0.00    +0.240 C 
ATOM     25  O   LIG    1        2.458   4.621   0.085  0.00  0.00    -0.330 OA
ENDBRANCH  16  25
ENDBRANCH  15  20
ENDBRANCH   1  15
TORSDOF 4
