REMARK  Name = ZINCtj00001n1k2g.0
REMARK                            x       y       z     vdW  Elec       q    Type
REMARK                         _______ _______ _______ _____ _____    ______ ____
ROOT
ATOM      1  O   LIG    1        7.213   9.308  -1.529  0.00  0.00    -0.520 OA
ATOM      2  C   LIG    1        7.734   8.235  -1.299  0.00  0.00    +0.580 C 
ATOM      3  N   LIG    1        7.201   7.105  -1.806  0.00  0.00    -0.590 N 
ATOM      4  C   LIG    1        6.020   7.189  -2.651  0.00  0.00    +0.300 C 
ATOM      5  C   LIG    1        4.968   6.191  -2.227  0.00  0.00    +0.020 C 
ATOM      6  C   LIG    1        5.487   4.790  -1.961  0.00  0.00    +0.240 C 
ATOM      7  C   LIG    1        6.851   4.706  -1.316  0.00  0.00    +0.190 C 
ATOM      8  N   LIG    1        6.606   4.321   0.072  0.00  0.00    -0.730 N 
ATOM      9  H   LIG    1        7.264   4.306   0.785  0.00  0.00    +0.430 HD
ATOM     10  C   LIG    1        5.307   3.992   0.186  0.00  0.00    +0.700 C 
ATOM     11  O   LIG    1        4.818   3.567   1.215  0.00  0.00    -0.580 OA
ATOM     12  N   LIG    1        4.602   4.176  -0.940  0.00  0.00    -0.630 N 
ATOM     13  C   LIG    1        7.817   5.827  -1.498  0.00  0.00    +0.320 C 
ENDROOT
BRANCH  12  14
ATOM     14  C   LIG    1        3.193   3.824  -1.132  0.00  0.00    +0.290 C 
ATOM     15  C   LIG    1        2.332   4.590  -0.124  0.00  0.00    +0.050 C 
ATOM     16  C   LIG    1        0.872   4.159  -0.277  0.00  0.00    +0.260 C 
ATOM     17  N   LIG    1        0.755   2.717  -0.025  0.00  0.00    -0.380 N 
ATOM     18  C   LIG    1        1.521   1.972  -1.032  0.00  0.00    +0.260 C 
ATOM     19  H   LIG    1        1.117   2.507   0.893  0.00  0.00    +0.430 HD
ATOM     20  C   LIG    1        3.006   2.320  -0.908  0.00  0.00    +0.040 C 
BRANCH  17  21
ATOM     21  C   LIG    1       -0.658   2.322  -0.097  0.00  0.00    +0.260 C 
BRANCH  21  22
ATOM     22  C   LIG    1       -0.770   0.802   0.041  0.00  0.00    -0.040 C 
ATOM     23  C   LIG    1       -0.646   0.052  -1.295  0.00  0.00    +0.020 C 
ATOM     24  C   LIG    1       -1.766  -0.873  -0.790  0.00  0.00    +0.030 C 
ATOM     25  C   LIG    1       -2.220   0.295   0.102  0.00  0.00    +0.040 C 
ENDBRANCH  21  22
ENDBRANCH  17  21
ENDBRANCH  12  14
BRANCH   2  26
ATOM     26  C   LIG    1        8.954   8.168  -0.462  0.00  0.00    +0.020 A 
ATOM     27  C   LIG    1        9.401   9.302   0.214  0.00  0.00    +0.300 A 
ATOM     28  N   LIG    1       10.489   9.237   0.960  0.00  0.00    -0.430 NA
ATOM     29  C   LIG    1       11.154   8.100   1.064  0.00  0.00    +0.270 A 
ATOM     30  C   LIG    1       10.711   6.969   0.393  0.00  0.00    +0.230 A 
ATOM     31  N   LIG    1        9.624   7.024  -0.349  0.00  0.00    -0.410 NA
ENDBRANCH   2  26
TORSDOF 4
