REMARK  Name = ZINCpe00000MJKg6.1
REMARK                            x       y       z     vdW  Elec       q    Type
REMARK                         _______ _______ _______ _____ _____    ______ ____
ROOT
ATOM      1  N   LIG    1       -2.792   0.443   1.343  0.00  0.00    -0.530 NA
ATOM      2  C   LIG    1       -1.878  -0.423   2.099  0.00  0.00    +0.160 C 
ATOM      3  C   LIG    1       -2.301  -0.452   3.570  0.00  0.00    +0.040 C 
ATOM      4  C   LIG    1       -3.736  -0.977   3.674  0.00  0.00    -0.030 C 
ATOM      5  C   LIG    1       -4.659  -0.085   2.838  0.00  0.00    +0.030 C 
ATOM      6  C   LIG    1       -4.168  -0.068   1.389  0.00  0.00    +0.170 C 
ENDROOT
BRANCH   1   7
ATOM      7  C   LIG    1       -2.336   0.604  -0.044  0.00  0.00    +0.230 C 
BRANCH   7  12
ATOM      8  C   LIG    1        0.188   3.422  -0.155  0.00  0.00    -0.140 A 
ATOM      9  C   LIG    1        1.389   2.714  -0.092  0.00  0.00    +0.040 A 
ATOM     10  C   LIG    1        1.371   1.337  -0.011  0.00  0.00    +0.000 A 
ATOM     11  C   LIG    1        0.166   0.658   0.008  0.00  0.00    +0.030 A 
ATOM     12  C   LIG    1       -1.028   1.353  -0.059  0.00  0.00    -0.090 A 
ATOM     13  C   LIG    1       -1.024   2.730  -0.135  0.00  0.00    +0.100 A 
BRANCH   8  17
ATOM     14  C   LIG    1        1.383   7.025  -0.347  0.00  0.00    +0.290 C 
ATOM     15  N   LIG    1        1.372   5.563  -0.261  0.00  0.00    -0.730 N 
ATOM     16  H   LIG    1        2.208   5.073  -0.217  0.00  0.00    +0.400 HD
ATOM     17  C   LIG    1        0.200   4.898  -0.242  0.00  0.00    +0.560 C 
ATOM     18  O   LIG    1       -0.848   5.512  -0.297  0.00  0.00    -0.530 OA
ENDBRANCH   8  17
ENDBRANCH   7  12
ENDBRANCH   1   7
BRANCH   4  19
ATOM     19  C   LIG    1       -4.186  -0.951   5.136  0.00  0.00    +0.220 C 
BRANCH  19  20
ATOM     20  C   LIG    1       -5.587  -1.498   5.239  0.00  0.00    +0.490 C 
ATOM     21  N   LIG    1       -5.830  -2.790   4.945  0.00  0.00    -0.700 N 
ATOM     22  H   LIG    1       -5.093  -3.387   4.738  0.00  0.00    +0.400 HD
ATOM     23  O   LIG    1       -6.496  -0.774   5.586  0.00  0.00    -0.530 OA
BRANCH  21  24
ATOM     24  C   LIG    1       -7.205  -3.295   4.939  0.00  0.00    +0.220 C 
ATOM     25  C   LIG    1       -7.463  -4.650   5.601  0.00  0.00    +0.010 C 
ATOM     26  C   LIG    1       -7.504  -4.522   4.076  0.00  0.00    +0.010 C 
ENDBRANCH  21  24
ENDBRANCH  19  20
BRANCH  19  27
ATOM     27  O   LIG    1       -4.163   0.394   5.618  0.00  0.00    -0.530 OA
ATOM     28  H   LIG    1       -4.741   0.996   5.131  0.00  0.00    +0.380 HD
ENDBRANCH  19  27
ENDBRANCH   4  19
TORSDOF 7
