REMARK  Name = ZINCqH0000038I6B.0
REMARK                            x       y       z     vdW  Elec       q    Type
REMARK                         _______ _______ _______ _____ _____    ______ ____
ROOT
ATOM      1  N   LIG    1        2.462  -2.729   0.030  0.00  0.00    -0.670 N 
ATOM      2  H   LIG    1        3.269  -2.192   0.070  0.00  0.00    +0.410 HD
ATOM      3  C   LIG    1        1.261  -2.132  -0.103  0.00  0.00    +0.570 C 
ATOM      4  O   LIG    1        0.260  -2.807  -0.247  0.00  0.00    -0.520 OA
ENDROOT
BRANCH   1   8
ATOM      5  C   LIG    1        2.710  -6.880   0.274  0.00  0.00    -0.130 A 
ATOM      6  C   LIG    1        3.724  -6.162  -0.334  0.00  0.00    +0.050 A 
ATOM      7  C   LIG    1        3.645  -4.786  -0.417  0.00  0.00    -0.020 A 
ATOM      8  C   LIG    1        2.545  -4.122   0.112  0.00  0.00    +0.160 A 
ATOM      9  C   LIG    1        1.531  -4.845   0.727  0.00  0.00    +0.020 A 
ATOM     10  C   LIG    1        1.614  -6.222   0.801  0.00  0.00    +0.050 A 
BRANCH   5  11
ATOM     11  C   LIG    1        2.800  -8.381   0.361  0.00  0.00    +0.350 C 
BRANCH  11  17
ATOM     12  C   LIG    1        5.817  -8.608   1.026  0.00  0.00    +0.170 C 
ATOM     13  C   LIG    1        4.670  -8.866   1.968  0.00  0.00    +0.210 A 
ATOM     14  N   LIG    1        4.779  -9.224   3.219  0.00  0.00    -0.490 NA
ATOM     15  C   LIG    1        3.554  -9.370   3.745  0.00  0.00    +0.140 A 
ATOM     16  C   LIG    1        2.652  -9.086   2.786  0.00  0.00    +0.110 A 
ATOM     17  N   LIG    1        3.360  -8.763   1.660  0.00  0.00    -0.450 N 
ENDBRANCH  11  17
ENDBRANCH   5  11
ENDBRANCH   1   8
BRANCH   3  18
ATOM     18  C   LIG    1        1.161  -0.660  -0.075  0.00  0.00    -0.260 A 
ATOM     19  C   LIG    1       -0.084  -0.029  -0.214  0.00  0.00    +0.180 A 
ATOM     20  C   LIG    1       -0.129   1.339  -0.183  0.00  0.00    -0.110 A 
ATOM     21  C   LIG    1        1.052   2.059  -0.015  0.00  0.00    +0.430 A 
ATOM     22  N   LIG    1        2.217   1.437   0.114  0.00  0.00    -0.550 NA
ATOM     23  C   LIG    1        2.305   0.124   0.089  0.00  0.00    +0.360 A 
BRANCH  21  24
ATOM     24  N   LIG    1        1.010   3.442   0.017  0.00  0.00    -0.710 N 
ATOM     25  H   LIG    1        1.828   3.950   0.133  0.00  0.00    +0.410 HD
BRANCH  24  26
ATOM     26  C   LIG    1       -0.271   4.139  -0.124  0.00  0.00    +0.230 C 
ATOM     27  C   LIG    1       -0.598   4.310  -1.609  0.00  0.00    +0.020 C 
ATOM     28  C   LIG    1       -0.179   5.515   0.539  0.00  0.00    +0.040 C 
ENDBRANCH  24  26
ENDBRANCH  21  24
ENDBRANCH   3  18
TORSDOF 6
