REMARK  Name = ZINCrH000004qKvg.0
REMARK                            x       y       z     vdW  Elec       q    Type
REMARK                         _______ _______ _______ _____ _____    ______ ____
ROOT
ATOM      1  N   LIG    1        1.037  -1.286   5.761  0.00  0.00    -0.660 N 
ATOM      2  H   LIG    1        0.756  -1.030   6.654  0.00  0.00    +0.410 HD
ATOM      3  C   LIG    1        1.773  -2.400   5.580  0.00  0.00    +0.500 C 
ATOM      4  O   LIG    1        2.193  -2.676   4.476  0.00  0.00    -0.490 OA
ENDROOT
BRANCH   3   5
ATOM      5  C   LIG    1        2.074  -3.303   6.748  0.00  0.00    +0.200 C 
ATOM      6  O   LIG    1        3.017  -4.306   6.354  0.00  0.00    -0.280 OA
ATOM      7  C   LIG    1        2.552  -5.301   5.550  0.00  0.00    +0.060 A 
ATOM      8  C   LIG    1        3.454  -6.088   4.850  0.00  0.00    +0.020 A 
ATOM      9  C   LIG    1        2.997  -7.107   4.035  0.00  0.00    +0.020 A 
ATOM     10  C   LIG    1        1.640  -7.344   3.917  0.00  0.00    +0.020 A 
ATOM     11  C   LIG    1        0.736  -6.563   4.611  0.00  0.00    +0.020 A 
ATOM     12  C   LIG    1        1.188  -5.538   5.429  0.00  0.00    +0.050 A 
ATOM     13  O   LIG    1        0.285  -4.776   6.105  0.00  0.00    -0.300 OA
ATOM     14  C   LIG    1        0.787  -4.006   7.203  0.00  0.00    +0.160 C 
ATOM     15  C   LIG    1       -0.251  -2.963   7.620  0.00  0.00    +0.090 C 
ENDBRANCH   3   5
BRANCH   1  22
ATOM     16  C   LIG    1        0.363   1.438   6.225  0.00  0.00    +0.090 C 
ATOM     17  C   LIG    1        0.341   0.838   4.843  0.00  0.00    -0.100 A 
ATOM     18  C   LIG    1       -0.014   1.615   3.759  0.00  0.00    +0.050 A 
ATOM     19  C   LIG    1       -0.034   1.062   2.485  0.00  0.00    +0.080 A 
ATOM     20  C   LIG    1        0.296  -0.274   2.303  0.00  0.00    -0.020 A 
ATOM     21  C   LIG    1        0.656  -1.050   3.387  0.00  0.00    +0.040 A 
ATOM     22  C   LIG    1        0.677  -0.497   4.660  0.00  0.00    +0.140 A 
BRANCH  19  23
ATOM     23  N   LIG    1       -0.394   1.850   1.386  0.00  0.00    -0.510 N 
ATOM     24  C   LIG    1       -1.187   1.079   0.425  0.00  0.00    +0.210 C 
ATOM     25  C   LIG    1       -1.930   2.033  -0.517  0.00  0.00    +0.120 C 
ATOM     26  S   LIG    1       -0.702   3.001  -1.446  0.00  0.00    -0.270 S 
ATOM     27  C   LIG    1        0.359   3.639  -0.113  0.00  0.00    +0.120 C 
ATOM     28  C   LIG    1        0.786   2.465   0.774  0.00  0.00    +0.210 C 
ENDBRANCH  19  23
ENDBRANCH   1  22
TORSDOF 3
