REMARK  Name = ZINCue0000000375.1
REMARK                            x       y       z     vdW  Elec       q    Type
REMARK                         _______ _______ _______ _____ _____    ______ ____
ROOT
ATOM      1  N   LIG    1       -1.806  -4.443  -0.005  0.00  0.00    -0.700 N 
ATOM      2  H   LIG    1       -0.863  -4.673  -0.015  0.00  0.00    +0.410 HD
ATOM      3  C   LIG    1       -2.737  -5.417  -0.001  0.00  0.00    +0.550 C 
ATOM      4  O   LIG    1       -3.918  -5.128   0.012  0.00  0.00    -0.540 OA
ENDROOT
BRANCH   3   5
ATOM      5  C   LIG    1       -2.324  -6.836  -0.013  0.00  0.00    -0.140 A 
ATOM      6  C   LIG    1       -0.969  -7.171  -0.033  0.00  0.00    +0.110 A 
ATOM      7  C   LIG    1       -0.590  -8.498  -0.039  0.00  0.00    +0.000 A 
ATOM      8  C   LIG    1       -1.549  -9.495  -0.036  0.00  0.00    +0.140 A 
ATOM      9  C   LIG    1       -2.894  -9.169  -0.020  0.00  0.00    -0.690 A 
ATOM     10  C   LIG    1       -3.287  -7.847  -0.009  0.00  0.00    +0.190 A 
BRANCH   9  11
ATOM     11  S   LIG    1       -4.107 -10.447  -0.015  0.00  0.00    +2.700 S 
ATOM     12  O   LIG    1       -5.284  -9.880   0.544  0.00  0.00    -0.950 OA
ATOM     13  O   LIG    1       -3.472 -11.601   0.516  0.00  0.00    -0.950 OA
BRANCH  11  14
ATOM     14  N   LIG    1       -4.460 -10.793  -1.596  0.00  0.00    -1.010 NA
ATOM     15  C   LIG    1       -5.537 -10.072  -2.281  0.00  0.00    +0.300 C 
ATOM     16  C   LIG    1       -3.697 -11.820  -2.309  0.00  0.00    +0.290 C 
ENDBRANCH  11  14
ENDBRANCH   9  11
ENDBRANCH   3   5
BRANCH   1  17
ATOM     17  C   LIG    1       -2.215  -3.037   0.007  0.00  0.00    +0.310 C 
BRANCH  17  19
ATOM     18  N   LIG    1       -1.126  -0.816   0.008  0.00  0.00    -0.650 NA
ATOM     19  C   LIG    1       -0.992  -2.157  -0.000  0.00  0.00    +0.450 C 
ATOM     20  O   LIG    1        0.114  -2.655  -0.013  0.00  0.00    -0.610 OA
BRANCH  18  24
ATOM     21  C   LIG    1        1.153   1.905   0.001  0.00  0.00    +0.100 A 
ATOM     22  C   LIG    1        2.208   1.089  -0.013  0.00  0.00    -0.210 A 
ATOM     23  S   LIG    1        1.615  -0.570  -0.016  0.00  0.00    +0.040 S 
ATOM     24  C   LIG    1        0.002  -0.004   0.002  0.00  0.00    +0.350 A 
ATOM     25  N   LIG    1       -0.015   1.292   0.009  0.00  0.00    -0.540 NA
BRANCH  21  26
ATOM     26  C   LIG    1        1.285   3.407   0.008  0.00  0.00    +0.190 C 
BRANCH  26  27
ATOM     27  C   LIG    1        0.506   3.985  -1.145  0.00  0.00    +0.460 C 
ATOM     28  O   LIG    1       -0.095   3.253  -1.895  0.00  0.00    -0.480 OA
BRANCH  27  29
ATOM     29  O   LIG    1        0.479   5.313  -1.338  0.00  0.00    -0.370 OA
BRANCH  29  31
ATOM     30  C   LIG    1       -0.205   7.325  -2.527  0.00  0.00    +0.060 C 
ATOM     31  C   LIG    1       -0.292   5.799  -2.469  0.00  0.00    +0.200 C 
ENDBRANCH  29  31
ENDBRANCH  27  29
ENDBRANCH  26  27
ENDBRANCH  21  26
ENDBRANCH  18  24
ENDBRANCH  17  19
ENDBRANCH   1  17
TORSDOF 10
