REMARK  Name = ZINCrg00000bxXgC.0
REMARK                            x       y       z     vdW  Elec       q    Type
REMARK                         _______ _______ _______ _____ _____    ______ ____
ROOT
ATOM      1  C   LIG    1       -3.161   4.044   0.053  0.00  0.00    -0.100 A 
ATOM      2  C   LIG    1       -3.295   2.959  -0.814  0.00  0.00    +0.040 A 
ATOM      3  C   LIG    1       -2.341   1.964  -0.831  0.00  0.00    +0.090 A 
ATOM      4  C   LIG    1       -1.234   2.044   0.015  0.00  0.00    -0.130 A 
ATOM      5  C   LIG    1       -0.077   1.147   0.223  0.00  0.00    +0.560 C 
ATOM      6  N   LIG    1        0.737   1.650   1.167  0.00  0.00    -0.600 N 
ATOM      7  C   LIG    1        0.173   2.913   1.655  0.00  0.00    +0.360 C 
ATOM      8  O   LIG    1        0.113   0.108  -0.377  0.00  0.00    -0.510 OA
ATOM      9  C   LIG    1       -1.107   3.129   0.886  0.00  0.00    -0.080 A 
ATOM     10  C   LIG    1       -2.057   4.122   0.905  0.00  0.00    +0.090 A 
ENDROOT
BRANCH   1  17
ATOM     11  C   LIG    1       -8.278   6.855  -1.562  0.00  0.00    +0.090 C 
ATOM     12  C   LIG    1       -7.188   5.784  -1.481  0.00  0.00    +0.020 C 
ATOM     13  C   LIG    1       -6.495   5.856  -0.111  0.00  0.00    +0.310 C 
ATOM     14  N   LIG    1       -5.493   4.792  -0.022  0.00  0.00    -0.610 N 
ATOM     15  C   LIG    1       -5.896   3.384  -0.025  0.00  0.00    +0.290 C 
ATOM     16  C   LIG    1       -6.523   3.034  -1.378  0.00  0.00    +0.100 C 
ATOM     17  C   LIG    1       -4.187   5.111   0.069  0.00  0.00    +0.560 C 
ATOM     18  O   LIG    1       -3.852   6.275   0.164  0.00  0.00    -0.520 OA
ATOM     19  S   LIG    1       -7.936   4.138  -1.672  0.00  0.00    -0.240 S 
ENDBRANCH   1  17
BRANCH   6  20
ATOM     20  C   LIG    1        1.984   1.037   1.631  0.00  0.00    +0.290 C 
ATOM     21  C   LIG    1        2.955   0.895   0.454  0.00  0.00    +0.060 C 
ATOM     22  C   LIG    1        4.205   0.152   0.938  0.00  0.00    +0.100 C 
ATOM     23  C   LIG    1        3.793  -1.164   1.544  0.00  0.00    +0.520 C 
ATOM     24  N   LIG    1        2.595  -1.318   2.127  0.00  0.00    -0.670 N 
ATOM     25  H   LIG    1        2.372  -2.180   2.513  0.00  0.00    +0.420 HD
ATOM     26  O   LIG    1        4.560  -2.102   1.503  0.00  0.00    -0.500 OA
ATOM     27  C   LIG    1        1.694  -0.326   2.200  0.00  0.00    +0.520 C 
ATOM     28  O   LIG    1        0.625  -0.532   2.734  0.00  0.00    -0.480 OA
ENDBRANCH   6  20
TORSDOF 2
