REMARK  Name = ZINCpk00000xI9fP.0
REMARK                            x       y       z     vdW  Elec       q    Type
REMARK                         _______ _______ _______ _____ _____    ______ ____
ROOT
ATOM      1  C   LIG    1       -0.034   3.330   4.551  0.00  0.00    +0.570 C 
ATOM      2  N   LIG    1       -1.119   3.140   3.774  0.00  0.00    -0.600 N 
ATOM      3  C   LIG    1       -2.369   3.864   4.042  0.00  0.00    +0.270 C 
ATOM      4  C   LIG    1       -2.809   4.580   2.761  0.00  0.00    +0.030 C 
ATOM      5  C   LIG    1       -2.904   3.564   1.621  0.00  0.00    +0.060 C 
ATOM      6  C   LIG    1       -1.528   2.938   1.377  0.00  0.00    +0.110 C 
ATOM      7  C   LIG    1       -1.074   2.204   2.642  0.00  0.00    +0.270 C 
ATOM      8  O   LIG    1        0.970   2.670   4.366  0.00  0.00    -0.510 OA
ENDROOT
BRANCH   1  15
ATOM      9  C   LIG    1        0.919   5.335   5.688  0.00  0.00    +0.120 A 
ATOM     10  C   LIG    1        0.876   6.283   6.701  0.00  0.00    +0.080 A 
ATOM     11  C   LIG    1       -0.128   6.237   7.650  0.00  0.00    +0.030 A 
ATOM     12  C   LIG    1       -1.099   5.251   7.595  0.00  0.00    +0.050 A 
ATOM     13  C   LIG    1       -1.074   4.306   6.593  0.00  0.00    +0.050 A 
ATOM     14  F   LIG    1        1.820   7.248   6.762  0.00  0.00    -0.130 F 
ATOM     15  C   LIG    1       -0.066   4.340   5.626  0.00  0.00    -0.120 A 
BRANCH   9  16
ATOM     16  O   LIG    1        1.907   5.374   4.758  0.00  0.00    -0.320 OA
BRANCH  16  18
ATOM     17  C   LIG    1        2.878   6.075   2.658  0.00  0.00    +0.070 C 
ATOM     18  C   LIG    1        1.661   6.149   3.583  0.00  0.00    +0.170 C 
ENDBRANCH  16  18
ENDBRANCH   9  16
ENDBRANCH   1  15
BRANCH   6  19
ATOM     19  O   LIG    1       -0.588   3.965   1.056  0.00  0.00    -0.540 OA
ATOM     20  H   LIG    1        0.308   3.640   0.890  0.00  0.00    +0.390 HD
ENDBRANCH   6  19
BRANCH   6  21
ATOM     21  C   LIG    1       -1.617   1.947   0.215  0.00  0.00    +0.330 C 
BRANCH  21  22
ATOM     22  N   LIG    1       -0.332   1.261   0.059  0.00  0.00    -0.300 N 
ATOM     23  C   LIG    1       -0.142  -0.078   0.059  0.00  0.00    +0.140 A 
ATOM     24  C   LIG    1        1.185  -0.272  -0.118  0.00  0.00    +0.140 A 
ATOM     25  N   LIG    1        1.736   0.943  -0.217  0.00  0.00    -0.260 NA
ATOM     26  N   LIG    1        0.811   1.830  -0.108  0.00  0.00    -0.090 NA
ENDBRANCH  21  22
ENDBRANCH   6  21
TORSDOF 6
