REMARK  Name = ZINCqH00000046fN.0
REMARK                            x       y       z     vdW  Elec       q    Type
REMARK                         _______ _______ _______ _____ _____    ______ ____
ROOT
ATOM      1  N   LIG    1        2.338   5.091   0.894  0.00  0.00    -0.720 N 
ATOM      2  H   LIG    1        1.467   5.470   1.089  0.00  0.00    +0.400 HD
ATOM      3  C   LIG    1        3.445   5.627   1.445  0.00  0.00    +0.560 C 
ATOM      4  O   LIG    1        4.537   5.152   1.200  0.00  0.00    -0.520 OA
ENDROOT
BRANCH   3   5
ATOM      5  C   LIG    1        3.331   6.792   2.348  0.00  0.00    -0.080 A 
ATOM      6  C   LIG    1        2.079   7.343   2.627  0.00  0.00    +0.030 A 
ATOM      7  C   LIG    1        1.980   8.427   3.475  0.00  0.00    +0.120 A 
ATOM      8  C   LIG    1        3.118   8.974   4.039  0.00  0.00    -0.660 A 
ATOM      9  C   LIG    1        4.362   8.436   3.763  0.00  0.00    +0.130 A 
ATOM     10  C   LIG    1        4.475   7.349   2.921  0.00  0.00    +0.070 A 
BRANCH   8  11
ATOM     11  S   LIG    1        2.982  10.363   5.115  0.00  0.00    +2.700 S 
ATOM     12  O   LIG    1        4.142  10.350   5.936  0.00  0.00    -0.950 OA
ATOM     13  O   LIG    1        1.661  10.339   5.637  0.00  0.00    -0.950 OA
BRANCH  11  14
ATOM     14  N   LIG    1        3.090  11.723   4.176  0.00  0.00    -1.090 NA
ATOM     15  H   LIG    1        3.841  12.327   4.282  0.00  0.00    +0.420 HD
BRANCH  14  16
ATOM     16  C   LIG    1        2.050  12.013   3.186  0.00  0.00    +0.220 C 
ATOM     17  C   LIG    1        2.480  12.708   1.893  0.00  0.00    +0.010 C 
ATOM     18  C   LIG    1        1.689  13.482   2.950  0.00  0.00    +0.030 C 
ENDBRANCH  14  16
ENDBRANCH  11  14
ENDBRANCH   8  11
ENDBRANCH   3   5
BRANCH   1  19
ATOM     19  C   LIG    1        2.451   3.936  -0.001  0.00  0.00    +0.290 C 
BRANCH  19  20
ATOM     20  C   LIG    1        1.156   3.166   0.008  0.00  0.00    -0.080 A 
ATOM     21  C   LIG    1        1.175   1.783   0.000  0.00  0.00    +0.040 A 
ATOM     22  C   LIG    1       -0.013   1.076   0.008  0.00  0.00    +0.060 A 
ATOM     23  C   LIG    1       -1.220   1.751   0.017  0.00  0.00    -0.090 A 
ATOM     24  C   LIG    1       -1.238   3.134   0.030  0.00  0.00    +0.060 A 
ATOM     25 BR   LIG    1       -2.845   0.784   0.020  0.00  0.00    -0.040 Br
ATOM     26  C   LIG    1       -0.050   3.841   0.022  0.00  0.00    +0.020 A 
ENDBRANCH  19  20
BRANCH  19  28
ATOM     27  C   LIG    1        4.120   5.094  -1.456  0.00  0.00    +0.020 C 
ATOM     28  C   LIG    1        2.747   4.420  -1.422  0.00  0.00    +0.020 C 
ENDBRANCH  19  28
ENDBRANCH   1  19
TORSDOF 7
