REMARK  Name = ZINCrg000000nJvc.0
REMARK                            x       y       z     vdW  Elec       q    Type
REMARK                         _______ _______ _______ _____ _____    ______ ____
ROOT
ATOM      1  C   LIG    1        1.198   2.087  -0.053  0.00  0.00    +0.240 C 
ENDROOT
BRANCH   1   2
ATOM      2  C   LIG    1        0.035   1.136   0.070  0.00  0.00    +0.520 C 
ATOM      3  N   LIG    1       -1.196   1.525  -0.316  0.00  0.00    -0.610 N 
ATOM      4  C   LIG    1       -1.391   2.837  -0.945  0.00  0.00    +0.270 C 
ATOM      5  C   LIG    1       -2.429   3.633  -0.145  0.00  0.00    +0.330 C 
ATOM      6  N   LIG    1       -3.557   2.731   0.133  0.00  0.00    -0.630 N 
ATOM      7  C   LIG    1       -4.848   2.921  -0.141  0.00  0.00    +0.700 C 
ATOM      8  N   LIG    1       -5.607   1.833   0.054  0.00  0.00    -0.640 N 
ATOM      9  C   LIG    1       -4.770   0.750   0.595  0.00  0.00    +0.280 C 
ATOM     10  C   LIG    1       -7.042   1.737  -0.225  0.00  0.00    +0.330 C 
ATOM     11  O   LIG    1       -5.296   3.982  -0.531  0.00  0.00    -0.580 OA
ATOM     12  C   LIG    1       -3.382   1.395   0.742  0.00  0.00    +0.200 C 
ATOM     13  C   LIG    1       -2.351   0.638  -0.104  0.00  0.00    +0.300 C 
ATOM     14  O   LIG    1        0.208   0.020   0.511  0.00  0.00    -0.530 OA
ENDBRANCH   1   2
BRANCH   1  15
ATOM     15  N   LIG    1        2.452   1.329  -0.037  0.00  0.00    -0.720 N 
ATOM     16  H   LIG    1        2.487   0.458   0.390  0.00  0.00    +0.410 HD
ATOM     17  C   LIG    1        3.556   1.841  -0.617  0.00  0.00    +0.520 C 
ATOM     18  O   LIG    1        3.511   2.929  -1.151  0.00  0.00    -0.520 OA
BRANCH  17  19
ATOM     19  C   LIG    1        4.846   1.061  -0.601  0.00  0.00    +0.110 C 
BRANCH  19  20
ATOM     20  C   LIG    1        5.917   1.849  -1.310  0.00  0.00    -0.070 A 
ATOM     21  C   LIG    1        6.111   1.686  -2.669  0.00  0.00    +0.010 A 
ATOM     22  C   LIG    1        7.091   2.411  -3.319  0.00  0.00    +0.000 A 
ATOM     23  C   LIG    1        7.884   3.293  -2.609  0.00  0.00    +0.000 A 
ATOM     24  C   LIG    1        7.694   3.453  -1.249  0.00  0.00    +0.000 A 
ATOM     25  C   LIG    1        6.711   2.730  -0.600  0.00  0.00    +0.020 A 
ENDBRANCH  19  20
ENDBRANCH  17  19
ENDBRANCH   1  15
BRANCH   1  26
ATOM     26  C   LIG    1        1.181   3.067   1.121  0.00  0.00    +0.020 C 
BRANCH  26  28
ATOM     27  C   LIG    1        2.258   5.100   2.098  0.00  0.00    +0.010 C 
ATOM     28  C   LIG    1        2.275   4.119   0.924  0.00  0.00    +0.020 C 
ENDBRANCH  26  28
ENDBRANCH   1  26
TORSDOF 6
