REMARK  Name = ZINCnE000001Fuvo.0
REMARK                            x       y       z     vdW  Elec       q    Type
REMARK                         _______ _______ _______ _____ _____    ______ ____
ROOT
ATOM      1  S   LIG    1       -0.022   1.758   0.012  0.00  0.00    +2.590 S 
ATOM      2  O   LIG    1       -0.965   2.152  -0.976  0.00  0.00    -1.030 OA
ATOM      3  O   LIG    1        1.336   2.178   0.001  0.00  0.00    -1.030 OA
ENDROOT
BRANCH   1   4
ATOM      4  C   LIG    1        0.002  -0.004   0.002  0.00  0.00    -0.580 A 
ATOM      5  C   LIG    1        1.119  -0.680   0.462  0.00  0.00    +0.100 A 
ATOM      6  C   LIG    1        1.143  -2.059   0.462  0.00  0.00    +0.040 A 
ATOM      7  C   LIG    1        0.040  -2.774  -0.015  0.00  0.00    -0.140 A 
ATOM      8  C   LIG    1       -1.082  -2.083  -0.483  0.00  0.00    +0.050 A 
ATOM      9  C   LIG    1       -1.094  -0.705  -0.471  0.00  0.00    +0.100 A 
BRANCH   7  10
ATOM     10  C   LIG    1        0.060  -4.245  -0.023  0.00  0.00    +0.400 C 
ATOM     11  O   LIG    1       -0.898  -4.862  -0.437  0.00  0.00    -0.460 OA
ATOM     12  C   LIG    1        1.272  -4.985   0.482  0.00  0.00    +0.080 C 
ENDBRANCH   7  10
ENDBRANCH   1   4
BRANCH   1  13
ATOM     13  N   LIG    1       -0.646   2.232   1.470  0.00  0.00    -1.070 NA
BRANCH  13  19
ATOM     14  C   LIG    1       -1.316   3.994   2.988  0.00  0.00    +0.070 A 
ATOM     15  C   LIG    1       -1.448   5.342   3.274  0.00  0.00    -0.060 A 
ATOM     16  C   LIG    1       -1.062   6.288   2.341  0.00  0.00    -0.090 A 
ATOM     17  C   LIG    1       -0.541   5.891   1.124  0.00  0.00    +0.010 A 
ATOM     18  C   LIG    1       -0.402   4.547   0.833  0.00  0.00    -0.150 A 
ATOM     19  C   LIG    1       -0.786   3.593   1.763  0.00  0.00    +0.260 A 
BRANCH  14  20
ATOM     20  O   LIG    1       -1.700   3.063   3.902  0.00  0.00    -0.290 OA
BRANCH  20  21
ATOM     21  C   LIG    1       -2.235   3.546   5.135  0.00  0.00    +0.160 C 
BRANCH  21  23
ATOM     22  C   LIG    1       -3.181   2.880   7.350  0.00  0.00    +0.010 C 
ATOM     23  C   LIG    1       -2.608   2.362   6.029  0.00  0.00    +0.020 C 
ENDBRANCH  21  23
ENDBRANCH  20  21
ENDBRANCH  14  20
ENDBRANCH  13  19
ENDBRANCH   1  13
TORSDOF 7
