REMARK  Name = ZINCqH0000007XNY.0
REMARK                            x       y       z     vdW  Elec       q    Type
REMARK                         _______ _______ _______ _____ _____    ______ ____
ROOT
ATOM      1  C   LIG    1        3.532   3.236   0.088  0.00  0.00    +0.490 C 
ATOM      2  N   LIG    1        2.356   3.889   0.001  0.00  0.00    -0.670 N 
ATOM      3  H   LIG    1        2.341   4.856  -0.061  0.00  0.00    +0.420 HD
ATOM      4  O   LIG    1        3.554   2.023   0.082  0.00  0.00    -0.500 OA
ENDROOT
BRANCH   2   5
ATOM      5  C   LIG    1        1.155   3.170   0.000  0.00  0.00    +0.140 A 
ATOM      6  C   LIG    1        0.028   3.698   0.615  0.00  0.00    +0.030 A 
ATOM      7  C   LIG    1       -1.156   2.986   0.612  0.00  0.00    +0.040 A 
ATOM      8  C   LIG    1       -1.217   1.746   0.003  0.00  0.00    +0.060 A 
ATOM      9  C   LIG    1       -0.098   1.220  -0.616  0.00  0.00    -0.160 A 
ATOM     10  C   LIG    1        1.089   1.927  -0.616  0.00  0.00    +0.080 A 
BRANCH   9  11
ATOM     11  C   LIG    1       -0.171  -0.128  -1.284  0.00  0.00    +0.510 C 
ATOM     12  F   LIG    1        0.734  -0.170  -2.350  0.00  0.00    -0.170 F 
ATOM     13  F   LIG    1       -1.468  -0.341  -1.765  0.00  0.00    -0.180 F 
ATOM     14  F   LIG    1        0.153  -1.126  -0.358  0.00  0.00    -0.170 F 
ENDBRANCH   9  11
ENDBRANCH   2   5
BRANCH   1  15
ATOM     15  C   LIG    1        4.819   4.013   0.194  0.00  0.00    +0.350 C 
BRANCH  15  16
ATOM     16  N   LIG    1        5.946   3.082   0.276  0.00  0.00    -0.920 N 
BRANCH  16  17
ATOM     17  C   LIG    1        6.511   2.565  -0.892  0.00  0.00    +0.190 A 
ATOM     18  C   LIG    1        7.187   1.352  -0.860  0.00  0.00    -0.020 A 
ATOM     19  C   LIG    1        7.741   0.840  -2.018  0.00  0.00    +0.080 A 
ATOM     20  C   LIG    1        7.631   1.539  -3.206  0.00  0.00    +0.010 A 
ATOM     21  C   LIG    1        6.963   2.750  -3.241  0.00  0.00    -0.000 A 
ATOM     22 CL   LIG    1        6.827   3.624  -4.735  0.00  0.00    -0.060 Cl
ATOM     23  C   LIG    1        6.402   3.265  -2.087  0.00  0.00    +0.000 A 
ENDBRANCH  16  17
BRANCH  16  25
ATOM     24  C   LIG    1        5.681   1.103   2.159  0.00  0.00    -0.260 C 
ATOM     25  S   LIG    1        6.552   2.642   1.753  0.00  0.00    +2.600 S 
ATOM     26  O   LIG    1        6.146   3.689   2.624  0.00  0.00    -0.940 OA
ATOM     27  O   LIG    1        7.927   2.386   1.506  0.00  0.00    -0.930 OA
ENDBRANCH  16  25
ENDBRANCH  15  16
ENDBRANCH   1  15
TORSDOF 6
