REMARK  Name = ZINCqH00000327HP.0
REMARK                            x       y       z     vdW  Elec       q    Type
REMARK                         _______ _______ _______ _____ _____    ______ ____
ROOT
ATOM      1  C   LIG    1        2.889   4.163   1.160  0.00  0.00    +0.530 C 
ATOM      2  N   LIG    1        3.977   4.935   1.355  0.00  0.00    -0.620 N 
ATOM      3  C   LIG    1        4.377   6.083   0.521  0.00  0.00    +0.240 C 
ATOM      4  C   LIG    1        5.905   6.218   0.739  0.00  0.00    +0.040 C 
ATOM      5  C   LIG    1        6.038   5.860   2.243  0.00  0.00    +0.050 C 
ATOM      6  C   LIG    1        4.958   4.775   2.439  0.00  0.00    +0.270 C 
ATOM      7  O   LIG    1        2.657   3.241   1.913  0.00  0.00    -0.510 OA
ENDROOT
BRANCH   6   8
ATOM      8  C   LIG    1        4.281   4.956   3.773  0.00  0.00    -0.100 A 
ATOM      9  C   LIG    1        3.327   5.943   3.936  0.00  0.00    +0.050 A 
ATOM     10  C   LIG    1        2.702   6.107   5.157  0.00  0.00    -0.020 A 
ATOM     11  C   LIG    1        3.040   5.290   6.222  0.00  0.00    +0.100 A 
ATOM     12  C   LIG    1        4.000   4.305   6.060  0.00  0.00    -0.010 A 
ATOM     13  F   LIG    1        2.434   5.452   7.419  0.00  0.00    -0.140 F 
ATOM     14  C   LIG    1        4.619   4.139   4.836  0.00  0.00    +0.060 A 
ENDBRANCH   6   8
BRANCH   1  15
ATOM     15  C   LIG    1        1.962   4.446   0.007  0.00  0.00    +0.160 C 
BRANCH  15  18
ATOM     16  C   LIG    1       -0.017   1.386   0.010  0.00  0.00    +0.240 A 
ATOM     17  N   LIG    1        1.036   2.143   0.004  0.00  0.00    -0.490 NA
ATOM     18  C   LIG    1        0.834   3.447   0.013  0.00  0.00    +0.110 A 
ATOM     19  C   LIG    1       -0.451   3.809   0.027  0.00  0.00    -0.130 A 
ATOM     20  S   LIG    1       -1.431   2.346   0.021  0.00  0.00    +0.240 S 
BRANCH  16  22
ATOM     21  C   LIG    1       -1.156  -0.694   0.009  0.00  0.00    +0.520 C 
ATOM     22  N   LIG    1        0.002  -0.004   0.002  0.00  0.00    -0.620 N 
ATOM     23  H   LIG    1        0.849  -0.478  -0.009  0.00  0.00    +0.420 HD
ATOM     24  O   LIG    1       -2.214  -0.102   0.023  0.00  0.00    -0.500 OA
BRANCH  21  26
ATOM     25  C   LIG    1       -0.395  -2.707   1.241  0.00  0.00    +0.060 C 
ATOM     26  C   LIG    1       -1.135  -2.201   0.001  0.00  0.00    +0.010 C 
ATOM     27  C   LIG    1       -2.571  -2.730   0.012  0.00  0.00    +0.070 C 
ENDBRANCH  21  26
ENDBRANCH  16  22
ENDBRANCH  15  18
ENDBRANCH   1  15
TORSDOF 5
