REMARK  Name = ZINCrH000004ouuu.0
REMARK                            x       y       z     vdW  Elec       q    Type
REMARK                         _______ _______ _______ _____ _____    ______ ____
ROOT
ATOM      1  N   LIG    1       -3.652  -5.949   1.394  0.00  0.00    -0.620 N 
ATOM      2  C   LIG    1       -3.821  -4.809   0.486  0.00  0.00    +0.300 C 
ATOM      3  C   LIG    1       -2.394  -4.279   0.220  0.00  0.00    +0.010 C 
ATOM      4  C   LIG    1       -1.643  -4.745   1.488  0.00  0.00    +0.070 C 
ATOM      5  C   LIG    1       -2.439  -5.936   1.975  0.00  0.00    +0.520 C 
ATOM      6  O   LIG    1       -2.042  -6.758   2.773  0.00  0.00    -0.510 OA
ENDROOT
BRANCH   3   7
ATOM      7  C   LIG    1       -2.388  -2.776   0.111  0.00  0.00    +0.530 C 
ATOM      8  N   LIG    1       -1.220  -2.113   0.004  0.00  0.00    -0.650 N 
ATOM      9  H   LIG    1       -0.387  -2.606  -0.068  0.00  0.00    +0.420 HD
ATOM     10  O   LIG    1       -3.435  -2.163   0.120  0.00  0.00    -0.510 OA
BRANCH   8  11
ATOM     11  C   LIG    1       -1.208  -0.716  -0.004  0.00  0.00    +0.160 A 
ATOM     12  C   LIG    1       -2.236  -0.017  -0.595  0.00  0.00    +0.040 A 
ATOM     13  C   LIG    1       -2.237   1.376  -0.609  0.00  0.00    +0.040 A 
ATOM     14  C   LIG    1       -1.225   2.083  -0.034  0.00  0.00    +0.020 A 
ATOM     15  C   LIG    1       -0.155   1.406   0.574  0.00  0.00    -0.090 A 
ATOM     16  C   LIG    1        0.909   2.107   1.171  0.00  0.00    +0.080 A 
ATOM     17  C   LIG    1        1.914   1.384   1.750  0.00  0.00    -0.030 A 
ATOM     18  C   LIG    1        1.865  -0.008   1.736  0.00  0.00    +0.290 A 
ATOM     19  N   LIG    1        0.872  -0.657   1.177  0.00  0.00    -0.480 NA
ATOM     20  C   LIG    1       -0.141  -0.011   0.595  0.00  0.00    +0.110 A 
ENDBRANCH   8  11
ENDBRANCH   3   7
BRANCH   1  22
ATOM     21  C   LIG    1       -4.087  -8.356   1.351  0.00  0.00    +0.040 C 
ATOM     22  C   LIG    1       -4.673  -6.971   1.636  0.00  0.00    +0.300 C 
BRANCH  22  23
ATOM     23  C   LIG    1       -5.122  -6.903   3.073  0.00  0.00    -0.090 A 
ATOM     24  C   LIG    1       -5.560  -8.045   3.716  0.00  0.00    +0.020 A 
ATOM     25  C   LIG    1       -5.968  -7.983   5.035  0.00  0.00    +0.000 A 
ATOM     26  C   LIG    1       -5.946  -6.776   5.709  0.00  0.00    +0.000 A 
ATOM     27  C   LIG    1       -5.513  -5.633   5.065  0.00  0.00    +0.000 A 
ATOM     28  C   LIG    1       -5.101  -5.696   3.747  0.00  0.00    +0.020 A 
ENDBRANCH  22  23
ENDBRANCH   1  22
TORSDOF 4
