REMARK  Name = ZINCvU0000000AEn.0
REMARK                            x       y       z     vdW  Elec       q    Type
REMARK                         _______ _______ _______ _____ _____    ______ ____
ROOT
ATOM      1  O   LIG    1        7.859   0.713   2.029  0.00  0.00    -0.540 OA
ATOM      2  C   LIG    1        7.468   0.585   0.889  0.00  0.00    +0.520 C 
ATOM      3  N   LIG    1        6.366   1.242   0.477  0.00  0.00    -0.610 N 
ATOM      4  C   LIG    1        5.628   2.117   1.398  0.00  0.00    +0.280 C 
ATOM      5  C   LIG    1        4.156   1.691   1.410  0.00  0.00    +0.030 C 
ATOM      6  C   LIG    1        3.618   1.689  -0.023  0.00  0.00    +0.090 C 
ATOM      7  C   LIG    1        4.405   0.682  -0.865  0.00  0.00    +0.020 C 
ATOM      8  C   LIG    1        5.880   1.097  -0.902  0.00  0.00    +0.270 C 
ENDROOT
BRANCH   6   9
ATOM      9  C   LIG    1        2.161   1.303  -0.012  0.00  0.00    +0.080 A 
ATOM     10  C   LIG    1        1.764   0.025  -0.015  0.00  0.00    -0.060 A 
ATOM     11  S   LIG    1        0.002  -0.004   0.002  0.00  0.00    +0.120 S 
ATOM     12  C   LIG    1       -0.022   1.758   0.012  0.00  0.00    +0.100 A 
ATOM     13  N   LIG    1        1.203   2.200   0.002  0.00  0.00    -0.440 NA
BRANCH  12  14
ATOM     14  C   LIG    1       -1.238   2.599   0.022  0.00  0.00    +0.040 A 
ATOM     15  C   LIG    1       -1.145   3.996   0.035  0.00  0.00    +0.030 A 
ATOM     16  C   LIG    1       -2.305   4.743   0.040  0.00  0.00    +0.310 A 
ATOM     17  N   LIG    1       -3.488   4.159   0.043  0.00  0.00    -0.470 NA
ATOM     18  C   LIG    1       -3.620   2.845   0.036  0.00  0.00    +0.180 A 
ATOM     19 CL   LIG    1       -5.208   2.144   0.040  0.00  0.00    -0.020 Cl
ATOM     20  C   LIG    1       -2.512   2.021   0.026  0.00  0.00    +0.010 A 
ENDBRANCH  12  14
ENDBRANCH   6   9
BRANCH   2  21
ATOM     21  C   LIG    1        8.214  -0.309  -0.068  0.00  0.00    +0.080 C 
BRANCH  21  22
ATOM     22  C   LIG    1        9.417  -0.929   0.646  0.00  0.00    +0.230 C 
BRANCH  22  23
ATOM     23  O   LIG    1       10.124  -1.777  -0.261  0.00  0.00    -0.310 OA
BRANCH  23  24
ATOM     24  C   LIG    1       11.227  -2.410   0.219  0.00  0.00    +0.170 A 
ATOM     25  C   LIG    1       11.962  -3.247  -0.608  0.00  0.00    +0.000 A 
ATOM     26  C   LIG    1       13.084  -3.890  -0.120  0.00  0.00    +0.110 A 
ATOM     27  C   LIG    1       13.475  -3.699   1.192  0.00  0.00    -0.110 A 
ATOM     28  C   LIG    1       12.743  -2.863   2.021  0.00  0.00    +0.150 A 
ATOM     29  F   LIG    1       13.127  -2.677   3.303  0.00  0.00    -0.120 F 
ATOM     30 CL   LIG    1       14.885  -4.508   1.803  0.00  0.00    -0.050 Cl
ATOM     31  C   LIG    1       11.623  -2.214   1.534  0.00  0.00    -0.090 A 
ENDBRANCH  23  24
ENDBRANCH  22  23
ENDBRANCH  21  22
ENDBRANCH   2  21
TORSDOF 6
