REMARK  Name = ZINCrD0000071Xf3.0
REMARK                            x       y       z     vdW  Elec       q    Type
REMARK                         _______ _______ _______ _____ _____    ______ ____
ROOT
ATOM      1  N   LIG    1       -3.355  -5.120   0.003  0.00  0.00    -0.660 N 
ATOM      2  H   LIG    1       -4.255  -4.768   0.083  0.00  0.00    +0.430 HD
ATOM      3  C   LIG    1       -2.300  -4.281   0.001  0.00  0.00    +0.520 C 
ATOM      4  O   LIG    1       -1.172  -4.726   0.003  0.00  0.00    -0.490 OA
ENDROOT
BRANCH   1  10
ATOM      5  C   LIG    1       -4.100  -7.391   0.406  0.00  0.00    -0.170 A 
ATOM      6  C   LIG    1       -3.887  -8.766   0.281  0.00  0.00    +0.100 A 
ATOM      7  C   LIG    1       -2.746  -9.232  -0.337  0.00  0.00    -0.010 A 
ATOM      8  C   LIG    1       -1.810  -8.343  -0.840  0.00  0.00    +0.090 A 
ATOM      9  C   LIG    1       -2.009  -6.981  -0.729  0.00  0.00    +0.010 A 
ATOM     10  C   LIG    1       -3.152  -6.494  -0.110  0.00  0.00    +0.220 A 
BRANCH   5  11
ATOM     11  C   LIG    1       -5.315  -6.886   1.070  0.00  0.00    +0.520 C 
ATOM     12  O   LIG    1       -5.543  -5.693   1.093  0.00  0.00    -0.520 OA
BRANCH  11  13
ATOM     13  O   LIG    1       -6.173  -7.748   1.651  0.00  0.00    -0.350 OA
BRANCH  13  15
ATOM     14  C   LIG    1       -8.196  -8.303   2.886  0.00  0.00    +0.070 C 
ATOM     15  C   LIG    1       -7.348  -7.180   2.287  0.00  0.00    +0.200 C 
ENDBRANCH  13  15
ENDBRANCH  11  13
ENDBRANCH   5  11
ENDBRANCH   1  10
BRANCH   3  16
ATOM     16  C   LIG    1       -2.523  -2.791  -0.002  0.00  0.00    +0.270 C 
BRANCH  16  17
ATOM     17  O   LIG    1       -1.241  -2.110  -0.003  0.00  0.00    -0.330 OA
BRANCH  17  18
ATOM     18  C   LIG    1       -1.264  -0.762  -0.006  0.00  0.00    +0.510 C 
ATOM     19  O   LIG    1       -2.326  -0.173  -0.008  0.00  0.00    -0.480 OA
BRANCH  18  20
ATOM     20  C   LIG    1        0.000  -0.004  -0.008  0.00  0.00    -0.150 A 
ATOM     21  C   LIG    1        1.224  -0.677  -0.006  0.00  0.00    +0.150 A 
ATOM     22  C   LIG    1        2.403   0.039  -0.008  0.00  0.00    -0.090 A 
ATOM     23  C   LIG    1        2.379   1.425  -0.011  0.00  0.00    +0.120 A 
ATOM     24  C   LIG    1        1.175   2.102  -0.013  0.00  0.00    -0.060 A 
ATOM     25 CL   LIG    1        3.923  -0.799  -0.007  0.00  0.00    -0.060 Cl
ATOM     26  C   LIG    1       -0.019   1.399  -0.011  0.00  0.00    +0.200 A 
BRANCH  26  27
ATOM     27  O   LIG    1       -1.202   2.063  -0.018  0.00  0.00    -0.280 OA
ATOM     28  C   LIG    1       -1.143   3.491  -0.021  0.00  0.00    +0.250 C 
ENDBRANCH  26  27
ENDBRANCH  18  20
ENDBRANCH  17  18
ENDBRANCH  16  17
ENDBRANCH   3  16
TORSDOF 9
