REMARK  Name = ZINCtV00000L6kpD.0
REMARK                            x       y       z     vdW  Elec       q    Type
REMARK                         _______ _______ _______ _____ _____    ______ ____
ROOT
ATOM      1  N   LIG    1        1.044   1.874  -0.594  0.00  0.00    -0.500 N 
ATOM      2  C   LIG    1       -0.039   1.174  -0.995  0.00  0.00    +0.570 A 
ATOM      3  C   LIG    1        0.115  -0.300  -1.153  0.00  0.00    -0.220 A 
ATOM      4  C   LIG    1        1.438  -0.869  -0.857  0.00  0.00    +0.040 A 
ATOM      5  S   LIG    1        1.377  -2.604  -1.109  0.00  0.00    +0.300 S 
ATOM      6  C   LIG    1       -0.264  -2.559  -1.567  0.00  0.00    -0.270 A 
ATOM      7  C   LIG    1       -1.080  -3.779  -1.962  0.00  0.00    +0.120 C 
ATOM      8  C   LIG    1       -2.565  -3.413  -1.895  0.00  0.00    +0.020 C 
ATOM      9  C   LIG    1       -2.804  -2.123  -2.683  0.00  0.00    +0.010 C 
ATOM     10  C   LIG    1       -2.227  -0.937  -1.906  0.00  0.00    +0.100 C 
ATOM     11  N   LIG    1        2.407  -0.065  -0.473  0.00  0.00    -0.510 NA
ATOM     12  C   LIG    1       -0.783  -1.257  -1.537  0.00  0.00    -0.020 A 
ATOM     13  O   LIG    1       -1.097   1.726  -1.224  0.00  0.00    -0.500 OA
ATOM     14  C   LIG    1        2.226   1.251  -0.345  0.00  0.00    +0.330 A 
ENDROOT
BRANCH   1  15
ATOM     15  C   LIG    1        0.943   3.325  -0.425  0.00  0.00    +0.230 C 
ATOM     16  C   LIG    1        0.598   3.972  -1.768  0.00  0.00    +0.050 C 
BRANCH  15  18
ATOM     17  C   LIG    1        0.253   3.107   1.966  0.00  0.00    +0.020 C 
ATOM     18  C   LIG    1       -0.153   3.646   0.593  0.00  0.00    +0.040 C 
ENDBRANCH  15  18
ENDBRANCH   1  15
BRANCH  14  19
ATOM     19  S   LIG    1        3.554   2.206   0.160  0.00  0.00    +0.210 S 
BRANCH  19  20
ATOM     20  C   LIG    1        4.781   0.954   0.337  0.00  0.00    -0.100 A 
ATOM     21  C   LIG    1        5.766   0.798  -0.638  0.00  0.00    +0.130 A 
ATOM     22  C   LIG    1        6.725  -0.183  -0.495  0.00  0.00    +0.100 A 
ATOM     23  C   LIG    1        6.710  -1.014   0.615  0.00  0.00    -0.010 A 
ATOM     24  C   LIG    1        5.732  -0.862   1.587  0.00  0.00    +0.120 A 
ATOM     25 CL   LIG    1        7.918  -2.248   0.788  0.00  0.00    -0.020 Cl
ATOM     26  C   LIG    1        4.774   0.120   1.456  0.00  0.00    +0.070 A 
BRANCH  26  27
ATOM     27  N   LIG    1        3.734   0.285   2.497  0.00  0.00    -0.020 N 
ATOM     28  O   LIG    1        2.816   1.220   2.369  0.00  0.00    -0.140 OA
ATOM     29  O   LIG    1        3.728  -0.502   3.553  0.00  0.00    -0.160 OA
ENDBRANCH  26  27
ENDBRANCH  19  20
ENDBRANCH  14  19
TORSDOF 5
