REMARK  Name = ZINCqH0000036cem.0
REMARK                            x       y       z     vdW  Elec       q    Type
REMARK                         _______ _______ _______ _____ _____    ______ ____
ROOT
ATOM      1  C   LIG    1       -3.439   6.155   0.579  0.00  0.00    +0.570 C 
ATOM      2  N   LIG    1       -4.665   5.604   0.680  0.00  0.00    -0.670 N 
ATOM      3  H   LIG    1       -4.767   4.640   0.658  0.00  0.00    +0.410 HD
ATOM      4  O   LIG    1       -3.301   7.357   0.699  0.00  0.00    -0.500 OA
ENDROOT
BRANCH   1  10
ATOM      5  C   LIG    1        1.046   1.660  -0.425  0.00  0.00    +0.160 A 
ATOM      6  C   LIG    1        1.135   3.034  -0.415  0.00  0.00    +0.000 A 
ATOM      7  C   LIG    1       -0.012   3.803  -0.166  0.00  0.00    +0.200 A 
ATOM      8  N   LIG    1        0.051   5.140  -0.152  0.00  0.00    -0.480 NA
ATOM      9  C   LIG    1       -1.006   5.876   0.078  0.00  0.00    +0.230 A 
ATOM     10  C   LIG    1       -2.264   5.298   0.323  0.00  0.00    -0.210 A 
ATOM     11  C   LIG    1       -2.393   3.913   0.322  0.00  0.00    +0.140 A 
ATOM     12  C   LIG    1       -0.872   7.377   0.081  0.00  0.00    +0.140 C 
ATOM     13  C   LIG    1       -1.246   3.144   0.072  0.00  0.00    -0.150 A 
ATOM     14  C   LIG    1       -1.303   1.739   0.050  0.00  0.00    +0.100 A 
ATOM     15  C   LIG    1       -0.175   1.020  -0.189  0.00  0.00    -0.050 A 
BRANCH   5  17
ATOM     16  C   LIG    1        2.002  -0.502  -0.663  0.00  0.00    +0.250 C 
ATOM     17  O   LIG    1        2.157   0.918  -0.666  0.00  0.00    -0.310 OA
ENDBRANCH   5  17
ENDBRANCH   1  10
BRANCH   2  18
ATOM     18  C   LIG    1       -5.793   6.426   0.818  0.00  0.00    +0.130 A 
ATOM     19  C   LIG    1       -6.804   6.342  -0.080  0.00  0.00    +0.210 A 
ATOM     20  N   LIG    1       -7.912   7.133   0.046  0.00  0.00    -0.350 N 
ATOM     21  C   LIG    1       -9.054   7.249  -0.698  0.00  0.00    +0.080 A 
ATOM     22  C   LIG    1       -9.816   8.201  -0.114  0.00  0.00    +0.060 A 
ATOM     23  N   LIG    1       -9.171   8.664   0.959  0.00  0.00    -0.490 NA
ATOM     24  C   LIG    1      -11.167   8.662  -0.595  0.00  0.00    +0.160 C 
ATOM     25  C   LIG    1       -8.011   8.030   1.077  0.00  0.00    +0.220 A 
ATOM     26  C   LIG    1       -6.967   8.134   2.017  0.00  0.00    +0.100 A 
ATOM     27  C   LIG    1       -5.870   7.340   1.888  0.00  0.00    +0.060 A 
ENDBRANCH   2  18
TORSDOF 3
