REMARK  Name = ZINCqH0000031uUs.0
REMARK                            x       y       z     vdW  Elec       q    Type
REMARK                         _______ _______ _______ _____ _____    ______ ____
ROOT
ATOM      1  C   LIG    1       -0.016   1.344   0.009  0.00  0.00    +0.510 C 
ATOM      2  N   LIG    1        0.002  -0.004   0.002  0.00  0.00    -0.610 N 
ATOM      3  C   LIG    1       -1.184  -0.879   0.008  0.00  0.00    +0.240 C 
ATOM      4  C   LIG    1       -0.698  -2.211  -0.617  0.00  0.00    +0.040 C 
ATOM      5  C   LIG    1        0.742  -2.315  -0.046  0.00  0.00    +0.050 C 
ATOM      6  C   LIG    1        1.208  -0.845  -0.020  0.00  0.00    +0.260 C 
ATOM      7  O   LIG    1        1.026   1.964   0.003  0.00  0.00    -0.510 OA
ENDROOT
BRANCH   6   8
ATOM      8  C   LIG    1        2.031  -0.593   1.217  0.00  0.00    -0.080 A 
ATOM      9  C   LIG    1        1.407  -0.416   2.438  0.00  0.00    +0.000 A 
ATOM     10  C   LIG    1        2.163  -0.189   3.574  0.00  0.00    +0.010 A 
ATOM     11  C   LIG    1        3.541  -0.129   3.487  0.00  0.00    +0.000 A 
ATOM     12  C   LIG    1        4.164  -0.301   2.265  0.00  0.00    -0.080 A 
ATOM     13  C   LIG    1        5.667  -0.236   2.170  0.00  0.00    +0.100 C 
ATOM     14  C   LIG    1        3.409  -0.532   1.130  0.00  0.00    +0.010 A 
ENDBRANCH   6   8
BRANCH   1  15
ATOM     15  C   LIG    1       -1.331   2.079   0.020  0.00  0.00    +0.350 C 
BRANCH  15  26
ATOM     16  C   LIG    1       -1.032   3.896  -2.379  0.00  0.00    +0.050 C 
ATOM     17  C   LIG    1       -0.953   4.317  -1.114  0.00  0.00    +0.140 C 
ATOM     18  C   LIG    1       -0.712   5.704  -0.672  0.00  0.00    -0.050 A 
ATOM     19  C   LIG    1       -0.510   6.907  -1.337  0.00  0.00    +0.040 A 
ATOM     20  C   LIG    1       -0.306   8.065  -0.613  0.00  0.00    +0.050 A 
ATOM     21  C   LIG    1       -0.303   8.037   0.772  0.00  0.00    +0.020 A 
ATOM     22  C   LIG    1       -0.503   6.852   1.451  0.00  0.00    +0.100 A 
ATOM     23  C   LIG    1       -0.710   5.673   0.738  0.00  0.00    -0.160 A 
ATOM     24  C   LIG    1       -0.953   4.277   1.132  0.00  0.00    +0.570 C 
ATOM     25  O   LIG    1       -1.023   3.869   2.276  0.00  0.00    -0.500 OA
ATOM     26  N   LIG    1       -1.083   3.523   0.026  0.00  0.00    -0.540 N 
ENDBRANCH  15  26
ENDBRANCH   1  15
TORSDOF 3
