REMARK  Name = ZINCtV00000L6jNt.0
REMARK                            x       y       z     vdW  Elec       q    Type
REMARK                         _______ _______ _______ _____ _____    ______ ____
ROOT
ATOM      1  P   LIG    1       -2.133   2.709   2.004  0.00  0.00    +2.290 P 
ATOM      2  O   LIG    1       -3.383   3.222   1.401  0.00  0.00    -0.990 OA
ENDROOT
BRANCH   1   3
ATOM      3  O   LIG    1       -2.422   1.292   2.712  0.00  0.00    -0.710 OA
BRANCH   3   4
ATOM      4  C   LIG    1       -3.036   0.194   2.034  0.00  0.00    +0.270 C 
BRANCH   4   9
ATOM      5  C   LIG    1        0.199  -4.545   2.720  0.00  0.00    +0.100 C 
ATOM      6  C   LIG    1       -0.645  -3.310   2.541  0.00  0.00    -0.060 A 
ATOM      7  C   LIG    1       -1.403  -3.150   1.396  0.00  0.00    +0.010 A 
ATOM      8  C   LIG    1       -2.177  -2.016   1.232  0.00  0.00    +0.050 A 
ATOM      9  C   LIG    1       -2.193  -1.042   2.213  0.00  0.00    -0.150 A 
ATOM     10  C   LIG    1       -1.431  -1.200   3.355  0.00  0.00    +0.070 A 
ATOM     11  C   LIG    1       -0.661  -2.336   3.522  0.00  0.00    +0.010 A 
ENDBRANCH   4   9
BRANCH   4  12
ATOM     12  C   LIG    1       -4.429  -0.051   2.616  0.00  0.00    +0.440 C 
ATOM     13  F   LIG    1       -4.320  -0.347   3.979  0.00  0.00    -0.170 F 
ATOM     14  F   LIG    1       -5.031  -1.125   1.952  0.00  0.00    -0.170 F 
ATOM     15  F   LIG    1       -5.212   1.097   2.450  0.00  0.00    -0.160 F 
ENDBRANCH   4  12
ENDBRANCH   3   4
ENDBRANCH   1   3
BRANCH   1  16
ATOM     16  O   LIG    1       -1.597   3.757   3.102  0.00  0.00    -0.610 OA
BRANCH  16  17
ATOM     17  C   LIG    1       -1.418   5.016   2.623  0.00  0.00    +0.070 A 
ATOM     18  C   LIG    1       -0.220   5.365   2.017  0.00  0.00    -0.010 A 
ATOM     19  C   LIG    1       -0.042   6.644   1.525  0.00  0.00    +0.040 A 
ATOM     20  C   LIG    1       -1.053   7.579   1.647  0.00  0.00    +0.020 A 
ATOM     21  C   LIG    1       -2.246   7.235   2.256  0.00  0.00    +0.040 A 
ATOM     22  C   LIG    1       -2.431   5.956   2.744  0.00  0.00    +0.030 A 
ENDBRANCH  16  17
ENDBRANCH   1  16
BRANCH   1  23
ATOM     23  O   LIG    1       -1.021   2.518   0.856  0.00  0.00    -0.640 OA
BRANCH  23  24
ATOM     24  C   LIG    1       -1.435   1.760  -0.193  0.00  0.00    +0.060 A 
ATOM     25  C   LIG    1       -1.073   0.422  -0.268  0.00  0.00    +0.000 A 
ATOM     26  C   LIG    1       -1.489  -0.345  -1.339  0.00  0.00    +0.030 A 
ATOM     27  C   LIG    1       -2.266   0.218  -2.335  0.00  0.00    +0.030 A 
ATOM     28  C   LIG    1       -2.627   1.550  -2.262  0.00  0.00    +0.040 A 
ATOM     29  C   LIG    1       -2.213   2.322  -1.194  0.00  0.00    +0.040 A 
ENDBRANCH  23  24
ENDBRANCH   1  23
TORSDOF 8
