REMARK  Name = ZINCrH000004tTJD.0
REMARK                            x       y       z     vdW  Elec       q    Type
REMARK                         _______ _______ _______ _____ _____    ______ ____
ROOT
ATOM      1  C   LIG    1        1.703   3.777   0.063  0.00  0.00    +0.230 A 
ATOM      2  N   LIG    1        2.624   4.686   0.004  0.00  0.00    -0.500 NA
ATOM      3  C   LIG    1        2.222   5.944  -0.011  0.00  0.00    +0.130 A 
ATOM      4  C   LIG    1        0.899   6.104   0.049  0.00  0.00    -0.270 A 
ATOM      5  S   LIG    1        0.158   4.507   0.119  0.00  0.00    +0.260 S 
ENDROOT
BRANCH   1   8
ATOM      6  O   LIG    1       -0.235   1.968   0.190  0.00  0.00    -0.500 OA
ATOM      7  C   LIG    1        0.901   1.547   0.151  0.00  0.00    +0.510 C 
ATOM      8  N   LIG    1        1.937   2.407   0.083  0.00  0.00    -0.620 N 
ATOM      9  H   LIG    1        2.845   2.069   0.048  0.00  0.00    +0.420 HD
BRANCH   7  10
ATOM     10  C   LIG    1        1.155   0.061   0.173  0.00  0.00    +0.080 C 
BRANCH  10  11
ATOM     11  C   LIG    1       -0.179  -0.683   0.253  0.00  0.00    +0.250 C 
ATOM     12  C   LIG    1        0.073  -2.187   0.139  0.00  0.00    +0.040 C 
ATOM     13  C   LIG    1       -1.234  -2.929   0.438  0.00  0.00    +0.030 C 
ATOM     14  C   LIG    1       -1.573  -2.726   1.917  0.00  0.00    +0.060 C 
ATOM     15  C   LIG    1       -1.475  -1.269   2.268  0.00  0.00    +0.520 C 
ATOM     16  O   LIG    1       -2.012  -0.886   3.286  0.00  0.00    -0.560 OA
ATOM     17  N   LIG    1       -0.829  -0.373   1.521  0.00  0.00    -0.710 N 
ATOM     18  H   LIG    1       -0.788   0.542   1.841  0.00  0.00    +0.400 HD
ENDBRANCH  10  11
ENDBRANCH   7  10
ENDBRANCH   1   8
BRANCH   3  19
ATOM     19  C   LIG    1        3.181   7.104  -0.082  0.00  0.00    +0.030 C 
ATOM     20  C   LIG    1        4.631   6.800  -0.461  0.00  0.00    +0.040 C 
ATOM     21  C   LIG    1        4.280   7.179   0.980  0.00  0.00    +0.030 C 
ENDBRANCH   3  19
BRANCH   4  22
ATOM     22  C   LIG    1        0.166   7.421   0.054  0.00  0.00    +0.200 C 
BRANCH  22  23
ATOM     23  C   LIG    1       -0.103   7.840   1.477  0.00  0.00    -0.110 A 
ATOM     24  C   LIG    1        0.762   8.707   2.117  0.00  0.00    +0.050 A 
ATOM     25  C   LIG    1        0.515   9.091   3.422  0.00  0.00    +0.000 A 
ATOM     26  C   LIG    1       -0.596   8.609   4.088  0.00  0.00    +0.040 A 
ATOM     27  C   LIG    1       -1.462   7.741   3.450  0.00  0.00    -0.010 A 
ATOM     28  C   LIG    1       -1.219   7.360   2.141  0.00  0.00    +0.100 A 
ATOM     29  F   LIG    1       -2.069   6.517   1.514  0.00  0.00    -0.130 F 
ENDBRANCH  22  23
ENDBRANCH   4  22
TORSDOF 6
