REMARK  Name = ZINCrH000004syGZ.0
REMARK                            x       y       z     vdW  Elec       q    Type
REMARK                         _______ _______ _______ _____ _____    ______ ____
ROOT
ATOM      1  N   LIG    1        0.177   3.301  -3.210  0.00  0.00    -0.680 N 
ATOM      2  H   LIG    1        0.124   2.343  -3.352  0.00  0.00    +0.410 HD
ATOM      3  C   LIG    1       -0.260   3.836  -2.053  0.00  0.00    +0.710 C 
ATOM      4  N   LIG    1       -0.685   3.033  -1.057  0.00  0.00    -0.620 N 
ATOM      5  C   LIG    1       -0.782   1.580  -1.257  0.00  0.00    +0.260 C 
ATOM      6  C   LIG    1        0.004   0.876  -0.146  0.00  0.00    +0.030 C 
ATOM      7  C   LIG    1       -0.501   1.358   1.215  0.00  0.00    +0.040 C 
ATOM      8  C   LIG    1       -0.271   2.866   1.342  0.00  0.00    +0.180 C 
ATOM      9  C   LIG    1       -1.060   3.593   0.248  0.00  0.00    +0.300 C 
ATOM     10  O   LIG    1       -0.270   5.043  -1.906  0.00  0.00    -0.560 OA
ENDROOT
BRANCH   1  16
ATOM     11  C   LIG    1        1.233   9.077  -7.560  0.00  0.00    +0.220 C 
ATOM     12  C   LIG    1        1.235   7.769  -6.812  0.00  0.00    +0.250 A 
ATOM     13  N   LIG    1        0.424   7.467  -5.843  0.00  0.00    -0.480 NA
ATOM     14  C   LIG    1        0.712   6.211  -5.405  0.00  0.00    +0.040 A 
ATOM     15  C   LIG    1        0.176   5.388  -4.415  0.00  0.00    +0.090 A 
ATOM     16  C   LIG    1        0.709   4.129  -4.207  0.00  0.00    +0.160 A 
ATOM     17  C   LIG    1        1.769   3.678  -4.990  0.00  0.00    +0.030 A 
ATOM     18  C   LIG    1        2.301   4.483  -5.975  0.00  0.00    +0.070 A 
ATOM     19  C   LIG    1        1.780   5.750  -6.190  0.00  0.00    -0.010 A 
ATOM     20  O   LIG    1        2.074   6.750  -7.052  0.00  0.00    -0.210 OA
ENDBRANCH   1  16
BRANCH   8  21
ATOM     21  O   LIG    1       -0.715   3.311   2.625  0.00  0.00    -0.290 OA
BRANCH  21  22
ATOM     22  C   LIG    1       -0.074   4.380   3.162  0.00  0.00    +0.300 A 
ATOM     23  N   LIG    1        0.911   4.956   2.495  0.00  0.00    -0.510 NA
ATOM     24  C   LIG    1        1.560   5.998   2.980  0.00  0.00    +0.300 A 
ATOM     25  C   LIG    1        1.231   6.527   4.211  0.00  0.00    -0.030 A 
ATOM     26  C   LIG    1        0.202   5.952   4.945  0.00  0.00    +0.090 A 
ATOM     27  C   LIG    1       -0.464   4.864   4.407  0.00  0.00    +0.030 A 
ATOM     28  F   LIG    1       -1.476   4.277   5.084  0.00  0.00    -0.120 F 
ENDBRANCH  21  22
ENDBRANCH   8  21
TORSDOF 3
