REMARK  Name = ZINCpe000000T9dO.0
REMARK                            x       y       z     vdW  Elec       q    Type
REMARK                         _______ _______ _______ _____ _____    ______ ____
ROOT
ATOM      1  N   LIG    1        2.071   5.636   0.582  0.00  0.00    -0.750 N 
ATOM      2  H   LIG    1        1.574   6.042  -0.145  0.00  0.00    +0.390 HD
ATOM      3  C   LIG    1        2.030   4.301   0.763  0.00  0.00    +0.710 C 
ATOM      4  N   LIG    1        1.380   3.520  -0.123  0.00  0.00    -0.630 N 
ATOM      5  C   LIG    1        0.618   4.117  -1.228  0.00  0.00    +0.260 C 
ATOM      6  C   LIG    1       -0.808   3.559  -1.201  0.00  0.00    +0.020 C 
ATOM      7  C   LIG    1       -0.755   2.030  -1.228  0.00  0.00    +0.030 C 
ATOM      8  C   LIG    1       -0.013   1.522   0.010  0.00  0.00    -0.040 C 
ATOM      9  C   LIG    1        1.422   2.057  -0.003  0.00  0.00    +0.310 C 
ATOM     10  O   LIG    1        2.578   3.801   1.726  0.00  0.00    -0.580 OA
ENDROOT
BRANCH   1  11
ATOM     11  C   LIG    1        2.867   6.473   1.483  0.00  0.00    +0.280 C 
BRANCH  11  12
ATOM     12  C   LIG    1        2.743   7.938   1.061  0.00  0.00    +0.180 C 
BRANCH  12  20
ATOM     13  C   LIG    1        4.364  10.148   0.107  0.00  0.00    +0.020 C 
ATOM     14  C   LIG    1        3.640  10.153   1.455  0.00  0.00    +0.070 C 
ATOM     15  C   LIG    1        4.427  11.005   2.454  0.00  0.00    +0.230 C 
ATOM     16  O   LIG    1        5.712  10.414   2.671  0.00  0.00    -0.380 OA
ATOM     17  C   LIG    1        5.652   9.074   3.167  0.00  0.00    +0.220 C 
ATOM     18  C   LIG    1        4.878   8.202   2.175  0.00  0.00    +0.140 C 
ATOM     19  C   LIG    1        2.237  10.736   1.280  0.00  0.00    +0.050 C 
ATOM     20  N   LIG    1        3.541   8.777   1.964  0.00  0.00    -0.520 NA
ENDBRANCH  12  20
ENDBRANCH  11  12
ENDBRANCH   1  11
BRANCH   8  21
ATOM     21  C   LIG    1        0.011  -0.008  -0.001  0.00  0.00    +0.330 C 
BRANCH  21  22
ATOM     22  N   LIG    1        0.618  -0.496   1.240  0.00  0.00    -0.290 N 
ATOM     23  C   LIG    1        0.053  -1.365   2.110  0.00  0.00    +0.140 A 
ATOM     24  C   LIG    1        0.953  -1.539   3.106  0.00  0.00    +0.140 A 
ATOM     25  N   LIG    1        2.007  -0.772   2.804  0.00  0.00    -0.270 NA
ATOM     26  N   LIG    1        1.777  -0.167   1.693  0.00  0.00    -0.080 NA
ENDBRANCH  21  22
ENDBRANCH   8  21
TORSDOF 5
