REMARK  Name = ZINCpe000000YB7t.0
REMARK                            x       y       z     vdW  Elec       q    Type
REMARK                         _______ _______ _______ _____ _____    ______ ____
ROOT
ATOM      1  C   LIG    1       -2.736  -2.009   1.550  0.00  0.00    +0.510 C 
ATOM      2  N   LIG    1       -1.679  -1.235   1.232  0.00  0.00    -0.730 N 
ATOM      3  H   LIG    1       -1.133  -0.847   1.933  0.00  0.00    +0.400 HD
ATOM      4  O   LIG    1       -3.419  -2.493   0.672  0.00  0.00    -0.520 OA
ENDROOT
BRANCH   1   5
ATOM      5  C   LIG    1       -3.069  -2.272   2.995  0.00  0.00    +0.070 C 
BRANCH   5   6
ATOM      6  C   LIG    1       -4.304  -3.172   3.079  0.00  0.00    +0.330 C 
BRANCH   6  11
ATOM      7  N   LIG    1       -4.708  -6.523   1.625  0.00  0.00    -0.870 N 
ATOM      8  H   LIG    1       -5.422  -7.091   1.296  0.00  0.00    +0.410 HD
ATOM      9  H   LIG    1       -3.796  -6.854   1.649  0.00  0.00    +0.390 HD
ATOM     10  C   LIG    1       -4.982  -5.274   2.050  0.00  0.00    +0.710 C 
ATOM     11  N   LIG    1       -3.991  -4.484   2.508  0.00  0.00    -0.730 N 
ATOM     12  H   LIG    1       -3.070  -4.785   2.459  0.00  0.00    +0.390 HD
ATOM     13  O   LIG    1       -6.125  -4.859   2.020  0.00  0.00    -0.590 OA
ENDBRANCH   6  11
BRANCH   6  14
ATOM     14  C   LIG    1       -4.710  -3.335   4.521  0.00  0.00    -0.100 A 
ATOM     15  C   LIG    1       -3.975  -4.154   5.357  0.00  0.00    +0.020 A 
ATOM     16  C   LIG    1       -4.345  -4.301   6.681  0.00  0.00    +0.000 A 
ATOM     17  C   LIG    1       -5.455  -3.635   7.166  0.00  0.00    +0.000 A 
ATOM     18  C   LIG    1       -6.193  -2.820   6.328  0.00  0.00    +0.000 A 
ATOM     19  C   LIG    1       -5.821  -2.671   5.005  0.00  0.00    +0.020 A 
ENDBRANCH   6  14
ENDBRANCH   5   6
ENDBRANCH   1   5
BRANCH   2  20
ATOM     20  C   LIG    1       -1.355  -0.979  -0.174  0.00  0.00    +0.370 C 
BRANCH  20  21
ATOM     21  C   LIG    1       -0.139  -0.092  -0.256  0.00  0.00    -0.170 A 
ATOM     22  C   LIG    1        1.122  -0.521  -0.311  0.00  0.00    +0.010 A 
ATOM     23  C   LIG    1        2.076   0.480  -0.383  0.00  0.00    +0.170 A 
ATOM     24  C   LIG    1        1.589   1.721  -0.386  0.00  0.00    -0.800 A 
ATOM     25  S   LIG    1       -0.167   1.666  -0.295  0.00  0.00    +0.250 S 
BRANCH  24  26
ATOM     26  S   LIG    1        2.556   3.192  -0.470  0.00  0.00    +2.730 S 
ATOM     27  O   LIG    1        3.847   2.851   0.016  0.00  0.00    -0.950 OA
ATOM     28  O   LIG    1        1.761   4.227   0.092  0.00  0.00    -0.960 OA
BRANCH  26  29
ATOM     29  N   LIG    1        2.743   3.564  -2.073  0.00  0.00    -1.250 NA
ATOM     30  H   LIG    1        2.756   2.858  -2.737  0.00  0.00    +0.420 HD
ATOM     31  H   LIG    1        2.840   4.490  -2.347  0.00  0.00    +0.420 HD
ENDBRANCH  26  29
ENDBRANCH  24  26
ENDBRANCH  20  21
ENDBRANCH   2  20
TORSDOF 8
