REMARK  Name = ZINCrD00000F5LoS.0
REMARK                            x       y       z     vdW  Elec       q    Type
REMARK                         _______ _______ _______ _____ _____    ______ ____
ROOT
ATOM      1  C   LIG    1       -2.479  -2.829  -0.206  0.00  0.00    +0.100 C 
ENDROOT
BRANCH   1   4
ATOM      2  N   LIG    1       -1.201  -0.722   0.009  0.00  0.00    -0.650 N 
ATOM      3  H   LIG    1       -2.045  -0.254   0.100  0.00  0.00    +0.420 HD
ATOM      4  C   LIG    1       -1.184  -2.066  -0.100  0.00  0.00    +0.540 C 
ATOM      5  O   LIG    1       -0.127  -2.660  -0.113  0.00  0.00    -0.500 OA
BRANCH   2  10
ATOM      6  C   LIG    1        2.309   0.177  -0.646  0.00  0.00    +0.120 A 
ATOM      7  C   LIG    1        2.378   1.424  -0.044  0.00  0.00    -0.060 A 
ATOM      8  C   LIG    1        1.264   1.959   0.575  0.00  0.00    -0.010 A 
ATOM      9  C   LIG    1        0.074   1.250   0.595  0.00  0.00    +0.060 A 
ATOM     10  C   LIG    1        0.001  -0.003  -0.009  0.00  0.00    +0.160 A 
ATOM     11  C   LIG    1        1.121  -0.537  -0.629  0.00  0.00    +0.030 A 
BRANCH   6  13
ATOM     12  C   LIG    1        4.598   0.444  -1.234  0.00  0.00    +0.250 C 
ATOM     13  O   LIG    1        3.407  -0.346  -1.254  0.00  0.00    -0.310 OA
ENDBRANCH   6  13
BRANCH   9  14
ATOM     14  O   LIG    1       -1.024   1.779   1.200  0.00  0.00    -0.320 OA
ATOM     15  C   LIG    1       -0.876   3.068   1.799  0.00  0.00    +0.250 C 
ENDBRANCH   9  14
ENDBRANCH   2  10
ENDBRANCH   1   4
BRANCH   1  16
ATOM     16  S   LIG    1       -2.126  -4.603  -0.339  0.00  0.00    +0.120 S 
BRANCH  16  17
ATOM     17  C   LIG    1       -3.732  -5.320  -0.451  0.00  0.00    +0.200 A 
ATOM     18  N   LIG    1       -4.865  -4.654  -0.429  0.00  0.00    -0.320 NA
ATOM     19  N   LIG    1       -5.899  -5.597  -0.546  0.00  0.00    -0.470 N 
ATOM     20  H   LIG    1       -6.852  -5.416  -0.562  0.00  0.00    +0.440 HD
ATOM     21  C   LIG    1       -5.297  -6.816  -0.625  0.00  0.00    +0.330 A 
ATOM     22  N   LIG    1       -3.990  -6.623  -0.566  0.00  0.00    -0.510 NA
BRANCH  21  23
ATOM     23  C   LIG    1       -5.975  -8.108  -0.754  0.00  0.00    +0.030 C 
ATOM     24  C   LIG    1       -5.252  -9.247  -0.823  0.00  0.00    +0.170 C 
BRANCH  24  25
ATOM     25  C   LIG    1       -5.929 -10.537  -0.951  0.00  0.00    -0.010 A 
ATOM     26  C   LIG    1       -5.321 -11.759  -1.031  0.00  0.00    +0.000 A 
ATOM     27  C   LIG    1       -6.347 -12.714  -1.143  0.00  0.00    -0.070 A 
ATOM     28  C   LIG    1       -7.518 -12.043  -1.127  0.00  0.00    +0.190 A 
ATOM     29  O   LIG    1       -7.262 -10.730  -1.006  0.00  0.00    -0.170 OA
ENDBRANCH  24  25
ENDBRANCH  21  23
ENDBRANCH  16  17
ENDBRANCH   1  16
TORSDOF 8
