REMARK  Name = ZINCrD00000F5LoS.1
REMARK                            x       y       z     vdW  Elec       q    Type
REMARK                         _______ _______ _______ _____ _____    ______ ____
ROOT
ATOM      1  C   LIG    1       -2.479  -2.829  -0.206  0.00  0.00    +0.120 C 
ENDROOT
BRANCH   1   4
ATOM      2  N   LIG    1       -1.201  -0.722   0.009  0.00  0.00    -0.650 N 
ATOM      3  H   LIG    1       -2.045  -0.254   0.100  0.00  0.00    +0.420 HD
ATOM      4  C   LIG    1       -1.184  -2.066  -0.100  0.00  0.00    +0.530 C 
ATOM      5  O   LIG    1       -0.127  -2.660  -0.113  0.00  0.00    -0.500 OA
BRANCH   2  10
ATOM      6  C   LIG    1        2.309   0.177  -0.646  0.00  0.00    +0.120 A 
ATOM      7  C   LIG    1        2.378   1.424  -0.044  0.00  0.00    -0.060 A 
ATOM      8  C   LIG    1        1.264   1.959   0.575  0.00  0.00    -0.010 A 
ATOM      9  C   LIG    1        0.074   1.250   0.595  0.00  0.00    +0.070 A 
ATOM     10  C   LIG    1        0.001  -0.003  -0.009  0.00  0.00    +0.160 A 
ATOM     11  C   LIG    1        1.121  -0.537  -0.629  0.00  0.00    +0.030 A 
BRANCH   6  13
ATOM     12  C   LIG    1        4.598   0.444  -1.234  0.00  0.00    +0.250 C 
ATOM     13  O   LIG    1        3.407  -0.346  -1.254  0.00  0.00    -0.310 OA
ENDBRANCH   6  13
BRANCH   9  14
ATOM     14  O   LIG    1       -1.024   1.779   1.200  0.00  0.00    -0.320 OA
ATOM     15  C   LIG    1       -0.876   3.068   1.799  0.00  0.00    +0.250 C 
ENDBRANCH   9  14
ENDBRANCH   2  10
ENDBRANCH   1   4
BRANCH   1  16
ATOM     16  S   LIG    1       -2.127  -4.599  -0.338  0.00  0.00    +0.100 S 
BRANCH  16  17
ATOM     17  C   LIG    1       -3.769  -5.231  -0.445  0.00  0.00    +0.250 A 
ATOM     18  N   LIG    1       -4.872  -4.517  -0.424  0.00  0.00    -0.530 NA
ATOM     19  C   LIG    1       -5.938  -5.330  -0.527  0.00  0.00    +0.270 A 
ATOM     20  N   LIG    1       -5.514  -6.575  -0.614  0.00  0.00    -0.290 NA
ATOM     21  N   LIG    1       -4.111  -6.533  -0.568  0.00  0.00    -0.460 N 
ATOM     22  H   LIG    1       -3.507  -7.290  -0.614  0.00  0.00    +0.450 HD
BRANCH  19  23
ATOM     23  C   LIG    1       -7.346  -4.901  -0.540  0.00  0.00    +0.090 C 
ATOM     24  C   LIG    1       -8.328  -5.816  -0.648  0.00  0.00    +0.120 C 
BRANCH  24  25
ATOM     25  C   LIG    1       -9.729  -5.389  -0.661  0.00  0.00    +0.000 A 
ATOM     26  C   LIG    1      -10.817  -6.208  -0.765  0.00  0.00    -0.030 A 
ATOM     27  C   LIG    1      -11.953  -5.378  -0.735  0.00  0.00    -0.070 A 
ATOM     28  C   LIG    1      -11.513  -4.109  -0.616  0.00  0.00    +0.180 A 
ATOM     29  O   LIG    1      -10.171  -4.119  -0.566  0.00  0.00    -0.170 OA
ENDBRANCH  24  25
ENDBRANCH  19  23
ENDBRANCH  16  17
ENDBRANCH   1  16
TORSDOF 8
