REMARK  Name = ZINCrD000000Amex.0
REMARK                            x       y       z     vdW  Elec       q    Type
REMARK                         _______ _______ _______ _____ _____    ______ ____
ROOT
ATOM      1  N   LIG    1       -6.021   2.130   0.355  0.00  0.00    -0.520 NA
ATOM      2  C   LIG    1       -5.958   2.887   1.613  0.00  0.00    +0.210 C 
ATOM      3  C   LIG    1       -7.100   3.905   1.650  0.00  0.00    +0.220 C 
ATOM      4  N   LIG    1       -8.384   3.202   1.526  0.00  0.00    -0.450 N 
ATOM      5  C   LIG    1       -8.448   2.445   0.268  0.00  0.00    +0.240 C 
ATOM      6  C   LIG    1       -7.306   1.427   0.231  0.00  0.00    +0.200 C 
ENDROOT
BRANCH   4   7
ATOM      7  C   LIG    1       -9.442   4.082   1.628  0.00  0.00    +0.300 A 
ATOM      8  N   LIG    1      -10.364   4.231   0.739  0.00  0.00    -0.510 NA
ATOM      9  C   LIG    1      -11.337   5.131   0.983  0.00  0.00    +0.100 A 
ATOM     10  C   LIG    1      -12.445   5.473   0.181  0.00  0.00    +0.060 A 
ATOM     11  C   LIG    1      -13.337   6.429   0.598  0.00  0.00    +0.040 A 
ATOM     12  C   LIG    1      -13.163   7.074   1.814  0.00  0.00    +0.030 A 
ATOM     13  C   LIG    1      -12.088   6.755   2.614  0.00  0.00    +0.060 A 
ATOM     14  C   LIG    1      -11.174   5.788   2.207  0.00  0.00    -0.180 A 
ATOM     15  S   LIG    1       -9.721   5.165   2.984  0.00  0.00    +0.070 S 
ENDBRANCH   4   7
BRANCH   1  16
ATOM     16  C   LIG    1       -4.895   1.193   0.247  0.00  0.00    +0.220 C 
BRANCH  16  18
ATOM     17  O   LIG    1       -3.626   3.180   0.138  0.00  0.00    -0.500 OA
ATOM     18  C   LIG    1       -3.607   1.967   0.132  0.00  0.00    +0.520 C 
ATOM     19  N   LIG    1       -2.435   1.312   0.021  0.00  0.00    -0.670 N 
ATOM     20  H   LIG    1       -2.425   0.344  -0.050  0.00  0.00    +0.420 HD
BRANCH  19  21
ATOM     21  C   LIG    1       -1.230   2.027   0.007  0.00  0.00    +0.110 A 
ATOM     22  C   LIG    1       -1.172   3.278  -0.591  0.00  0.00    +0.090 A 
ATOM     23  C   LIG    1        0.018   3.981  -0.608  0.00  0.00    +0.010 A 
ATOM     24  C   LIG    1        1.152   3.440  -0.025  0.00  0.00    +0.120 A 
ATOM     25  C   LIG    1        1.096   2.194   0.578  0.00  0.00    -0.020 A 
ATOM     26  F   LIG    1        2.313   4.129  -0.043  0.00  0.00    -0.130 F 
ATOM     27  C   LIG    1       -0.092   1.488   0.597  0.00  0.00    +0.100 A 
ATOM     28  F   LIG    1       -0.147   0.272   1.184  0.00  0.00    -0.130 F 
ENDBRANCH  19  21
ENDBRANCH  16  18
ENDBRANCH   1  16
TORSDOF 4
