REMARK  Name = ZINCkj000005iqdJ.0
REMARK                            x       y       z     vdW  Elec       q    Type
REMARK                         _______ _______ _______ _____ _____    ______ ____
ROOT
ATOM      1  C   LIG    1        4.846   0.188  -0.435  0.00  0.00    +0.170 C 
ATOM      2  C   LIG    1        3.774  -0.449   0.450  0.00  0.00    +0.150 C 
ATOM      3  C   LIG    1        2.520   0.388   0.415  0.00  0.00    -0.090 A 
ATOM      4  C   LIG    1        1.334  -0.172   0.862  0.00  0.00    +0.040 A 
ATOM      5  C   LIG    1        0.167   0.567   0.850  0.00  0.00    +0.050 A 
ATOM      6  C   LIG    1        0.183   1.870   0.391  0.00  0.00    +0.040 A 
ATOM      7  C   LIG    1        1.364   2.428  -0.056  0.00  0.00    +0.050 A 
ATOM      8  C   LIG    1        2.537   1.688  -0.046  0.00  0.00    -0.140 A 
ATOM      9  C   LIG    1        3.801   2.335  -0.546  0.00  0.00    +0.340 C 
ATOM     10  N   LIG    1        4.978   1.605  -0.066  0.00  0.00    -0.490 N 
ATOM     11  H   LIG    1        5.042   1.690   0.938  0.00  0.00    +0.440 HD
ATOM     12  H   LIG    1        5.809   1.989  -0.491  0.00  0.00    +0.440 HD
ENDROOT
BRANCH   1  18
ATOM     13  C   LIG    1        6.131  -2.619  -3.057  0.00  0.00    +0.150 C 
ATOM     14  C   LIG    1        7.329  -3.525  -2.762  0.00  0.00    +0.010 C 
ATOM     15  C   LIG    1        8.314  -2.791  -1.850  0.00  0.00    +0.030 C 
ATOM     16  C   LIG    1        7.624  -2.455  -0.524  0.00  0.00    +0.290 C 
ATOM     17  N   LIG    1        6.392  -1.707  -0.808  0.00  0.00    -0.580 N 
ATOM     18  C   LIG    1        6.162  -0.516  -0.221  0.00  0.00    +0.510 C 
ATOM     19  O   LIG    1        7.013  -0.010   0.479  0.00  0.00    -0.520 OA
ATOM     20  C   LIG    1        5.414  -2.284  -1.740  0.00  0.00    +0.290 C 
BRANCH  13  22
ATOM     21  C   LIG    1        5.488  -3.071  -5.321  0.00  0.00    +0.220 C 
ATOM     22  O   LIG    1        5.227  -3.293  -3.934  0.00  0.00    -0.380 OA
ENDBRANCH  13  22
ENDBRANCH   1  18
TORSDOF 2
