REMARK  Name = ZINCrH000004nX4k.0
REMARK                            x       y       z     vdW  Elec       q    Type
REMARK                         _______ _______ _______ _____ _____    ______ ____
ROOT
ATOM      1  C   LIG    1        4.298   0.022   1.840  0.00  0.00    +0.180 C 
ENDROOT
BRANCH   1   2
ATOM      2  N   LIG    1        4.083   0.126   0.390  0.00  0.00    -0.520 NA
ATOM      3  C   LIG    1        5.364   0.206  -0.328  0.00  0.00    +0.220 C 
ATOM      4  C   LIG    1        6.259  -0.959   0.113  0.00  0.00    +0.070 C 
ATOM      5  C   LIG    1        5.444  -2.233   0.037  0.00  0.00    -0.190 A 
ATOM      6  C   LIG    1        4.100  -2.262  -0.060  0.00  0.00    -0.130 A 
ATOM      7  C   LIG    1        3.573  -3.547  -0.117  0.00  0.00    +0.020 A 
ATOM      8  C   LIG    1        4.461  -4.537  -0.067  0.00  0.00    -0.040 A 
ATOM      9  S   LIG    1        6.082  -3.869   0.060  0.00  0.00    +0.110 S 
ATOM     10  C   LIG    1        3.264  -0.990  -0.102  0.00  0.00    +0.300 C 
ENDBRANCH   1   2
BRANCH   1  14
ATOM     11  C   LIG    1        0.635  -1.076   3.748  0.00  0.00    -0.080 A 
ATOM     12  C   LIG    1        1.823  -1.696   4.114  0.00  0.00    +0.030 A 
ATOM     13  C   LIG    1        3.005  -1.339   3.495  0.00  0.00    +0.030 A 
ATOM     14  C   LIG    1        3.006  -0.365   2.512  0.00  0.00    -0.090 A 
ATOM     15  C   LIG    1        1.826   0.258   2.150  0.00  0.00    +0.070 A 
ATOM     16  C   LIG    1        0.640  -0.098   2.761  0.00  0.00    -0.010 A 
BRANCH  11  18
ATOM     17  C   LIG    1       -2.095  -0.458   3.724  0.00  0.00    +0.140 C 
ATOM     18  S   LIG    1       -0.875  -1.528   4.536  0.00  0.00    -0.120 S 
ENDBRANCH  11  18
ENDBRANCH   1  14
BRANCH   1  19
ATOM     19  C   LIG    1        4.771   1.372   2.383  0.00  0.00    +0.300 C 
BRANCH  19  20
ATOM     20  N   LIG    1        6.125   1.647   1.895  0.00  0.00    -0.730 N 
ATOM     21  H   LIG    1        6.585   0.993   1.346  0.00  0.00    +0.390 HD
ATOM     22  C   LIG    1        6.731   2.809   2.208  0.00  0.00    +0.590 C 
ATOM     23  O   LIG    1        6.154   3.630   2.896  0.00  0.00    -0.510 OA
BRANCH  22  24
ATOM     24  C   LIG    1        8.091   3.086   1.718  0.00  0.00    -0.050 A 
ATOM     25  C   LIG    1        8.842   4.225   1.951  0.00  0.00    +0.020 A 
ATOM     26  C   LIG    1       10.050   4.014   1.282  0.00  0.00    +0.190 A 
ATOM     27  N   LIG    1        9.991   2.840   0.708  0.00  0.00    -0.270 NA
ATOM     28  N   LIG    1        8.866   2.268   0.946  0.00  0.00    -0.380 N 
ATOM     29  H   LIG    1        8.605   1.391   0.624  0.00  0.00    +0.440 HD
ENDBRANCH  22  24
ENDBRANCH  19  20
ENDBRANCH   1  19
TORSDOF 6
