REMARK  Name = ZINCrD00000eJ0TI.0
REMARK                            x       y       z     vdW  Elec       q    Type
REMARK                         _______ _______ _______ _____ _____    ______ ____
ROOT
ATOM      1  N   LIG    1       -1.640  -1.854   0.008  0.00  0.00    -0.720 N 
ATOM      2  H   LIG    1       -0.894  -2.474  -0.003  0.00  0.00    +0.400 HD
ATOM      3  C   LIG    1       -1.412  -0.526   0.013  0.00  0.00    +0.530 C 
ATOM      4  O   LIG    1       -2.344   0.250   0.026  0.00  0.00    -0.520 OA
ENDROOT
BRANCH   1   5
ATOM      5  C   LIG    1       -3.014  -2.361   0.018  0.00  0.00    +0.290 C 
BRANCH   5   7
ATOM      6  C   LIG    1       -2.365  -4.400   1.308  0.00  0.00    +0.030 C 
ATOM      7  C   LIG    1       -2.994  -3.891   0.010  0.00  0.00    -0.030 C 
BRANCH   7   8
ATOM      8  C   LIG    1       -4.425  -4.420  -0.105  0.00  0.00    +0.280 C 
BRANCH   8   9
ATOM      9  N   LIG    1       -4.397  -5.879  -0.233  0.00  0.00    -0.730 N 
ATOM     10  H   LIG    1       -3.549  -6.350  -0.235  0.00  0.00    +0.400 HD
ATOM     11  C   LIG    1       -5.550  -6.567  -0.349  0.00  0.00    +0.530 C 
ATOM     12  O   LIG    1       -6.611  -5.978  -0.347  0.00  0.00    -0.530 OA
BRANCH  11  13
ATOM     13  C   LIG    1       -5.522  -8.068  -0.481  0.00  0.00    +0.000 C 
ATOM     14  C   LIG    1       -5.221  -8.555  -1.908  0.00  0.00    +0.070 C 
ATOM     15  C   LIG    1       -6.282  -9.646  -1.673  0.00  0.00    +0.260 C 
ATOM     16  F   LIG    1       -7.095  -9.889  -2.785  0.00  0.00    -0.180 F 
ATOM     17  F   LIG    1       -5.763 -10.818  -1.112  0.00  0.00    -0.180 F 
ATOM     18  C   LIG    1       -6.916  -8.698  -0.641  0.00  0.00    +0.090 C 
ENDBRANCH  11  13
ENDBRANCH   8   9
ENDBRANCH   7   8
ENDBRANCH   5   7
ENDBRANCH   1   5
BRANCH   3  19
ATOM     19  C   LIG    1        0.002  -0.004   0.002  0.00  0.00    +0.110 C 
BRANCH  19  20
ATOM     20  S   LIG    1       -0.022   1.806   0.012  0.00  0.00    +0.090 S 
BRANCH  20  21
ATOM     21  C   LIG    1        1.708   2.135  -0.003  0.00  0.00    +0.070 A 
ATOM     22  N   LIG    1        2.630   1.233  -0.011  0.00  0.00    -0.470 NA
ATOM     23  C   LIG    1        3.914   1.643  -0.026  0.00  0.00    +0.090 A 
ATOM     24  C   LIG    1        5.089   0.864  -0.041  0.00  0.00    +0.060 A 
ATOM     25  C   LIG    1        6.323   1.466  -0.049  0.00  0.00    +0.040 A 
ATOM     26  C   LIG    1        6.433   2.848  -0.043  0.00  0.00    +0.040 A 
ATOM     27  C   LIG    1        5.298   3.630  -0.028  0.00  0.00    +0.060 A 
ATOM     28  C   LIG    1        4.039   3.036  -0.020  0.00  0.00    -0.180 A 
ATOM     29  S   LIG    1        2.425   3.741  -0.001  0.00  0.00    +0.110 S 
ENDBRANCH  20  21
ENDBRANCH  19  20
ENDBRANCH   3  19
TORSDOF 8
