REMARK  Name = ZINCvU00000008th.0
REMARK                            x       y       z     vdW  Elec       q    Type
REMARK                         _______ _______ _______ _____ _____    ______ ____
ROOT
ATOM      1  C   LIG    1       -5.055   1.123   0.214  0.00  0.00    +0.280 C 
ATOM      2  C   LIG    1       -5.984   1.702  -0.855  0.00  0.00    +0.060 C 
ENDROOT
BRANCH   1   6
ATOM      3  C   LIG    1       -6.616   2.018   4.093  0.00  0.00    -0.030 A 
ATOM      4  C   LIG    1       -6.717   0.726   3.579  0.00  0.00    +0.010 A 
ATOM      5  C   LIG    1       -6.211   0.443   2.327  0.00  0.00    +0.020 A 
ATOM      6  C   LIG    1       -5.605   1.438   1.581  0.00  0.00    -0.090 A 
ATOM      7  C   LIG    1       -5.497   2.721   2.089  0.00  0.00    +0.010 A 
ATOM      8  C   LIG    1       -6.004   3.017   3.338  0.00  0.00    +0.030 A 
BRANCH   3  14
ATOM      9  C   LIG    1       -6.365   2.999   6.376  0.00  0.00    +0.140 A 
ATOM     10  C   LIG    1       -6.879   3.285   7.631  0.00  0.00    -0.080 A 
ATOM     11  C   LIG    1       -8.169   2.908   7.954  0.00  0.00    +0.050 A 
ATOM     12  C   LIG    1       -8.954   2.243   7.029  0.00  0.00    -0.030 A 
ATOM     13  C   LIG    1       -8.457   1.958   5.772  0.00  0.00    +0.060 A 
ATOM     14  C   LIG    1       -7.157   2.328   5.439  0.00  0.00    -0.080 A 
BRANCH   9  16
ATOM     15  C   LIG    1       -4.349   4.052   7.066  0.00  0.00    +0.250 C 
ATOM     16  O   LIG    1       -5.098   3.370   6.058  0.00  0.00    -0.310 OA
ENDBRANCH   9  16
ENDBRANCH   3  14
ENDBRANCH   1   6
BRANCH   1  17
ATOM     17  N   LIG    1       -3.722   1.715   0.076  0.00  0.00    -0.610 N 
ATOM     18  C   LIG    1       -2.705   1.270   0.840  0.00  0.00    +0.560 C 
ATOM     19  O   LIG    1       -2.872   0.323   1.583  0.00  0.00    -0.520 OA
ATOM     20  C   LIG    1       -3.495   2.790  -0.893  0.00  0.00    +0.280 C 
BRANCH  18  21
ATOM     21  C   LIG    1       -1.387   1.933   0.773  0.00  0.00    -0.140 A 
ATOM     22  C   LIG    1       -0.863   2.328  -0.460  0.00  0.00    +0.090 A 
ATOM     23  C   LIG    1        0.364   2.951  -0.518  0.00  0.00    +0.000 A 
ATOM     24  C   LIG    1        1.083   3.182   0.649  0.00  0.00    +0.160 A 
ATOM     25  C   LIG    1        0.568   2.785   1.878  0.00  0.00    +0.000 A 
ATOM     26  C   LIG    1       -0.659   2.162   1.943  0.00  0.00    +0.100 A 
BRANCH  24  27
ATOM     27  N   LIG    1        2.329   3.815   0.587  0.00  0.00    -0.420 N 
ATOM     28  C   LIG    1        3.146   4.114   1.647  0.00  0.00    +0.130 A 
ATOM     29  C   LIG    1        4.239   4.715   1.141  0.00  0.00    +0.160 A 
ATOM     30  N   LIG    1        4.095   4.792  -0.191  0.00  0.00    -0.480 NA
ATOM     31  C   LIG    1        2.956   4.256  -0.535  0.00  0.00    +0.400 A 
ENDBRANCH  24  27
ENDBRANCH  18  21
ENDBRANCH   1  17
TORSDOF 6
