REMARK  Name = ZINCvU00000006sM.0
REMARK                            x       y       z     vdW  Elec       q    Type
REMARK                         _______ _______ _______ _____ _____    ______ ____
ROOT
ATOM      1  C   LIG    1        6.394   3.992  -0.029  0.00  0.00    +0.150 A 
ATOM      2  N   LIG    1        5.588   5.020   0.114  0.00  0.00    -0.290 NA
ATOM      3  N   LIG    1        6.257   6.116   0.062  0.00  0.00    -0.250 NA
ATOM      4  C   LIG    1        7.530   5.856  -0.127  0.00  0.00    +0.220 A 
ATOM      5  N   LIG    1        7.657   4.487  -0.191  0.00  0.00    -0.450 N 
ENDROOT
BRANCH   4   6
ATOM      6  C   LIG    1        8.621   6.846  -0.247  0.00  0.00    -0.060 A 
ATOM      7  C   LIG    1        9.797   6.686   0.485  0.00  0.00    +0.060 A 
ATOM      8  C   LIG    1       10.814   7.610   0.364  0.00  0.00    +0.010 A 
ATOM      9  C   LIG    1       10.666   8.702  -0.473  0.00  0.00    +0.070 A 
ATOM     10  C   LIG    1        9.500   8.872  -1.198  0.00  0.00    +0.000 A 
ATOM     11  C   LIG    1        8.476   7.951  -1.092  0.00  0.00    +0.140 A 
ATOM     12  F   LIG    1        7.338   8.118  -1.800  0.00  0.00    -0.120 F 
ENDBRANCH   4   6
BRANCH   5  13
ATOM     13  C   LIG    1        8.890   3.721  -0.391  0.00  0.00    +0.240 C 
ATOM     14  C   LIG    1        8.763   2.871  -1.657  0.00  0.00    +0.010 C 
ATOM     15  C   LIG    1       10.050   2.071  -1.865  0.00  0.00    +0.040 C 
ATOM     16  C   LIG    1       10.284   1.159  -0.659  0.00  0.00    +0.010 C 
ATOM     17  C   LIG    1       10.412   2.009   0.607  0.00  0.00    +0.040 C 
ATOM     18  C   LIG    1        9.124   2.809   0.815  0.00  0.00    +0.010 C 
ENDBRANCH   5  13
BRANCH   1  19
ATOM     19  S   LIG    1        5.932   2.292  -0.022  0.00  0.00    +0.090 S 
BRANCH  19  20
ATOM     20  C   LIG    1        4.147   2.453   0.236  0.00  0.00    +0.100 C 
BRANCH  20  22
ATOM     21  O   LIG    1        4.212   0.095   0.146  0.00  0.00    -0.500 OA
ATOM     22  C   LIG    1        3.520   1.083   0.278  0.00  0.00    +0.550 C 
ATOM     23  N   LIG    1        2.191   0.956   0.462  0.00  0.00    -0.550 N 
ATOM     24  C   LIG    1        1.470  -0.318   0.520  0.00  0.00    +0.290 C 
ATOM     25  C   LIG    1       -0.003   0.062   0.743  0.00  0.00    +0.090 C 
ATOM     26  C   LIG    1       -0.002   1.574   0.795  0.00  0.00    -0.130 A 
ATOM     27  C   LIG    1       -1.033   2.474   0.978  0.00  0.00    +0.060 A 
ATOM     28  C   LIG    1       -0.776   3.833   0.985  0.00  0.00    -0.010 A 
ATOM     29  C   LIG    1        0.519   4.288   0.817  0.00  0.00    +0.050 A 
ATOM     30  C   LIG    1        1.552   3.393   0.638  0.00  0.00    -0.020 A 
ATOM     31  C   LIG    1        1.299   2.020   0.625  0.00  0.00    +0.130 A 
ENDBRANCH  20  22
ENDBRANCH  19  20
ENDBRANCH   1  19
TORSDOF 5
