REMARK  Name = ZINCrD000000AewR.0
REMARK                            x       y       z     vdW  Elec       q    Type
REMARK                         _______ _______ _______ _____ _____    ______ ____
ROOT
ATOM      1  O   LIG    1       -1.714   2.256   1.150  0.00  0.00    -0.460 OA
ATOM      2  C   LIG    1       -0.718   1.572   1.248  0.00  0.00    +0.520 C 
ATOM      3  N   LIG    1       -0.242   1.246   2.466  0.00  0.00    -0.630 N 
ATOM      4  H   LIG    1        0.555   0.699   2.544  0.00  0.00    +0.430 HD
ENDROOT
BRANCH   3   5
ATOM      5  C   LIG    1       -0.890   1.693   3.606  0.00  0.00    +0.350 A 
ATOM      6  N   LIG    1       -1.948   2.426   3.610  0.00  0.00    -0.470 NA
ATOM      7  C   LIG    1       -2.467   2.779   4.803  0.00  0.00    +0.130 A 
ATOM      8  C   LIG    1       -3.608   3.565   5.071  0.00  0.00    +0.080 A 
ATOM      9  C   LIG    1       -3.985   3.827   6.366  0.00  0.00    +0.100 A 
ATOM     10  C   LIG    1       -3.248   3.321   7.432  0.00  0.00    +0.080 A 
ATOM     11  C   LIG    1       -2.130   2.551   7.191  0.00  0.00    +0.090 A 
ATOM     12  F   LIG    1       -3.627   3.585   8.701  0.00  0.00    -0.120 F 
ATOM     13  F   LIG    1       -5.079   4.581   6.606  0.00  0.00    -0.120 F 
ATOM     14  C   LIG    1       -1.736   2.278   5.883  0.00  0.00    -0.170 A 
ATOM     15  S   LIG    1       -0.381   1.345   5.252  0.00  0.00    +0.100 S 
ENDBRANCH   3   5
BRANCH   2  16
ATOM     16  C   LIG    1       -0.013   1.086   0.008  0.00  0.00    +0.070 C 
BRANCH  16  17
ATOM     17  C   LIG    1       -0.753   1.593  -1.232  0.00  0.00    +0.330 C 
BRANCH  17  18
ATOM     18  N   LIG    1       -0.067   1.120  -2.437  0.00  0.00    -0.550 N 
ATOM     19  C   LIG    1        0.909   1.861  -3.005  0.00  0.00    +0.490 C 
ATOM     20  C   LIG    1        1.581   1.374  -4.264  0.00  0.00    +0.300 C 
ATOM     21  O   LIG    1        1.601  -0.056  -4.279  0.00  0.00    -0.300 OA
ATOM     22  C   LIG    1        0.441  -0.687  -3.953  0.00  0.00    +0.080 A 
ATOM     23  C   LIG    1        0.108  -1.896  -4.537  0.00  0.00    +0.030 A 
ATOM     24  C   LIG    1       -1.077  -2.523  -4.195  0.00  0.00    +0.030 A 
ATOM     25  C   LIG    1       -1.929  -1.946  -3.271  0.00  0.00    +0.020 A 
ATOM     26  C   LIG    1       -1.602  -0.738  -2.683  0.00  0.00    +0.000 A 
ATOM     27  O   LIG    1        1.247   2.912  -2.503  0.00  0.00    -0.500 OA
ATOM     28  C   LIG    1       -0.418  -0.105  -3.021  0.00  0.00    +0.090 A 
ENDBRANCH  17  18
ENDBRANCH  16  17
ENDBRANCH   2  16
TORSDOF 4
