REMARK  Name = ZINCrH000004nfV0.0
REMARK                            x       y       z     vdW  Elec       q    Type
REMARK                         _______ _______ _______ _____ _____    ______ ____
ROOT
ATOM      1  C   LIG    1       -3.236  -0.841   1.477  0.00  0.00    +0.610 C 
ATOM      2  N   LIG    1       -2.245  -0.124   0.911  0.00  0.00    -0.710 N 
ATOM      3  H   LIG    1       -2.162   0.823   1.101  0.00  0.00    +0.410 HD
ATOM      4  O   LIG    1       -3.340  -2.029   1.240  0.00  0.00    -0.510 OA
ENDROOT
BRANCH   1  10
ATOM      5  C   LIG    1       -7.396   1.411   5.252  0.00  0.00    +0.110 A 
ATOM      6  C   LIG    1       -6.683   2.584   5.021  0.00  0.00    -0.020 A 
ATOM      7  C   LIG    1       -5.587   2.588   4.186  0.00  0.00    +0.070 A 
ATOM      8  C   LIG    1       -5.181   1.414   3.563  0.00  0.00    +0.040 A 
ATOM      9  O   LIG    1       -4.171   1.120   2.720  0.00  0.00    -0.180 OA
ATOM     10  C   LIG    1       -4.193  -0.185   2.381  0.00  0.00    -0.040 A 
ATOM     11  C   LIG    1       -5.228  -0.805   3.005  0.00  0.00    -0.070 A 
ATOM     12  C   LIG    1       -5.606  -2.260   2.905  0.00  0.00    +0.140 C 
ATOM     13  C   LIG    1       -5.900   0.227   3.794  0.00  0.00    -0.100 A 
ATOM     14  C   LIG    1       -7.010   0.233   4.643  0.00  0.00    +0.040 A 
BRANCH   5  16
ATOM     15  C   LIG    1       -8.818   2.676   6.676  0.00  0.00    +0.250 C 
ATOM     16  O   LIG    1       -8.475   1.424   6.079  0.00  0.00    -0.310 OA
ENDBRANCH   5  16
ENDBRANCH   1  10
BRANCH   2  17
ATOM     17  C   LIG    1       -1.291  -0.777   0.011  0.00  0.00    +0.290 C 
ATOM     18  C   LIG    1       -1.872  -0.816  -1.404  0.00  0.00    +0.040 C 
BRANCH  17  19
ATOM     19  C   LIG    1        0.002  -0.004   0.002  0.00  0.00    -0.110 A 
ATOM     20  C   LIG    1       -0.017   1.378   0.010  0.00  0.00    +0.050 A 
ATOM     21  C   LIG    1        1.164   2.092   0.002  0.00  0.00    +0.000 A 
ATOM     22  C   LIG    1        2.386   1.423  -0.013  0.00  0.00    +0.150 A 
ATOM     23  N   LIG    1        3.693   1.911  -0.023  0.00  0.00    -0.660 N 
ATOM     24  H   LIG    1        3.918   2.854  -0.020  0.00  0.00    +0.410 HD
ATOM     25  C   LIG    1        4.604   0.923  -0.037  0.00  0.00    +0.530 C 
ATOM     26  C   LIG    1        3.844  -0.386  -0.037  0.00  0.00    +0.140 C 
ATOM     27  O   LIG    1        5.810   1.055  -0.048  0.00  0.00    -0.500 OA
ATOM     28  C   LIG    1        2.392   0.034  -0.021  0.00  0.00    -0.140 A 
ATOM     29  C   LIG    1        1.212  -0.676  -0.013  0.00  0.00    +0.090 A 
ENDBRANCH  17  19
ENDBRANCH   2  17
TORSDOF 4
