REMARK  Name = ZINCnE000001PNyi.0
REMARK                            x       y       z     vdW  Elec       q    Type
REMARK                         _______ _______ _______ _____ _____    ______ ____
ROOT
ATOM      1  N   LIG    1        3.125   0.692  -1.606  0.00  0.00    -1.110 NA
ATOM      2  C   LIG    1        4.269   0.052  -1.919  0.00  0.00    +0.590 C 
ATOM      3  O   LIG    1        4.999  -0.356  -1.035  0.00  0.00    -0.610 OA
ENDROOT
BRANCH   2   4
ATOM      4  C   LIG    1        4.636  -0.152  -3.327  0.00  0.00    -0.130 A 
ATOM      5  C   LIG    1        5.747  -0.768  -3.741  0.00  0.00    +0.050 A 
ATOM      6  C   LIG    1        5.905  -0.863  -5.133  0.00  0.00    -0.080 A 
ATOM      7  C   LIG    1        6.961  -1.452  -5.869  0.00  0.00    +0.090 A 
ATOM      8  C   LIG    1        6.945  -1.443  -7.228  0.00  0.00    -0.020 A 
ATOM      9  C   LIG    1        5.892  -0.854  -7.921  0.00  0.00    +0.100 A 
ATOM     10  C   LIG    1        4.851  -0.272  -7.234  0.00  0.00    +0.030 A 
ATOM     11  F   LIG    1        5.892  -0.853  -9.272  0.00  0.00    -0.140 F 
ATOM     12  C   LIG    1        4.847  -0.270  -5.835  0.00  0.00    -0.150 A 
ATOM     13  S   LIG    1        3.677   0.385  -4.695  0.00  0.00    +0.190 S 
ENDBRANCH   2   4
BRANCH   1  14
ATOM     14  S   LIG    1        2.713   0.923  -0.019  0.00  0.00    +2.650 S 
ATOM     15  O   LIG    1        2.458  -0.366   0.521  0.00  0.00    -1.020 OA
ATOM     16  O   LIG    1        3.678   1.815   0.521  0.00  0.00    -1.020 OA
BRANCH  14  21
ATOM     17  C   LIG    1       -2.553   3.869   0.045  0.00  0.00    +0.090 C 
ATOM     18  C   LIG    1       -1.238   3.133   0.030  0.00  0.00    -0.050 A 
ATOM     19  C   LIG    1       -1.219   1.751   0.017  0.00  0.00    -0.020 A 
ATOM     20  C   LIG    1       -0.013   1.076   0.008  0.00  0.00    +0.120 A 
ATOM     21  C   LIG    1        1.175   1.783   0.000  0.00  0.00    -0.630 A 
ATOM     22  C   LIG    1        1.156   3.165   0.008  0.00  0.00    +0.120 A 
ATOM     23  C   LIG    1       -0.050   3.840   0.022  0.00  0.00    -0.020 A 
ENDBRANCH  14  21
ENDBRANCH   1  14
TORSDOF 3
