REMARK  Name = ZINCnE000004Tqpc.0
REMARK                            x       y       z     vdW  Elec       q    Type
REMARK                         _______ _______ _______ _____ _____    ______ ____
ROOT
ATOM      1  C   LIG    1       -2.048  -3.885  -2.384  0.00  0.00    +0.010 C 
ATOM      2  C   LIG    1       -0.579  -3.476  -2.432  0.00  0.00    +0.000 C 
ATOM      3  C   LIG    1        0.106  -3.922  -1.164  0.00  0.00    +0.010 C 
ATOM      4  C   LIG    1        0.057  -2.797  -0.118  0.00  0.00    +0.250 C 
ATOM      5  N   LIG    1       -1.248  -2.107  -0.099  0.00  0.00    -0.590 N 
ATOM      6  C   LIG    1       -2.506  -2.812  -0.197  0.00  0.00    +0.280 C 
ATOM      7  C   LIG    1       -1.266  -0.764   0.011  0.00  0.00    +0.550 C 
ATOM      8  O   LIG    1       -2.326  -0.175   0.093  0.00  0.00    -0.530 OA
ATOM      9  C   LIG    1       -2.921  -2.929  -1.685  0.00  0.00    +0.030 C 
ENDROOT
BRANCH   7  10
ATOM     10  C   LIG    1        0.003  -0.006   0.030  0.00  0.00    -0.080 A 
ATOM     11  C   LIG    1        0.169   1.105  -0.798  0.00  0.00    +0.070 A 
ATOM     12  C   LIG    1        1.356   1.808  -0.774  0.00  0.00    +0.070 A 
ATOM     13  C   LIG    1        2.381   1.413   0.068  0.00  0.00    -0.170 A 
ATOM     14  C   LIG    1        2.223   0.312   0.891  0.00  0.00    +0.060 A 
ATOM     15  C   LIG    1        1.041  -0.399   0.877  0.00  0.00    +0.050 A 
BRANCH  13  16
ATOM     16  C   LIG    1        3.675   2.185   0.088  0.00  0.00    +0.510 C 
ATOM     17  F   LIG    1        4.248   2.102   1.362  0.00  0.00    -0.180 F 
ATOM     18  F   LIG    1        3.423   3.526  -0.223  0.00  0.00    -0.180 F 
ATOM     19  F   LIG    1        4.555   1.645  -0.855  0.00  0.00    -0.170 F 
ENDBRANCH  13  16
ENDBRANCH   7  10
BRANCH   1  20
ATOM     20  C   LIG    1       -2.555  -4.047  -3.818  0.00  0.00    -0.080 C 
BRANCH  20  22
ATOM     21  O   LIG    1       -4.444  -4.972  -2.738  0.00  0.00    -0.690 OA
ATOM     22  C   LIG    1       -3.923  -4.678  -3.800  0.00  0.00    +0.490 C 
ATOM     23  O   LIG    1       -4.508  -4.895  -4.847  0.00  0.00    -0.710 OA
ENDBRANCH  20  22
ENDBRANCH   1  20
TORSDOF 4
