REMARK  Name = ZINCqH0000038zEy.0
REMARK                            x       y       z     vdW  Elec       q    Type
REMARK                         _______ _______ _______ _____ _____    ______ ____
ROOT
ATOM      1  C   LIG    1        1.280   1.980   0.001  0.00  0.00    +0.240 C 
ENDROOT
BRANCH   1   4
ATOM      2  N   LIG    1       -1.191   1.867   0.018  0.00  0.00    -0.730 N 
ATOM      3  H   LIG    1       -1.204   2.837   0.023  0.00  0.00    +0.400 HD
ATOM      4  C   LIG    1       -0.014   1.209   0.009  0.00  0.00    +0.510 C 
ATOM      5  O   LIG    1        0.002  -0.004   0.002  0.00  0.00    -0.500 OA
BRANCH   2   6
ATOM      6  C   LIG    1       -2.449   1.117   0.020  0.00  0.00    +0.290 C 
BRANCH   6   7
ATOM      7  C   LIG    1       -3.626   2.095   0.031  0.00  0.00    +0.080 C 
ATOM      8  C   LIG    1       -3.634   2.897  -1.272  0.00  0.00    +0.050 C 
BRANCH   7  13
ATOM      9  C   LIG    1       -7.920   0.765   2.133  0.00  0.00    +0.160 C 
ATOM     10  C   LIG    1       -6.847   0.711   1.076  0.00  0.00    +0.070 A 
ATOM     11  C   LIG    1       -6.915  -0.102   0.017  0.00  0.00    -0.080 A 
ATOM     12  S   LIG    1       -5.472   0.158  -0.960  0.00  0.00    +0.130 S 
ATOM     13  C   LIG    1       -4.916   1.327   0.156  0.00  0.00    +0.050 A 
ATOM     14  N   LIG    1       -5.765   1.462   1.119  0.00  0.00    -0.470 NA
ENDBRANCH   7  13
ENDBRANCH   6   7
ENDBRANCH   2   6
ENDBRANCH   1   4
BRANCH   1  15
ATOM     15  O   LIG    1        2.379   1.066  -0.015  0.00  0.00    -0.270 OA
BRANCH  15  16
ATOM     16  C   LIG    1        3.625   1.601  -0.024  0.00  0.00    +0.190 A 
ATOM     17  C   LIG    1        3.789   2.976  -0.018  0.00  0.00    -0.090 A 
ATOM     18  C   LIG    1        5.057   3.523  -0.026  0.00  0.00    +0.100 A 
ATOM     19  C   LIG    1        6.172   2.701  -0.041  0.00  0.00    -0.120 A 
ATOM     20  C   LIG    1        6.030   1.328  -0.047  0.00  0.00    -0.000 A 
ATOM     21  C   LIG    1        7.071   0.234  -0.064  0.00  0.00    +0.050 C 
ATOM     22  C   LIG    1        7.953   0.329   1.183  0.00  0.00    +0.050 C 
ATOM     23  C   LIG    1        6.300  -1.093  -0.065  0.00  0.00    +0.050 C 
ATOM     24  C   LIG    1        4.841  -0.707  -0.049  0.00  0.00    +0.400 C 
ATOM     25  O   LIG    1        3.902  -1.474  -0.045  0.00  0.00    -0.430 OA
ATOM     26  C   LIG    1        7.550   3.310  -0.050  0.00  0.00    +0.100 C 
ATOM     27  C   LIG    1        4.755   0.759  -0.033  0.00  0.00    -0.220 A 
ENDBRANCH  15  16
ENDBRANCH   1  15
TORSDOF 6
