REMARK  Name = ZINCrD00000hQ4JN.1
REMARK                            x       y       z     vdW  Elec       q    Type
REMARK                         _______ _______ _______ _____ _____    ______ ____
ROOT
ATOM      1  C   LIG    1       -3.865   2.117   0.217  0.00  0.00    +0.060 C 
ATOM      2  S   LIG    1       -4.025   3.093  -1.316  0.00  0.00    -0.070 S 
ATOM      3  C   LIG    1       -5.424   2.175  -1.913  0.00  0.00    +0.400 C 
ATOM      4  N   LIG    1       -5.712   1.212  -0.983  0.00  0.00    -0.530 N 
ATOM      5  N   LIG    1       -6.065   2.383  -3.039  0.00  0.00    -0.460 NA
ATOM      6  C   LIG    1       -4.984   1.108   0.116  0.00  0.00    +0.540 C 
ATOM      7  O   LIG    1       -5.197   0.273   0.969  0.00  0.00    -0.470 OA
ENDROOT
BRANCH   5   8
ATOM      8  C   LIG    1       -5.594   3.306  -3.935  0.00  0.00    +0.060 A 
ATOM      9  C   LIG    1       -4.255   3.283  -4.327  0.00  0.00    +0.020 A 
ATOM     10  C   LIG    1       -3.788   4.212  -5.234  0.00  0.00    +0.020 A 
ATOM     11  C   LIG    1       -4.641   5.172  -5.748  0.00  0.00    +0.050 A 
ATOM     12  C   LIG    1       -5.970   5.205  -5.361  0.00  0.00    +0.000 A 
ATOM     13  C   LIG    1       -6.452   4.279  -4.458  0.00  0.00    +0.120 A 
ATOM     14  F   LIG    1       -7.749   4.311  -4.081  0.00  0.00    -0.130 F 
ENDBRANCH   5   8
BRANCH   4  15
ATOM     15  C   LIG    1       -6.831   0.294  -1.207  0.00  0.00    +0.230 C 
ATOM     16  C   LIG    1       -6.993  -0.133  -2.676  0.00  0.00    +0.030 C 
ATOM     17  C   LIG    1       -8.511  -0.005  -2.463  0.00  0.00    +0.030 C 
ATOM     18  C   LIG    1       -8.190   1.000  -1.344  0.00  0.00    +0.020 C 
ENDBRANCH   4  15
BRANCH   1  19
ATOM     19  C   LIG    1       -2.507   1.413   0.267  0.00  0.00    +0.130 C 
BRANCH  19  21
ATOM     20  O   LIG    1       -1.695   3.615   0.511  0.00  0.00    -0.520 OA
ATOM     21  C   LIG    1       -1.415   2.437   0.437  0.00  0.00    +0.530 C 
ATOM     22  N   LIG    1       -0.128   2.045   0.507  0.00  0.00    -0.730 N 
ATOM     23  H   LIG    1        0.096   1.103   0.448  0.00  0.00    +0.410 HD
BRANCH  22  24
ATOM     24  C   LIG    1        0.934   3.042   0.667  0.00  0.00    +0.320 C 
BRANCH  24  25
ATOM     25  C   LIG    1        2.292   2.338   0.711  0.00  0.00    +0.450 C 
ATOM     26  F   LIG    1        2.321   1.449   1.791  0.00  0.00    -0.180 F 
ATOM     27  F   LIG    1        3.305   3.289   0.864  0.00  0.00    -0.170 F 
ATOM     28  F   LIG    1        2.490   1.631  -0.480  0.00  0.00    -0.180 F 
ENDBRANCH  24  25
ENDBRANCH  22  24
ENDBRANCH  19  21
ENDBRANCH   1  19
TORSDOF 6
