REMARK  Name = ZINCrD00000hQ4JN.0
REMARK                            x       y       z     vdW  Elec       q    Type
REMARK                         _______ _______ _______ _____ _____    ______ ____
ROOT
ATOM      1  C   LIG    1       -0.162   1.867   0.164  0.00  0.00    +0.060 C 
ATOM      2  S   LIG    1        1.497   2.624   0.190  0.00  0.00    -0.060 S 
ATOM      3  C   LIG    1        1.451   3.118  -1.511  0.00  0.00    +0.390 C 
ATOM      4  N   LIG    1        0.246   2.717  -2.023  0.00  0.00    -0.530 N 
ATOM      5  N   LIG    1        2.398   3.752  -2.161  0.00  0.00    -0.470 NA
ATOM      6  C   LIG    1       -0.626   2.083  -1.258  0.00  0.00    +0.540 C 
ATOM      7  O   LIG    1       -1.706   1.707  -1.663  0.00  0.00    -0.470 OA
ENDROOT
BRANCH   5   8
ATOM      8  C   LIG    1        3.605   3.986  -1.557  0.00  0.00    +0.060 A 
ATOM      9  C   LIG    1        4.288   2.944  -0.928  0.00  0.00    +0.020 A 
ATOM     10  C   LIG    1        5.507   3.185  -0.326  0.00  0.00    +0.020 A 
ATOM     11  C   LIG    1        6.047   4.459  -0.335  0.00  0.00    +0.050 A 
ATOM     12  C   LIG    1        5.373   5.499  -0.951  0.00  0.00    +0.000 A 
ATOM     13  C   LIG    1        4.156   5.271  -1.563  0.00  0.00    +0.110 A 
ATOM     14  F   LIG    1        3.500   6.287  -2.165  0.00  0.00    -0.130 F 
ENDBRANCH   5   8
BRANCH   4  15
ATOM     15  C   LIG    1       -0.078   2.993  -3.425  0.00  0.00    +0.230 C 
ATOM     16  C   LIG    1        1.115   2.817  -4.379  0.00  0.00    +0.040 C 
ATOM     17  C   LIG    1        0.614   4.076  -5.109  0.00  0.00    +0.030 C 
ATOM     18  C   LIG    1       -0.045   4.488  -3.782  0.00  0.00    +0.030 C 
ENDBRANCH   4  15
BRANCH   1  19
ATOM     19  C   LIG    1       -0.077   0.372   0.481  0.00  0.00    +0.130 C 
BRANCH  19  21
ATOM     20  O   LIG    1        0.606   1.154   2.600  0.00  0.00    -0.510 OA
ATOM     21  C   LIG    1        0.374   0.186   1.906  0.00  0.00    +0.530 C 
ATOM     22  N   LIG    1        0.521  -1.055   2.410  0.00  0.00    -0.730 N 
ATOM     23  H   LIG    1        0.337  -1.829   1.855  0.00  0.00    +0.410 HD
BRANCH  22  24
ATOM     24  C   LIG    1        0.960  -1.236   3.796  0.00  0.00    +0.320 C 
BRANCH  24  25
ATOM     25  C   LIG    1        1.045  -2.730   4.113  0.00  0.00    +0.450 C 
ATOM     26  F   LIG    1       -0.214  -3.316   3.943  0.00  0.00    -0.180 F 
ATOM     27  F   LIG    1        1.464  -2.903   5.437  0.00  0.00    -0.170 F 
ATOM     28  F   LIG    1        1.963  -3.339   3.250  0.00  0.00    -0.180 F 
ENDBRANCH  24  25
ENDBRANCH  22  24
ENDBRANCH  19  21
ENDBRANCH   1  19
TORSDOF 6
