REMARK  Name = ZINCrH00000No4IW.0
REMARK                            x       y       z     vdW  Elec       q    Type
REMARK                         _______ _______ _______ _____ _____    ______ ____
ROOT
ATOM      1  C   LIG    1       -3.705  -0.764   1.294  0.00  0.00    -0.070 A 
ATOM      2  C   LIG    1       -4.109  -2.088   1.177  0.00  0.00    +0.140 A 
ATOM      3  N   LIG    1       -5.450  -2.101   1.223  0.00  0.00    -0.470 NA
ATOM      4  C   LIG    1       -5.898  -0.881   1.351  0.00  0.00    +0.260 A 
ATOM      5  N   LIG    1       -4.865  -0.021   1.400  0.00  0.00    -0.550 N 
ATOM      6  H   LIG    1       -4.924   0.943   1.492  0.00  0.00    +0.420 HD
ENDROOT
BRANCH   4   7
ATOM      7  C   LIG    1       -7.353  -0.496   1.433  0.00  0.00    +0.100 C 
ATOM      8  C   LIG    1       -7.767  -0.358   2.903  0.00  0.00    +0.040 C 
ATOM      9  C   LIG    1       -9.282  -0.147   2.961  0.00  0.00    +0.090 C 
ATOM     10  C   LIG    1       -9.685   0.930   1.996  0.00  0.00    +0.520 C 
ATOM     11  N   LIG    1       -8.912   1.347   0.993  0.00  0.00    -0.720 N 
ATOM     12  H   LIG    1       -9.267   2.026   0.397  0.00  0.00    +0.410 HD
ATOM     13  O   LIG    1      -10.773   1.448   2.136  0.00  0.00    -0.550 OA
ATOM     14  C   LIG    1       -7.567   0.848   0.735  0.00  0.00    +0.260 C 
ENDBRANCH   4   7
BRANCH   2  15
ATOM     15  C   LIG    1       -3.223  -3.267   1.031  0.00  0.00    -0.000 A 
ATOM     16  C   LIG    1       -3.526  -4.259   0.099  0.00  0.00    +0.050 A 
ATOM     17  C   LIG    1       -2.695  -5.351  -0.036  0.00  0.00    +0.030 A 
ATOM     18  C   LIG    1       -1.567  -5.470   0.759  0.00  0.00    -0.080 A 
ATOM     19  C   LIG    1       -1.265  -4.491   1.690  0.00  0.00    +0.030 A 
ATOM     20 BR   LIG    1       -0.437  -6.974   0.573  0.00  0.00    -0.050 Br
ATOM     21  C   LIG    1       -2.086  -3.391   1.830  0.00  0.00    +0.080 A 
ENDBRANCH   2  15
BRANCH   1  24
ATOM     22  N   LIG    1       -2.094   1.048   1.529  0.00  0.00    -0.720 N 
ATOM     23  H   LIG    1       -2.834   1.654   1.692  0.00  0.00    +0.390 HD
ATOM     24  C   LIG    1       -2.330  -0.259   1.299  0.00  0.00    +0.600 C 
ATOM     25  O   LIG    1       -1.402  -1.019   1.094  0.00  0.00    -0.500 OA
BRANCH  22  26
ATOM     26  C   LIG    1       -0.719   1.554   1.533  0.00  0.00    +0.180 C 
ATOM     27  C   LIG    1        0.085   0.836   2.619  0.00  0.00    +0.030 C 
ATOM     28  C   LIG    1       -0.077   1.297   0.168  0.00  0.00    +0.030 C 
BRANCH  26  30
ATOM     29  C   LIG    1        0.707   3.585   1.821  0.00  0.00    +0.030 C 
ATOM     30  C   LIG    1       -0.729   3.057   1.817  0.00  0.00    +0.010 C 
ENDBRANCH  26  30
ENDBRANCH  22  26
ENDBRANCH   1  24
TORSDOF 5
