REMARK  Name = ZINCpe000000V2iY.1
REMARK                            x       y       z     vdW  Elec       q    Type
REMARK                         _______ _______ _______ _____ _____    ______ ____
ROOT
ATOM      1  N   LIG    1       -5.603   3.604   1.543  0.00  0.00    -0.520 N 
ATOM      2  C   LIG    1       -5.138   4.994   1.640  0.00  0.00    +0.200 C 
ATOM      3  C   LIG    1       -4.173   5.288   0.486  0.00  0.00    +0.310 C 
ATOM      4  N   LIG    1       -3.109   4.274   0.497  0.00  0.00    -0.600 N 
ATOM      5  C   LIG    1       -3.499   2.856   0.533  0.00  0.00    +0.300 C 
ATOM      6  C   LIG    1       -1.810   4.633   0.469  0.00  0.00    +0.600 C 
ATOM      7  O   LIG    1       -0.945   3.782   0.402  0.00  0.00    -0.510 OA
ATOM      8  C   LIG    1       -4.489   2.658   1.691  0.00  0.00    +0.180 C 
ENDROOT
BRANCH   6   9
ATOM      9  C   LIG    1       -1.438   6.062   0.521  0.00  0.00    +0.030 A 
ATOM     10  N   LIG    1       -2.264   7.089   0.496  0.00  0.00    -0.250 NA
ATOM     11  N   LIG    1       -1.603   8.188   0.553  0.00  0.00    -0.380 N 
ATOM     12  H   LIG    1       -1.998   9.074   0.546  0.00  0.00    +0.450 HD
ATOM     13  C   LIG    1       -0.279   7.934   0.630  0.00  0.00    +0.230 A 
ATOM     14  C   LIG    1       -0.128   6.588   0.613  0.00  0.00    -0.180 A 
ATOM     15  I   LIG    1        1.668   5.512   0.702  0.00  0.00    +0.030 I 
ENDBRANCH   6   9
BRANCH   1  21
ATOM     16  C   LIG    1       -7.882   2.994   2.054  0.00  0.00    -0.660 A 
ATOM     17  C   LIG    1       -8.872   2.739   2.982  0.00  0.00    +0.130 A 
ATOM     18  C   LIG    1       -8.596   2.833   4.334  0.00  0.00    -0.010 A 
ATOM     19  C   LIG    1       -7.328   3.183   4.761  0.00  0.00    +0.080 A 
ATOM     20  C   LIG    1       -6.332   3.434   3.838  0.00  0.00    -0.040 A 
ATOM     21  C   LIG    1       -6.607   3.346   2.479  0.00  0.00    +0.190 A 
BRANCH  16  22
ATOM     22  S   LIG    1       -8.235   2.874   0.332  0.00  0.00    +2.710 S 
ATOM     23  O   LIG    1       -7.718   4.054  -0.267  0.00  0.00    -0.940 OA
ATOM     24  O   LIG    1       -9.597   2.483   0.228  0.00  0.00    -0.970 OA
BRANCH  22  26
ATOM     25  C   LIG    1       -7.613   0.246   0.179  0.00  0.00    +0.300 C 
ATOM     26  N   LIG    1       -7.340   1.615  -0.266  0.00  0.00    -1.110 NA
ATOM     27  H   LIG    1       -6.635   1.784  -0.910  0.00  0.00    +0.420 HD
ENDBRANCH  22  26
ENDBRANCH  16  22
ENDBRANCH   1  21
TORSDOF 4
