REMARK  Name = ZINCpe000000V2iY.0
REMARK                            x       y       z     vdW  Elec       q    Type
REMARK                         _______ _______ _______ _____ _____    ______ ____
ROOT
ATOM      1  N   LIG    1        0.380   0.222  -0.097  0.00  0.00    -0.510 N 
ATOM      2  C   LIG    1       -0.311  -0.352  -1.259  0.00  0.00    +0.190 C 
ATOM      3  C   LIG    1       -0.266  -1.881  -1.171  0.00  0.00    +0.290 C 
ATOM      4  N   LIG    1       -0.803  -2.290   0.136  0.00  0.00    -0.590 N 
ATOM      5  C   LIG    1       -0.254  -1.655   1.343  0.00  0.00    +0.330 C 
ATOM      6  C   LIG    1       -1.771  -3.223   0.224  0.00  0.00    +0.590 C 
ATOM      7  O   LIG    1       -2.264  -3.488   1.304  0.00  0.00    -0.510 OA
ATOM      8  C   LIG    1       -0.299  -0.134   1.156  0.00  0.00    +0.200 C 
ENDROOT
BRANCH   6   9
ATOM      9  C   LIG    1       -2.233  -3.921  -0.986  0.00  0.00    +0.020 A 
ATOM     10  C   LIG    1       -1.576  -4.936  -1.661  0.00  0.00    -0.180 A 
ATOM     11  C   LIG    1       -2.410  -5.268  -2.732  0.00  0.00    +0.250 A 
ATOM     12  N   LIG    1       -3.462  -4.492  -2.677  0.00  0.00    -0.270 NA
ATOM     13  I   LIG    1        0.273  -5.795  -1.178  0.00  0.00    +0.020 I 
ATOM     14  N   LIG    1       -3.393  -3.695  -1.672  0.00  0.00    -0.360 N 
ATOM     15  H   LIG    1       -4.061  -3.033  -1.436  0.00  0.00    +0.450 HD
ENDBRANCH   6   9
BRANCH   1  21
ATOM     16  C   LIG    1        1.761   2.197  -0.231  0.00  0.00    -0.660 A 
ATOM     17  C   LIG    1        1.879   3.567  -0.355  0.00  0.00    +0.130 A 
ATOM     18  C   LIG    1        0.747   4.353  -0.472  0.00  0.00    +0.000 A 
ATOM     19  C   LIG    1       -0.506   3.770  -0.463  0.00  0.00    +0.080 A 
ATOM     20  C   LIG    1       -0.632   2.400  -0.345  0.00  0.00    -0.040 A 
ATOM     21  C   LIG    1        0.503   1.608  -0.222  0.00  0.00    +0.190 A 
BRANCH  16  22
ATOM     22  S   LIG    1        3.204   1.197  -0.082  0.00  0.00    +2.710 S 
ATOM     23  O   LIG    1        2.973   0.320   1.012  0.00  0.00    -0.940 OA
ATOM     24  O   LIG    1        4.314   2.082  -0.147  0.00  0.00    -0.970 OA
BRANCH  22  26
ATOM     25  C   LIG    1        3.486   0.859  -2.750  0.00  0.00    +0.300 C 
ATOM     26  N   LIG    1        3.283   0.246  -1.435  0.00  0.00    -1.110 NA
ATOM     27  H   LIG    1        3.196  -0.717  -1.357  0.00  0.00    +0.420 HD
ENDBRANCH  22  26
ENDBRANCH  16  22
ENDBRANCH   1  21
TORSDOF 4
