REMARK  Name = ZINCrH000004sldk.0
REMARK                            x       y       z     vdW  Elec       q    Type
REMARK                         _______ _______ _______ _____ _____    ______ ____
ROOT
ATOM      1  C   LIG    1       -2.888   1.947   0.043  0.00  0.00    +0.540 C 
ATOM      2  N   LIG    1       -4.220   1.859  -0.140  0.00  0.00    -0.610 N 
ATOM      3  C   LIG    1       -5.176   1.233   0.791  0.00  0.00    +0.260 C 
ATOM      4  C   LIG    1       -6.535   1.909   0.478  0.00  0.00    +0.040 C 
ATOM      5  C   LIG    1       -6.455   2.070  -1.063  0.00  0.00    +0.060 C 
ATOM      6  C   LIG    1       -4.961   2.378  -1.299  0.00  0.00    +0.310 C 
ATOM      7  O   LIG    1       -2.195   2.487  -0.793  0.00  0.00    -0.530 OA
ENDROOT
BRANCH   6   8
ATOM      8  C   LIG    1       -4.492   1.691  -2.556  0.00  0.00    +0.280 A 
ATOM      9  N   LIG    1       -4.295   0.411  -2.677  0.00  0.00    -0.480 NA
ATOM     10  C   LIG    1       -3.876   0.131  -3.938  0.00  0.00    +0.050 A 
ATOM     11  C   LIG    1       -3.528  -1.051  -4.597  0.00  0.00    +0.070 A 
ATOM     12  C   LIG    1       -3.135  -1.010  -5.905  0.00  0.00    +0.000 A 
ATOM     13  C   LIG    1       -3.077   0.195  -6.590  0.00  0.00    +0.030 A 
ATOM     14  C   LIG    1       -3.416   1.374  -5.959  0.00  0.00    +0.010 A 
ATOM     15  C   LIG    1       -3.818   1.352  -4.631  0.00  0.00    +0.050 A 
ATOM     16  N   LIG    1       -4.219   2.320  -3.732  0.00  0.00    -0.480 N 
ATOM     17  C   LIG    1       -4.327   3.757  -3.993  0.00  0.00    +0.340 C 
ENDBRANCH   6   8
BRANCH   1  18
ATOM     18  C   LIG    1       -2.259   1.375   1.288  0.00  0.00    +0.060 C 
BRANCH  18  19
ATOM     19  C   LIG    1       -0.747   1.606   1.248  0.00  0.00    +0.090 C 
ATOM     20  C   LIG    1       -0.136   0.787   0.109  0.00  0.00    +0.020 C 
BRANCH  19  28
ATOM     21  C   LIG    1       -0.664  -1.352   2.382  0.00  0.00    +0.150 C 
ATOM     22  C   LIG    1       -0.102  -0.129   3.059  0.00  0.00    +0.090 A 
ATOM     23  N   LIG    1        0.506  -0.104   4.218  0.00  0.00    -0.290 NA
ATOM     24  N   LIG    1        0.875   1.219   4.490  0.00  0.00    -0.480 N 
ATOM     25  H   LIG    1        1.341   1.530   5.282  0.00  0.00    +0.440 HD
ATOM     26  C   LIG    1        0.473   1.985   3.454  0.00  0.00    +0.090 A 
ATOM     27  C   LIG    1        0.667   3.473   3.321  0.00  0.00    +0.140 C 
ATOM     28  C   LIG    1       -0.139   1.177   2.558  0.00  0.00    -0.230 A 
ENDBRANCH  19  28
ENDBRANCH  18  19
ENDBRANCH   1  18
TORSDOF 4
