REMARK  Name = ZINCqH0000034lkE.1
REMARK                            x       y       z     vdW  Elec       q    Type
REMARK                         _______ _______ _______ _____ _____    ______ ____
ROOT
ATOM      1  C   LIG    1        7.367   2.415  -0.058  0.00  0.00    +0.260 C 
ATOM      2  C   LIG    1        7.800   2.150  -1.501  0.00  0.00    +0.030 C 
ENDROOT
BRANCH   1   3
ATOM      3  N   LIG    1        5.970   2.857  -0.042  0.00  0.00    -0.720 N 
ATOM      4  H   LIG    1        5.761   3.804  -0.034  0.00  0.00    +0.400 HD
ATOM      5  C   LIG    1        4.976   1.947  -0.036  0.00  0.00    +0.560 C 
ATOM      6  O   LIG    1        5.238   0.760  -0.046  0.00  0.00    -0.530 OA
BRANCH   5   7
ATOM      7  C   LIG    1        3.568   2.392  -0.020  0.00  0.00    -0.140 A 
ATOM      8  C   LIG    1        3.267   3.761  -0.009  0.00  0.00    +0.050 A 
ATOM      9  C   LIG    1        1.971   4.176   0.006  0.00  0.00    +0.040 A 
ATOM     10  C   LIG    1        0.923   3.247   0.011  0.00  0.00    -0.120 A 
ATOM     11  S   LIG    1       -0.819   3.494   0.029  0.00  0.00    +0.100 S 
ATOM     12  C   LIG    1       -1.133   1.770   0.017  0.00  0.00    -0.020 A 
ATOM     13  C   LIG    1       -0.013   1.076   0.008  0.00  0.00    +0.040 A 
ATOM     14  C   LIG    1        1.203   1.875   0.001  0.00  0.00    -0.090 A 
ATOM     15  C   LIG    1        2.546   1.454  -0.015  0.00  0.00    +0.130 A 
ENDBRANCH   5   7
ENDBRANCH   1   3
BRANCH   1  16
ATOM     16  C   LIG    1        8.253   3.505   0.548  0.00  0.00    +0.000 C 
ATOM     17  C   LIG    1        8.114   4.790  -0.270  0.00  0.00    +0.070 C 
BRANCH  16  20
ATOM     18  N   LIG    1       10.656   3.854   1.019  0.00  0.00    -0.630 N 
ATOM     19  H   LIG    1       10.427   4.724   1.381  0.00  0.00    +0.430 HD
ATOM     20  C   LIG    1        9.690   3.051   0.531  0.00  0.00    +0.520 C 
ATOM     21  O   LIG    1        9.977   1.963   0.078  0.00  0.00    -0.450 OA
BRANCH  18  25
ATOM     22  C   LIG    1       14.386   3.005   1.123  0.00  0.00    +0.020 A 
ATOM     23  N   LIG    1       13.652   2.072   0.607  0.00  0.00    -0.230 NA
ATOM     24  N   LIG    1       12.411   2.295   0.552  0.00  0.00    -0.270 NA
ATOM     25  C   LIG    1       11.982   3.435   1.003  0.00  0.00    +0.220 A 
ATOM     26  S   LIG    1       13.320   4.334   1.583  0.00  0.00    +0.110 S 
BRANCH  22  28
ATOM     27  C   LIG    1       16.558   3.539   0.053  0.00  0.00    +0.040 C 
ATOM     28  C   LIG    1       15.883   2.965   1.299  0.00  0.00    +0.150 C 
ENDBRANCH  22  28
ENDBRANCH  18  25
ENDBRANCH  16  20
ENDBRANCH   1  16
TORSDOF 6
