REMARK  Name = ZINCnE000001OUkq.1
REMARK                            x       y       z     vdW  Elec       q    Type
REMARK                         _______ _______ _______ _____ _____    ______ ____
ROOT
ATOM      1  CA  LIG    1        7.956  -2.277  -0.080  0.00  0.00    +0.190 C 
ENDROOT
BRANCH   1   7
ATOM      2  C   LIG    1       11.682   0.639  -1.711  0.00  0.00    +0.070 C 
ATOM      3  C   LIG    1       11.201  -0.517  -0.873  0.00  0.00    -0.100 A 
ATOM      4  C   LIG    1       12.100  -1.243  -0.114  0.00  0.00    -0.020 A 
ATOM      5  C   LIG    1       11.659  -2.303   0.655  0.00  0.00    -0.100 A 
ATOM      6  C   LIG    1       10.318  -2.637   0.666  0.00  0.00    -0.020 A 
ATOM      7  C   LIG    1        9.418  -1.912  -0.092  0.00  0.00    -0.020 A 
ATOM      8  C   LIG    1       12.640  -3.094   1.482  0.00  0.00    +0.070 C 
ATOM      9  C   LIG    1        9.860  -0.855  -0.866  0.00  0.00    +0.070 A 
ENDBRANCH   1   7
BRANCH   1  10
ATOM     10  N   LIG    1        7.148  -1.055  -0.068  0.00  0.00    -0.640 NA
BRANCH  10  11
ATOM     11  C   LIG    1        5.776  -1.138  -0.056  0.00  0.00    +0.400 A 
ATOM     12  N   LIG    1        4.927  -0.128  -0.044  0.00  0.00    -0.600 NA
ATOM     13  C   LIG    1        3.699  -0.689  -0.035  0.00  0.00    +0.210 A 
ATOM     14  N   LIG    1        3.864  -1.987  -0.037  0.00  0.00    -0.460 NA
ATOM     15  O   LIG    1        5.045  -2.262  -0.054  0.00  0.00    -0.060 OA
BRANCH  13  16
ATOM     16  C   LIG    1        2.402   0.033  -0.020  0.00  0.00    +0.020 A 
ATOM     17  C   LIG    1        1.205  -0.680  -0.013  0.00  0.00    +0.030 A 
ATOM     18  C   LIG    1        0.002  -0.004   0.002  0.00  0.00    -0.010 A 
ATOM     19  C   LIG    1       -0.017   1.379   0.010  0.00  0.00    -0.010 A 
ATOM     20  C   LIG    1        1.169   2.092   0.002  0.00  0.00    -0.010 A 
ATOM     21  C   LIG    1        2.377   1.426  -0.013  0.00  0.00    +0.050 A 
ENDBRANCH  13  16
ENDBRANCH  10  11
ENDBRANCH   1  10
BRANCH   1  22
ATOM     22  C   LIG    1        7.624  -3.095  -1.330  0.00  0.00    +0.140 C 
BRANCH  22  23
ATOM     23  O   LIG    1        8.021  -2.368  -2.494  0.00  0.00    -0.550 OA
ATOM     24  H   LIG    1        7.840  -2.828  -3.325  0.00  0.00    +0.360 HD
ENDBRANCH  22  23
ENDBRANCH   1  22
TORSDOF 6
