REMARK  Name = ZINCrH00000tj0ZB.0
REMARK                            x       y       z     vdW  Elec       q    Type
REMARK                         _______ _______ _______ _____ _____    ______ ____
ROOT
ATOM      1  N   LIG    1        0.191   1.184   3.929  0.00  0.00    -0.510 NA
ATOM      2  C   LIG    1        0.681   2.477   4.423  0.00  0.00    +0.160 C 
ATOM      3  C   LIG    1        1.800   2.239   5.443  0.00  0.00    +0.280 C 
ATOM      4  N   LIG    1        1.300   1.325   6.481  0.00  0.00    -0.610 N 
ATOM      5  C   LIG    1        0.668   0.067   6.055  0.00  0.00    +0.290 C 
ATOM      6  C   LIG    1        1.417   1.632   7.788  0.00  0.00    +0.530 C 
ATOM      7  O   LIG    1        0.908   0.919   8.627  0.00  0.00    -0.540 OA
ATOM      8  C   LIG    1       -0.406   0.391   5.011  0.00  0.00    +0.100 C 
ATOM      9  C   LIG    1       -0.971  -0.911   4.439  0.00  0.00    +0.050 C 
ATOM     10  C   LIG    1       -1.532   1.190   5.669  0.00  0.00    +0.000 C 
ENDROOT
BRANCH   6  11
ATOM     11  C   LIG    1        2.181   2.861   8.208  0.00  0.00    -0.090 C 
ATOM     12  C   LIG    1        1.412   4.112   7.775  0.00  0.00    +0.050 C 
ATOM     13  C   LIG    1        3.560   2.856   7.545  0.00  0.00    +0.040 C 
ATOM     14  C   LIG    1        2.346   2.865   9.729  0.00  0.00    +0.050 C 
ENDBRANCH   6  11
BRANCH   1  15
ATOM     15  C   LIG    1       -0.762   1.369   2.825  0.00  0.00    +0.240 C 
BRANCH  15  19
ATOM     16  C   LIG    1        0.796   4.242   0.066  0.00  0.00    +0.170 A 
ATOM     17  C   LIG    1       -0.157   4.618   1.001  0.00  0.00    -0.100 A 
ATOM     18  C   LIG    1       -0.659   3.688   1.891  0.00  0.00    +0.090 A 
ATOM     19  C   LIG    1       -0.213   2.381   1.853  0.00  0.00    -0.140 A 
ATOM     20  C   LIG    1        0.741   1.999   0.920  0.00  0.00    +0.170 A 
ATOM     21  C   LIG    1        1.250   2.932   0.029  0.00  0.00    -0.090 A 
BRANCH  16  23
ATOM     22  C   LIG    1        0.782   6.489  -0.709  0.00  0.00    +0.250 C 
ATOM     23  O   LIG    1        1.290   5.157  -0.808  0.00  0.00    -0.310 OA
ENDBRANCH  16  23
BRANCH  20  24
ATOM     24  O   LIG    1        1.181   0.714   0.883  0.00  0.00    -0.300 OA
BRANCH  24  25
ATOM     25  C   LIG    1        2.163   0.392  -0.103  0.00  0.00    +0.590 C 
ATOM     26  F   LIG    1        1.646   0.649  -1.378  0.00  0.00    -0.200 F 
ATOM     27  F   LIG    1        3.305   1.174   0.103  0.00  0.00    -0.200 F 
ENDBRANCH  24  25
ENDBRANCH  20  24
ENDBRANCH  15  19
ENDBRANCH   1  15
TORSDOF 6
