REMARK  Name = ZINCvU0000000CsT.0
REMARK                            x       y       z     vdW  Elec       q    Type
REMARK                         _______ _______ _______ _____ _____    ______ ____
ROOT
ATOM      1  C   LIG    1        0.779   9.735  -6.895  0.00  0.00    +0.450 C 
ATOM      2  O   LIG    1        1.979   9.664  -7.060  0.00  0.00    -0.460 OA
ENDROOT
BRANCH   1   6
ATOM      3  C   LIG    1       -3.424   9.631  -9.773  0.00  0.00    +0.130 C 
ATOM      4  C   LIG    1       -1.992   9.614  -9.303  0.00  0.00    +0.010 A 
ATOM      5  C   LIG    1       -1.591   9.727  -8.026  0.00  0.00    +0.000 A 
ATOM      6  C   LIG    1       -0.124   9.658  -8.046  0.00  0.00    -0.270 A 
ATOM      7  C   LIG    1        0.230   9.512  -9.374  0.00  0.00    +0.140 A 
ATOM      8  C   LIG    1        1.635   9.401  -9.908  0.00  0.00    +0.140 C 
ATOM      9  N   LIG    1       -0.897   9.482 -10.107  0.00  0.00    -0.430 N 
BRANCH   9  10
ATOM     10  C   LIG    1       -0.943   9.335 -11.564  0.00  0.00    +0.270 C 
ATOM     11  C   LIG    1       -1.584   7.992 -11.921  0.00  0.00    +0.060 C 
BRANCH  10  12
ATOM     12  C   LIG    1        0.457   9.387 -12.118  0.00  0.00    -0.110 A 
ATOM     13  C   LIG    1        1.230   8.241 -12.151  0.00  0.00    +0.040 A 
ATOM     14  C   LIG    1        2.514   8.288 -12.664  0.00  0.00    +0.010 A 
ATOM     15  C   LIG    1        3.027   9.482 -13.135  0.00  0.00    +0.030 A 
ATOM     16  C   LIG    1        2.256  10.628 -13.097  0.00  0.00    +0.010 A 
ATOM     17  C   LIG    1        0.971  10.581 -12.588  0.00  0.00    +0.020 A 
ENDBRANCH  10  12
ENDBRANCH   9  10
ENDBRANCH   1   6
BRANCH   1  18
ATOM     18  C   LIG    1        0.218   9.902  -5.507  0.00  0.00    +0.090 C 
BRANCH  18  19
ATOM     19  S   LIG    1        1.575   9.963  -4.311  0.00  0.00    +0.120 S 
BRANCH  19  20
ATOM     20  C   LIG    1        0.659  10.157  -2.818  0.00  0.00    +0.120 A 
ATOM     21  N   LIG    1       -0.646  10.227  -2.710  0.00  0.00    -0.290 NA
ATOM     22  N   LIG    1       -0.963  10.369  -1.471  0.00  0.00    -0.270 NA
ATOM     23  C   LIG    1        0.116  10.395  -0.746  0.00  0.00    +0.170 A 
ATOM     24  O   LIG    1        1.169  10.267  -1.577  0.00  0.00    -0.200 OA
BRANCH  23  25
ATOM     25  C   LIG    1        0.177  10.546   0.753  0.00  0.00    +0.250 C 
BRANCH  25  26
ATOM     26  C   LIG    1        0.135   9.184   1.397  0.00  0.00    -0.100 A 
ATOM     27  C   LIG    1        1.310   8.501   1.649  0.00  0.00    +0.010 A 
ATOM     28  C   LIG    1        1.271   7.252   2.240  0.00  0.00    +0.010 A 
ATOM     29  C   LIG    1        0.056   6.685   2.578  0.00  0.00    +0.010 A 
ATOM     30  C   LIG    1       -1.119   7.366   2.321  0.00  0.00    +0.010 A 
ATOM     31  C   LIG    1       -1.080   8.617   1.735  0.00  0.00    +0.030 A 
ENDBRANCH  25  26
ENDBRANCH  23  25
ENDBRANCH  19  20
ENDBRANCH  18  19
ENDBRANCH   1  18
TORSDOF 8
