REMARK  Name = ZINCrg00001JduNQ.0
REMARK                            x       y       z     vdW  Elec       q    Type
REMARK                         _______ _______ _______ _____ _____    ______ ____
ROOT
ATOM      1  C   LIG    1       -2.494   1.552   0.562  0.00  0.00    +0.350 C 
ATOM      2  C   LIG    1       -3.660   2.373  -0.038  0.00  0.00    +0.090 C 
ATOM      3  C   LIG    1       -4.870   1.748   0.671  0.00  0.00    +0.140 C 
ATOM      4  N   LIG    1       -4.375   1.181   1.923  0.00  0.00    -0.450 N 
ATOM      5  C   LIG    1       -4.794   0.718   3.145  0.00  0.00    +0.160 A 
ATOM      6  C   LIG    1       -3.693   0.330   3.815  0.00  0.00    +0.150 A 
ATOM      7  N   LIG    1       -2.631   0.548   3.029  0.00  0.00    -0.460 NA
ATOM      8  C   LIG    1       -5.726   0.818  -0.193  0.00  0.00    +0.190 C 
ATOM      9  N   LIG    1       -6.890   1.436   0.483  0.00  0.00    -0.470 NA
ATOM     10  C   LIG    1       -6.100   2.652   0.785  0.00  0.00    +0.200 C 
ATOM     11  C   LIG    1       -3.027   1.055   1.892  0.00  0.00    +0.170 A 
ENDROOT
BRANCH   1  14
ATOM     12  O   LIG    1        0.044   0.657   0.710  0.00  0.00    -0.520 OA
ATOM     13  C   LIG    1       -0.091   1.857   0.827  0.00  0.00    +0.520 C 
ATOM     14  N   LIG    1       -1.321   2.405   0.768  0.00  0.00    -0.720 N 
ATOM     15  H   LIG    1       -1.429   3.365   0.862  0.00  0.00    +0.400 HD
BRANCH  13  16
ATOM     16  C   LIG    1        1.117   2.735   1.032  0.00  0.00    +0.090 C 
BRANCH  16  17
ATOM     17  C   LIG    1        2.378   1.869   1.054  0.00  0.00    -0.020 C 
ATOM     18  C   LIG    1        3.186   1.831   2.353  0.00  0.00    +0.010 C 
ATOM     19  C   LIG    1        3.726   2.588   1.138  0.00  0.00    +0.010 C 
ENDBRANCH  16  17
ENDBRANCH  13  16
ENDBRANCH   1  14
BRANCH   9  20
ATOM     20  C   LIG    1       -7.962   1.729  -0.478  0.00  0.00    +0.170 C 
BRANCH  20  21
ATOM     21  C   LIG    1       -8.680   0.431  -0.853  0.00  0.00    -0.020 C 
ATOM     22  C   LIG    1       -9.681   0.716  -1.968  0.00  0.00    +0.070 C 
ATOM     23  C   LIG    1      -10.223  -0.600  -2.533  0.00  0.00    -0.330 C 
ATOM     24  S   LIG    1      -11.139  -1.470  -1.228  0.00  0.00    +2.410 S 
ATOM     25  C   LIG    1       -9.896  -1.541   0.095  0.00  0.00    -0.330 C 
ATOM     26  O   LIG    1      -12.214  -0.647  -0.797  0.00  0.00    -0.930 OA
ATOM     27  O   LIG    1      -11.411  -2.794  -1.668  0.00  0.00    -0.940 OA
ATOM     28  C   LIG    1       -9.389  -0.125   0.378  0.00  0.00    +0.080 C 
ENDBRANCH  20  21
ENDBRANCH   9  20
TORSDOF 5
