REMARK  Name = ZINCrD0000075s62.0
REMARK                            x       y       z     vdW  Elec       q    Type
REMARK                         _______ _______ _______ _____ _____    ______ ____
ROOT
ATOM      1  C   LIG    1        1.600   3.182   0.004  0.00  0.00    +0.560 C 
ATOM      2  O   LIG    1        2.774   3.494  -0.006  0.00  0.00    -0.490 OA
ENDROOT
BRANCH   1   3
ATOM      3  C   LIG    1        1.214   1.757  -0.000  0.00  0.00    -0.000 A 
ATOM      4  N   LIG    1       -0.015   1.280   0.009  0.00  0.00    -0.210 NA
ATOM      5  N   LIG    1        0.002  -0.004   0.002  0.00  0.00    -0.370 N 
ATOM      6  H   LIG    1       -0.785  -0.571   0.007  0.00  0.00    +0.450 HD
ATOM      7  C   LIG    1        1.290  -0.453  -0.013  0.00  0.00    +0.050 A 
ATOM      8  C   LIG    1        2.094   0.652  -0.014  0.00  0.00    +0.020 A 
BRANCH   7   9
ATOM      9  C   LIG    1        1.732  -1.865  -0.025  0.00  0.00    -0.020 A 
ATOM     10  C   LIG    1        3.092  -2.173  -0.046  0.00  0.00    +0.060 A 
ATOM     11  C   LIG    1        3.499  -3.491  -0.051  0.00  0.00    +0.040 A 
ATOM     12  C   LIG    1        2.559  -4.508  -0.049  0.00  0.00    -0.030 A 
ATOM     13  C   LIG    1        1.207  -4.208  -0.034  0.00  0.00    +0.040 A 
ATOM     14 CL   LIG    1        3.077  -6.165  -0.063  0.00  0.00    -0.060 Cl
ATOM     15  C   LIG    1        0.789  -2.894  -0.022  0.00  0.00    +0.030 A 
ENDBRANCH   7   9
ENDBRANCH   1   3
BRANCH   1  16
ATOM     16  O   LIG    1        0.649   4.137   0.019  0.00  0.00    -0.320 OA
BRANCH  16  17
ATOM     17  C   LIG    1        1.101   5.517   0.022  0.00  0.00    +0.270 C 
BRANCH  17  19
ATOM     18  O   LIG    1       -1.214   5.974   0.047  0.00  0.00    -0.510 OA
ATOM     19  C   LIG    1       -0.092   6.437   0.039  0.00  0.00    +0.520 C 
ATOM     20  N   LIG    1        0.086   7.772   0.044  0.00  0.00    -0.720 N 
ATOM     21  H   LIG    1        0.983   8.142   0.037  0.00  0.00    +0.400 HD
BRANCH  20  22
ATOM     22  C   LIG    1       -1.074   8.666   0.061  0.00  0.00    +0.340 C 
BRANCH  22  23
ATOM     23  C   LIG    1       -0.605  10.099   0.064  0.00  0.00    -0.150 A 
ATOM     24  C   LIG    1       -0.696  10.858  -1.087  0.00  0.00    +0.070 A 
ATOM     25  C   LIG    1       -0.266  12.172  -1.084  0.00  0.00    +0.000 A 
ATOM     26  C   LIG    1        0.256  12.727   0.069  0.00  0.00    +0.060 A 
ATOM     27  C   LIG    1        0.348  11.969   1.221  0.00  0.00    -0.020 A 
ATOM     28  C   LIG    1       -0.088  10.656   1.222  0.00  0.00    +0.110 A 
ATOM     29  F   LIG    1       -0.005   9.916   2.349  0.00  0.00    -0.130 F 
ENDBRANCH  22  23
ENDBRANCH  20  22
ENDBRANCH  17  19
ENDBRANCH  16  17
ENDBRANCH   1  16
TORSDOF 7
