REMARK  Name = ZINCvU00000006IN.0
REMARK                            x       y       z     vdW  Elec       q    Type
REMARK                         _______ _______ _______ _____ _____    ______ ____
ROOT
ATOM      1  C   LIG    1        4.655   1.085  -0.197  0.00  0.00    +0.180 A 
ATOM      2  N   LIG    1        4.122  -0.067   0.141  0.00  0.00    -0.290 NA
ATOM      3  N   LIG    1        2.848   0.051   0.254  0.00  0.00    -0.260 NA
ATOM      4  C   LIG    1        2.486   1.287  -0.015  0.00  0.00    +0.250 A 
ATOM      5  N   LIG    1        3.635   1.988  -0.308  0.00  0.00    -0.450 N 
ENDROOT
BRANCH   4   6
ATOM      6  C   LIG    1        1.115   1.820   0.001  0.00  0.00    -0.130 A 
ATOM      7  C   LIG    1       -0.013   1.076   0.008  0.00  0.00    +0.070 A 
ATOM      8  C   LIG    1       -1.183   1.804   0.017  0.00  0.00    +0.020 A 
ATOM      9  C   LIG    1       -1.025   3.131   0.028  0.00  0.00    -0.030 A 
ATOM     10  S   LIG    1        0.689   3.527   0.014  0.00  0.00    +0.120 S 
ENDBRANCH   4   6
BRANCH   1  11
ATOM     11  S   LIG    1        6.368   1.407  -0.458  0.00  0.00    +0.040 S 
BRANCH  11  12
ATOM     12  C   LIG    1        7.051  -0.237  -0.130  0.00  0.00    +0.200 C 
BRANCH  12  15
ATOM     13  C   LIG    1       10.426  -0.392  -1.485  0.00  0.00    +0.120 A 
ATOM     14  N   LIG    1        9.126  -0.454  -1.450  0.00  0.00    -0.450 NA
ATOM     15  C   LIG    1        8.548  -0.202  -0.298  0.00  0.00    +0.080 A 
ATOM     16  C   LIG    1        9.370   0.082   0.718  0.00  0.00    -0.030 A 
ATOM     17  S   LIG    1       11.027   0.021   0.119  0.00  0.00    +0.120 S 
BRANCH  13  22
ATOM     18  C   LIG    1       13.432  -0.775  -3.711  0.00  0.00    +0.130 A 
ATOM     19  C   LIG    1       12.831  -1.095  -4.920  0.00  0.00    -0.060 A 
ATOM     20  C   LIG    1       11.454  -1.186  -5.010  0.00  0.00    +0.050 A 
ATOM     21  C   LIG    1       10.669  -0.964  -3.898  0.00  0.00    +0.030 A 
ATOM     22  C   LIG    1       11.265  -0.636  -2.679  0.00  0.00    +0.010 A 
ATOM     23  C   LIG    1       12.653  -0.545  -2.589  0.00  0.00    +0.000 A 
BRANCH  18  25
ATOM     24  C   LIG    1       15.527  -0.936  -4.823  0.00  0.00    +0.250 C 
ATOM     25  O   LIG    1       14.786  -0.687  -3.627  0.00  0.00    -0.320 OA
ENDBRANCH  18  25
ENDBRANCH  13  22
ENDBRANCH  12  15
ENDBRANCH  11  12
ENDBRANCH   1  11
BRANCH   5  26
ATOM     26  C   LIG    1        3.740   3.404  -0.666  0.00  0.00    +0.310 C 
BRANCH  26  27
ATOM     27  C   LIG    1        3.926   4.238   0.604  0.00  0.00    +0.150 C 
ATOM     28  C   LIG    1        3.923   5.741   0.248  0.00  0.00    +0.020 C 
ATOM     29  C   LIG    1        5.025   6.303   1.188  0.00  0.00    +0.020 C 
ATOM     30  C   LIG    1        6.016   5.113   1.223  0.00  0.00    +0.200 C 
ATOM     31  O   LIG    1        5.192   3.937   1.202  0.00  0.00    -0.360 OA
ENDBRANCH  26  27
ENDBRANCH   5  26
TORSDOF 8
