REMARK  Name = ZINCrD0000074DCh.0
REMARK                            x       y       z     vdW  Elec       q    Type
REMARK                         _______ _______ _______ _____ _____    ______ ____
ROOT
ATOM      1  N   LIG    1        0.052   2.024  -2.281  0.00  0.00    -0.710 N 
ATOM      2  H   LIG    1        0.973   2.267  -2.099  0.00  0.00    +0.400 HD
ATOM      3  C   LIG    1       -0.413   2.043  -3.546  0.00  0.00    +0.590 C 
ATOM      4  O   LIG    1       -1.568   1.738  -3.775  0.00  0.00    -0.500 OA
ENDROOT
BRANCH   3   5
ATOM      5  C   LIG    1        0.477   2.434  -4.650  0.00  0.00    +0.010 A 
ATOM      6  C   LIG    1        0.128   2.486  -5.962  0.00  0.00    +0.070 A 
ATOM      7  C   LIG    1        1.264   2.909  -6.694  0.00  0.00    -0.130 A 
ATOM      8  C   LIG    1        1.500   3.142  -8.055  0.00  0.00    +0.080 A 
ATOM      9  C   LIG    1        2.735   3.548  -8.470  0.00  0.00    -0.020 A 
ATOM     10  C   LIG    1        3.763   3.733  -7.555  0.00  0.00    -0.050 A 
ATOM     11  C   LIG    1        3.556   3.511  -6.212  0.00  0.00    -0.020 A 
ATOM     12  C   LIG    1        5.118   4.182  -8.037  0.00  0.00    +0.090 C 
ATOM     13  C   LIG    1        2.306   3.096  -5.764  0.00  0.00    +0.120 A 
ATOM     14  N   LIG    1        1.803   2.800  -4.519  0.00  0.00    -0.580 N 
ATOM     15  H   LIG    1        2.297   2.841  -3.685  0.00  0.00    +0.420 HD
ENDBRANCH   3   5
BRANCH   1  19
ATOM     16  N   LIG    1       -1.508   2.817   0.727  0.00  0.00    -0.610 N 
ATOM     17  C   LIG    1       -0.811   1.621   1.217  0.00  0.00    +0.270 C 
ATOM     18  C   LIG    1       -0.013   1.086   0.008  0.00  0.00    +0.050 C 
ATOM     19  C   LIG    1       -0.835   1.635  -1.181  0.00  0.00    +0.250 C 
ATOM     20  C   LIG    1       -1.541   2.847  -0.616  0.00  0.00    +0.500 C 
ATOM     21  O   LIG    1       -2.061   3.720  -1.279  0.00  0.00    -0.500 OA
BRANCH  16  22
ATOM     22  C   LIG    1       -2.092   3.845   1.592  0.00  0.00    +0.350 C 
BRANCH  22  27
ATOM     23  C   LIG    1       -7.577   2.473   2.784  0.00  0.00    +0.090 C 
ATOM     24  C   LIG    1       -6.147   2.830   2.473  0.00  0.00    -0.080 A 
ATOM     25  C   LIG    1       -5.129   2.387   3.297  0.00  0.00    -0.010 A 
ATOM     26  C   LIG    1       -3.817   2.716   3.011  0.00  0.00    +0.020 A 
ATOM     27  C   LIG    1       -3.523   3.487   1.903  0.00  0.00    -0.120 A 
ATOM     28  C   LIG    1       -4.541   3.934   1.082  0.00  0.00    +0.040 A 
ATOM     29  C   LIG    1       -5.853   3.601   1.364  0.00  0.00    +0.000 A 
ENDBRANCH  22  27
ENDBRANCH  16  22
ENDBRANCH   1  19
TORSDOF 4
