REMARK  Name = ZINCrD00000laokm.0
REMARK                            x       y       z     vdW  Elec       q    Type
REMARK                         _______ _______ _______ _____ _____    ______ ____
ROOT
ATOM      1  C   LIG    1       -1.301   5.611   2.245  0.00  0.00    +0.270 C 
ENDROOT
BRANCH   1   3
ATOM      2  O   LIG    1       -2.470   5.422   4.287  0.00  0.00    -0.490 OA
ATOM      3  C   LIG    1       -2.004   6.171   3.455  0.00  0.00    +0.520 C 
ATOM      4  N   LIG    1       -2.115   7.505   3.612  0.00  0.00    -0.670 N 
ATOM      5  H   LIG    1       -1.687   8.105   2.981  0.00  0.00    +0.420 HD
BRANCH   4   6
ATOM      6  C   LIG    1       -2.849   8.026   4.686  0.00  0.00    +0.130 A 
ATOM      7  C   LIG    1       -2.853   7.368   5.908  0.00  0.00    +0.100 A 
ATOM      8  C   LIG    1       -3.577   7.882   6.968  0.00  0.00    +0.050 A 
ATOM      9  C   LIG    1       -4.299   9.053   6.812  0.00  0.00    +0.090 A 
ATOM     10  C   LIG    1       -4.297   9.714   5.593  0.00  0.00    +0.050 A 
ATOM     11  F   LIG    1       -5.002  10.857   5.444  0.00  0.00    -0.110 F 
ATOM     12  F   LIG    1       -5.005   9.553   7.850  0.00  0.00    -0.120 F 
ATOM     13  C   LIG    1       -3.569   9.205   4.531  0.00  0.00    +0.070 A 
ATOM     14  F   LIG    1       -3.562   9.851   3.345  0.00  0.00    -0.120 F 
ENDBRANCH   4   6
ENDBRANCH   1   3
BRANCH   1  15
ATOM     15  O   LIG    1       -1.314   4.160   2.307  0.00  0.00    -0.330 OA
BRANCH  15  16
ATOM     16  C   LIG    1       -0.724   3.502   1.297  0.00  0.00    +0.470 C 
ATOM     17  O   LIG    1       -0.213   4.118   0.392  0.00  0.00    -0.500 OA
BRANCH  16  18
ATOM     18  C   LIG    1       -0.698   1.996   1.293  0.00  0.00    +0.140 C 
BRANCH  18  19
ATOM     19  C   LIG    1        0.029   1.502   0.040  0.00  0.00    +0.060 C 
BRANCH  19  20
ATOM     20  C   LIG    1        0.055  -0.005   0.036  0.00  0.00    +0.400 C 
ATOM     21  O   LIG    1       -0.457  -0.623   0.945  0.00  0.00    -0.450 OA
BRANCH  20  22
ATOM     22  C   LIG    1        0.702  -0.726  -1.070  0.00  0.00    -0.190 A 
ATOM     23  C   LIG    1        1.289  -0.016  -2.124  0.00  0.00    +0.110 A 
ATOM     24  C   LIG    1        1.896  -0.698  -3.155  0.00  0.00    -0.030 A 
ATOM     25  C   LIG    1        1.919  -2.085  -3.156  0.00  0.00    +0.130 A 
ATOM     26  C   LIG    1        1.334  -2.795  -2.117  0.00  0.00    -0.030 A 
ATOM     27  F   LIG    1        2.512  -2.747  -4.173  0.00  0.00    -0.130 F 
ATOM     28  C   LIG    1        0.728  -2.125  -1.077  0.00  0.00    +0.120 A 
ENDBRANCH  20  22
ENDBRANCH  19  20
ENDBRANCH  18  19
ENDBRANCH  16  18
ENDBRANCH  15  16
ENDBRANCH   1  15
TORSDOF 8
