REMARK  Name = ZINCkj00000y7D5w.0
REMARK                            x       y       z     vdW  Elec       q    Type
REMARK                         _______ _______ _______ _____ _____    ______ ____
ROOT
ATOM      1  C   LIG    1       -1.040   2.789   0.738  0.00  0.00    +0.290 C 
ENDROOT
BRANCH   1   2
ATOM      2  C   LIG    1       -0.716   1.307   0.934  0.00  0.00    +0.150 C 
ATOM      3  C   LIG    1       -2.016   0.509   1.028  0.00  0.00    +0.070 C 
ATOM      4  C   LIG    1       -2.813   0.691  -0.267  0.00  0.00    +0.040 C 
ATOM      5  C   LIG    1       -1.948   0.255  -1.453  0.00  0.00    +0.070 C 
ATOM      6  C   LIG    1       -0.649   1.063  -1.454  0.00  0.00    +0.250 C 
ATOM      7  N   LIG    1        0.080   0.826  -0.202  0.00  0.00    -0.370 N 
ATOM      8  H   LIG    1        0.252  -0.163  -0.096  0.00  0.00    +0.440 HD
BRANCH   7   9
ATOM      9  C   LIG    1        1.361   1.543  -0.239  0.00  0.00    +0.270 C 
BRANCH   9  10
ATOM     10  C   LIG    1        2.185   1.180   0.998  0.00  0.00    +0.220 C 
BRANCH  10  11
ATOM     11  O   LIG    1        2.498  -0.214   0.970  0.00  0.00    -0.580 OA
ATOM     12  H   LIG    1        3.020  -0.515   1.726  0.00  0.00    +0.410 HD
ENDBRANCH  10  11
ENDBRANCH   9  10
ENDBRANCH   7   9
ENDBRANCH   1   2
BRANCH   1  15
ATOM     13  O   LIG    1       -1.734   5.367   1.119  0.00  0.00    -0.510 OA
ATOM     14  C   LIG    1       -2.047   4.605   2.012  0.00  0.00    +0.570 C 
ATOM     15  N   LIG    1       -1.746   3.295   1.918  0.00  0.00    -0.730 N 
ATOM     16  H   LIG    1       -1.996   2.687   2.631  0.00  0.00    +0.410 HD
BRANCH  14  17
ATOM     17  C   LIG    1       -2.761   5.117   3.205  0.00  0.00    -0.080 A 
ATOM     18  C   LIG    1       -3.084   6.472   3.323  0.00  0.00    +0.050 A 
ATOM     19  C   LIG    1       -3.750   6.907   4.452  0.00  0.00    +0.310 A 
ATOM     20  N   LIG    1       -4.081   6.064   5.410  0.00  0.00    -0.450 NA
ATOM     21  C   LIG    1       -3.796   4.778   5.340  0.00  0.00    +0.170 A 
ATOM     22 CL   LIG    1       -4.262   3.725   6.638  0.00  0.00    -0.010 Cl
ATOM     23  C   LIG    1       -3.137   4.257   4.241  0.00  0.00    +0.020 A 
ENDBRANCH  14  17
ENDBRANCH   1  15
TORSDOF 6
