REMARK  Name = ZINCkj00000y7D5w.1
REMARK                            x       y       z     vdW  Elec       q    Type
REMARK                         _______ _______ _______ _____ _____    ______ ____
ROOT
ATOM      1  C   LIG    1        0.039   0.798  -2.446  0.00  0.00    +0.320 C 
ENDROOT
BRANCH   1   2
ATOM      2  C   LIG    1       -0.723   1.377  -1.253  0.00  0.00    +0.180 C 
ATOM      3  C   LIG    1       -2.179   0.915  -1.308  0.00  0.00    +0.070 C 
ATOM      4  C   LIG    1       -2.939   1.498  -0.113  0.00  0.00    +0.050 C 
ATOM      5  C   LIG    1       -2.241   1.068   1.181  0.00  0.00    +0.060 C 
ATOM      6  C   LIG    1       -0.782   1.525   1.143  0.00  0.00    +0.250 C 
ATOM      7  N   LIG    1       -0.103   0.914  -0.006  0.00  0.00    -0.380 N 
ATOM      8  H   LIG    1       -0.182  -0.091   0.054  0.00  0.00    +0.420 HD
BRANCH   7   9
ATOM      9  C   LIG    1        1.315   1.294   0.006  0.00  0.00    +0.270 C 
BRANCH   9  10
ATOM     10  C   LIG    1        1.997   0.684   1.232  0.00  0.00    +0.220 C 
BRANCH  10  11
ATOM     11  O   LIG    1        1.989  -0.740   1.123  0.00  0.00    -0.580 OA
ATOM     12  H   LIG    1        2.406  -1.194   1.867  0.00  0.00    +0.410 HD
ENDBRANCH  10  11
ENDBRANCH   9  10
ENDBRANCH   7   9
ENDBRANCH   1   2
BRANCH   1  15
ATOM     13  O   LIG    1        1.407  -0.821  -4.114  0.00  0.00    -0.500 OA
ATOM     14  C   LIG    1        0.818  -1.381  -3.210  0.00  0.00    +0.570 C 
ATOM     15  N   LIG    1        0.105  -0.660  -2.322  0.00  0.00    -0.740 N 
ATOM     16  H   LIG    1       -0.364  -1.107  -1.600  0.00  0.00    +0.400 HD
BRANCH  14  17
ATOM     17  C   LIG    1        0.885  -2.856  -3.084  0.00  0.00    -0.080 A 
ATOM     18  C   LIG    1        1.620  -3.622  -3.994  0.00  0.00    +0.050 A 
ATOM     19  C   LIG    1        1.656  -4.994  -3.840  0.00  0.00    +0.310 A 
ATOM     20  N   LIG    1        1.011  -5.582  -2.852  0.00  0.00    -0.450 NA
ATOM     21  C   LIG    1        0.307  -4.897  -1.971  0.00  0.00    +0.170 A 
ATOM     22 CL   LIG    1       -0.517  -5.737  -0.694  0.00  0.00    -0.010 Cl
ATOM     23  C   LIG    1        0.221  -3.519  -2.048  0.00  0.00    +0.010 A 
ENDBRANCH  14  17
ENDBRANCH   1  15
TORSDOF 6
