REMARK  Name = ZINCpk000000nKeg.0
REMARK                            x       y       z     vdW  Elec       q    Type
REMARK                         _______ _______ _______ _____ _____    ______ ____
ROOT
ATOM      1  C   LIG    1        0.002  -0.062  -0.010  0.00  0.00    +0.260 C 
ATOM      2  C   LIG    1       -0.071   1.440   0.029  0.00  0.00    +0.520 C 
ATOM      3  N   LIG    1        1.011   2.219   0.047  0.00  0.00    -0.720 N 
ATOM      4  H   LIG    1        0.877   3.176   0.137  0.00  0.00    +0.400 HD
ATOM      5  C   LIG    1        2.381   1.735  -0.058  0.00  0.00    +0.260 C 
ATOM      6  C   LIG    1        2.468   0.262   0.346  0.00  0.00    +0.280 C 
ATOM      7  O   LIG    1       -1.163   1.966   0.039  0.00  0.00    -0.530 OA
ATOM      8  N   LIG    1        1.380  -0.465  -0.328  0.00  0.00    -0.630 N 
ATOM      9  C   LIG    1        1.636  -1.458  -1.202  0.00  0.00    +0.710 C 
ATOM     10  N   LIG    1        2.903  -1.875  -1.397  0.00  0.00    -0.730 N 
ATOM     11  H   LIG    1        3.637  -1.412  -0.963  0.00  0.00    +0.400 HD
ATOM     12  O   LIG    1        0.724  -1.978  -1.816  0.00  0.00    -0.560 OA
ENDROOT
BRANCH  10  13
ATOM     13  C   LIG    1        3.171  -3.026  -2.262  0.00  0.00    +0.270 C 
ATOM     14  C   LIG    1        3.065  -4.338  -1.456  0.00  0.00    +0.040 C 
ATOM     15  C   LIG    1        4.466  -4.979  -1.549  0.00  0.00    +0.190 C 
ATOM     16  N   LIG    1        5.382  -3.841  -1.822  0.00  0.00    -0.450 N 
ATOM     17  C   LIG    1        4.627  -2.986  -2.773  0.00  0.00    +0.220 C 
BRANCH  16  18
ATOM     18  C   LIG    1        6.573  -4.284  -2.387  0.00  0.00    +0.310 A 
ATOM     19  N   LIG    1        6.932  -3.850  -3.584  0.00  0.00    -0.500 NA
ATOM     20  C   LIG    1        8.054  -4.245  -4.156  0.00  0.00    +0.300 A 
ATOM     21  C   LIG    1        8.899  -5.132  -3.521  0.00  0.00    -0.040 A 
ATOM     22  C   LIG    1        8.559  -5.612  -2.262  0.00  0.00    +0.100 A 
ATOM     23  C   LIG    1        7.380  -5.176  -1.685  0.00  0.00    -0.100 A 
ATOM     24 CL   LIG    1        6.910  -5.737  -0.111  0.00  0.00    -0.040 Cl
ENDBRANCH  16  18
ENDBRANCH  10  13
BRANCH   1  26
ATOM     25  C   LIG    1       -2.390  -0.242  -0.710  0.00  0.00    +0.020 C 
ATOM     26  C   LIG    1       -0.949  -0.594  -1.084  0.00  0.00    +0.040 C 
ATOM     27  C   LIG    1       -0.603   0.043  -2.432  0.00  0.00    +0.020 C 
ENDBRANCH   1  26
TORSDOF 3
