REMARK  Name = ZINCvU0000000JLb.0
REMARK                            x       y       z     vdW  Elec       q    Type
REMARK                         _______ _______ _______ _____ _____    ______ ____
ROOT
ATOM      1  C   LIG    1       -5.865   3.330   0.037  0.00  0.00    +0.520 C 
ATOM      2  N   LIG    1       -7.184   3.068  -0.057  0.00  0.00    -0.600 N 
ATOM      3  O   LIG    1       -5.480   4.475   0.139  0.00  0.00    -0.500 OA
ENDROOT
BRANCH   1   4
ATOM      4  C   LIG    1       -4.869   2.199   0.015  0.00  0.00    +0.270 C 
BRANCH   4   5
ATOM      5  O   LIG    1       -3.522   2.741   0.009  0.00  0.00    -0.320 OA
BRANCH   5   6
ATOM      6  C   LIG    1       -2.506   1.854  -0.011  0.00  0.00    +0.550 C 
ATOM      7  O   LIG    1       -2.740   0.661  -0.021  0.00  0.00    -0.480 OA
BRANCH   6  10
ATOM      8  C   LIG    1        0.009   0.025  -0.053  0.00  0.00    +0.150 C 
ATOM      9  C   LIG    1       -0.017   1.532  -0.037  0.00  0.00    -0.050 A 
ATOM     10  C   LIG    1       -1.117   2.330  -0.018  0.00  0.00    -0.030 A 
ATOM     11  O   LIG    1       -0.739   3.626  -0.005  0.00  0.00    -0.170 OA
ATOM     12  C   LIG    1        0.603   3.734  -0.024  0.00  0.00    +0.080 A 
ATOM     13  C   LIG    1        1.470   4.820  -0.027  0.00  0.00    +0.030 A 
ATOM     14  C   LIG    1        2.833   4.611  -0.050  0.00  0.00    +0.070 A 
ATOM     15  C   LIG    1        3.352   3.324  -0.071  0.00  0.00    +0.000 A 
ATOM     16  C   LIG    1        2.519   2.241  -0.069  0.00  0.00    +0.080 A 
ATOM     17  C   LIG    1        1.136   2.431  -0.046  0.00  0.00    -0.150 A 
ENDBRANCH   6  10
ENDBRANCH   5   6
ENDBRANCH   4   5
ENDBRANCH   1   4
BRANCH   2  18
ATOM     18  C   LIG    1       -8.144   4.170  -0.153  0.00  0.00    +0.350 C 
BRANCH  18  19
ATOM     19  C   LIG    1       -8.367   4.518  -1.602  0.00  0.00    -0.110 A 
ATOM     20  C   LIG    1       -7.573   5.469  -2.214  0.00  0.00    +0.030 A 
ATOM     21  C   LIG    1       -7.774   5.785  -3.545  0.00  0.00    +0.000 A 
ATOM     22  C   LIG    1       -8.775   5.155  -4.261  0.00  0.00    +0.010 A 
ATOM     23  C   LIG    1       -9.573   4.208  -3.647  0.00  0.00    +0.000 A 
ATOM     24  C   LIG    1       -9.368   3.889  -2.318  0.00  0.00    +0.010 A 
ENDBRANCH  18  19
ENDBRANCH   2  18
BRANCH   2  25
ATOM     25  C   LIG    1       -7.657   1.682  -0.062  0.00  0.00    +0.330 C 
BRANCH  25  26
ATOM     26  C   LIG    1       -8.049   1.279   1.336  0.00  0.00    -0.110 A 
ATOM     27  C   LIG    1       -7.146   0.610   2.141  0.00  0.00    +0.010 A 
ATOM     28  C   LIG    1       -7.504   0.244   3.425  0.00  0.00    +0.000 A 
ATOM     29  C   LIG    1       -8.768   0.539   3.901  0.00  0.00    +0.010 A 
ATOM     30  C   LIG    1       -9.673   1.203   3.094  0.00  0.00    +0.000 A 
ATOM     31  C   LIG    1       -9.313   1.573   1.811  0.00  0.00    +0.020 A 
ENDBRANCH  25  26
ENDBRANCH   2  25
TORSDOF 8
