REMARK  Name = ZINCtV00000L6khA.0
REMARK                            x       y       z     vdW  Elec       q    Type
REMARK                         _______ _______ _______ _____ _____    ______ ____
ROOT
ATOM      1  N   LIG    1       -3.743   4.373  -2.083  0.00  0.00    -0.490 N 
ATOM      2  C   LIG    1       -4.420   3.624  -3.024  0.00  0.00    +0.050 A 
ATOM      3  C   LIG    1       -5.065   3.924  -4.216  0.00  0.00    +0.010 A 
ATOM      4  C   LIG    1       -5.662   2.914  -4.942  0.00  0.00    +0.030 A 
ATOM      5  C   LIG    1       -5.621   1.604  -4.489  0.00  0.00    +0.000 A 
ATOM      6  C   LIG    1       -4.990   1.290  -3.318  0.00  0.00    +0.070 A 
ATOM      7  C   LIG    1       -4.379   2.296  -2.566  0.00  0.00    +0.050 A 
ATOM      8  N   LIG    1       -3.689   2.303  -1.397  0.00  0.00    -0.480 NA
ATOM      9  C   LIG    1       -3.322   3.519  -1.112  0.00  0.00    +0.300 A 
ENDROOT
BRANCH   9  10
ATOM     10  C   LIG    1       -2.539   3.920   0.112  0.00  0.00    +0.120 C 
ATOM     11  C   LIG    1       -3.331   3.551   1.367  0.00  0.00    +0.060 C 
BRANCH  10  12
ATOM     12  C   LIG    1       -1.217   3.197   0.121  0.00  0.00    -0.090 A 
ATOM     13  C   LIG    1       -1.184   1.816   0.138  0.00  0.00    +0.040 A 
ATOM     14  C   LIG    1        0.029   1.153   0.151  0.00  0.00    +0.000 A 
ATOM     15  C   LIG    1        1.209   1.872   0.138  0.00  0.00    -0.070 A 
ATOM     16  C   LIG    1        1.177   3.254   0.117  0.00  0.00    +0.000 A 
ATOM     17  C   LIG    1       -0.036   3.917   0.109  0.00  0.00    +0.020 A 
BRANCH  15  18
ATOM     18  C   LIG    1        2.532   1.150   0.146  0.00  0.00    +0.060 C 
BRANCH  18  19
ATOM     19  C   LIG    1        2.977   0.883  -1.293  0.00  0.00    -0.020 C 
ATOM     20  C   LIG    1        4.255   0.042  -1.284  0.00  0.00    +0.010 C 
ATOM     21  C   LIG    1        3.247   2.214  -1.998  0.00  0.00    +0.010 C 
ENDBRANCH  18  19
ENDBRANCH  15  18
ENDBRANCH  10  12
ENDBRANCH   9  10
BRANCH   1  22
ATOM     22  C   LIG    1       -3.519   5.821  -2.123  0.00  0.00    +0.350 C 
BRANCH  22  29
ATOM     23  C   LIG    1       -2.507   8.526  -2.209  0.00  0.00    +0.100 C 
ATOM     24  C   LIG    1       -1.695   7.399  -2.792  0.00  0.00    -0.070 A 
ATOM     25  C   LIG    1       -0.463   7.658  -3.363  0.00  0.00    +0.000 A 
ATOM     26  C   LIG    1        0.280   6.625  -3.902  0.00  0.00    +0.010 A 
ATOM     27  C   LIG    1       -0.206   5.331  -3.866  0.00  0.00    +0.000 A 
ATOM     28  C   LIG    1       -1.435   5.071  -3.289  0.00  0.00    +0.030 A 
ATOM     29  C   LIG    1       -2.179   6.104  -2.750  0.00  0.00    -0.120 A 
ENDBRANCH  22  29
ENDBRANCH   1  22
TORSDOF 6
