REMARK  Name = ZINCpe00000gLRc8.0
REMARK                            x       y       z     vdW  Elec       q    Type
REMARK                         _______ _______ _______ _____ _____    ______ ____
ROOT
ATOM      1  C   LIG    1       -0.013   1.086   0.008  0.00  0.00    +0.220 C 
ENDROOT
BRANCH   1   2
ATOM      2  N   LIG    1       -0.700   1.560   1.217  0.00  0.00    -0.520 NA
ATOM      3  C   LIG    1       -0.612   3.022   1.334  0.00  0.00    +0.190 C 
ATOM      4  C   LIG    1       -1.405   3.482   2.559  0.00  0.00    +0.210 C 
ATOM      5  N   LIG    1       -0.870   2.826   3.761  0.00  0.00    -0.490 N 
ATOM      6  C   LIG    1       -0.959   1.364   3.643  0.00  0.00    +0.200 C 
ATOM      7  C   LIG    1       -0.165   0.904   2.418  0.00  0.00    +0.200 C 
BRANCH   5   8
ATOM      8  C   LIG    1       -1.524   3.277   4.910  0.00  0.00    +0.110 A 
ATOM      9  C   LIG    1       -2.148   2.369   5.756  0.00  0.00    -0.040 A 
ATOM     10  C   LIG    1       -2.790   2.818   6.894  0.00  0.00    +0.030 A 
ATOM     11  C   LIG    1       -2.820   4.169   7.186  0.00  0.00    -0.030 A 
ATOM     12  C   LIG    1       -2.204   5.076   6.343  0.00  0.00    +0.020 A 
ATOM     13  C   LIG    1       -1.556   4.633   5.206  0.00  0.00    -0.020 A 
ENDBRANCH   5   8
ENDBRANCH   1   2
BRANCH   1  15
ATOM     14  N   LIG    1       -0.288   1.272  -2.443  0.00  0.00    -0.610 N 
ATOM     15  C   LIG    1       -0.742   1.585  -1.213  0.00  0.00    +0.520 C 
ATOM     16  O   LIG    1       -1.736   2.268  -1.088  0.00  0.00    -0.510 OA
BRANCH  14  17
ATOM     17  C   LIG    1       -0.997   1.758  -3.630  0.00  0.00    +0.270 C 
ATOM     18  C   LIG    1       -1.020   3.296  -3.626  0.00  0.00    +0.070 C 
ATOM     19  C   LIG    1       -2.050   3.727  -4.702  0.00  0.00    -0.310 C 
ATOM     20  S   LIG    1       -3.431   2.554  -4.425  0.00  0.00    +2.390 S 
ATOM     21  O   LIG    1       -3.905   2.082  -5.678  0.00  0.00    -0.940 OA
ATOM     22  O   LIG    1       -4.340   3.111  -3.486  0.00  0.00    -0.920 OA
ATOM     23  C   LIG    1       -2.450   1.241  -3.614  0.00  0.00    -0.320 C 
ENDBRANCH  14  17
BRANCH  14  25
ATOM     24  C   LIG    1        0.514  -1.029  -2.644  0.00  0.00    +0.010 C 
ATOM     25  C   LIG    1        0.913   0.447  -2.593  0.00  0.00    +0.270 C 
ENDBRANCH  14  25
ENDBRANCH   1  15
TORSDOF 5
