REMARK  Name = ZINCzw00000009iX.0
REMARK                            x       y       z     vdW  Elec       q    Type
REMARK                         _______ _______ _______ _____ _____    ______ ____
ROOT
ATOM      1  C   LIG    1       -1.739   5.379   0.047  0.00  0.00    +0.200 C 
ENDROOT
BRANCH   1   2
ATOM      2  C   LIG    1       -2.457   5.775   1.311  0.00  0.00    -0.040 A 
ATOM      3  C   LIG    1       -3.482   4.978   1.799  0.00  0.00    -0.060 A 
ATOM      4  C   LIG    1       -4.149   5.327   2.957  0.00  0.00    +0.190 A 
ATOM      5  C   LIG    1       -3.788   6.495   3.641  0.00  0.00    +0.030 A 
ATOM      6  N   LIG    1       -4.238   7.093   4.774  0.00  0.00    -0.480 NA
ATOM      7  C   LIG    1       -3.560   8.181   4.993  0.00  0.00    +0.480 A 
ATOM      8  N   LIG    1       -2.628   8.355   4.016  0.00  0.00    -0.600 N 
ATOM      9  H   LIG    1       -1.996   9.088   3.948  0.00  0.00    +0.430 HD
ATOM     10  C   LIG    1       -2.749   7.295   3.139  0.00  0.00    +0.090 A 
ATOM     11  C   LIG    1       -2.086   6.924   1.977  0.00  0.00    -0.010 A 
BRANCH   4  12
ATOM     12  O   LIG    1       -5.153   4.541   3.429  0.00  0.00    -0.300 OA
ATOM     13  C   LIG    1       -5.466   3.367   2.678  0.00  0.00    +0.240 C 
ENDBRANCH   4  12
ENDBRANCH   1   2
BRANCH   1  14
ATOM     14  N   LIG    1       -1.530   3.925   0.037  0.00  0.00    -0.510 NA
ATOM     15  C   LIG    1       -0.832   3.501  -1.183  0.00  0.00    +0.210 C 
ATOM     16  C   LIG    1       -0.761   1.973  -1.228  0.00  0.00    +0.060 C 
ATOM     17  C   LIG    1       -0.018   1.465   0.010  0.00  0.00    +0.150 C 
ATOM     18  C   LIG    1       -0.737   1.960   1.268  0.00  0.00    +0.050 C 
ATOM     19  C   LIG    1       -0.810   3.488   1.240  0.00  0.00    +0.200 C 
BRANCH  17  20
ATOM     20  N   LIG    1        0.002  -0.004   0.002  0.00  0.00    -0.380 N 
ATOM     21  C   LIG    1        0.705  -0.489   1.196  0.00  0.00    +0.260 C 
ATOM     22  C   LIG    1        0.658  -2.018   1.234  0.00  0.00    +0.080 C 
ATOM     23  C   LIG    1        1.336  -2.575  -0.020  0.00  0.00    +0.040 C 
ATOM     24  C   LIG    1        0.642  -2.005  -1.260  0.00  0.00    +0.090 C 
ATOM     25  C   LIG    1        0.689  -0.476  -1.206  0.00  0.00    +0.260 C 
ATOM     26  H   LIG    1       -0.945  -0.352   0.007  0.00  0.00    +0.420 HD
BRANCH  23  27
ATOM     27  C   LIG    1        1.225  -4.078  -0.028  0.00  0.00    +0.460 C 
ATOM     28  O   LIG    1        0.649  -4.637  -0.932  0.00  0.00    -0.490 OA
BRANCH  27  29
ATOM     29  O   LIG    1        1.764  -4.796   0.970  0.00  0.00    -0.360 OA
ATOM     30  C   LIG    1        1.619  -6.239   0.897  0.00  0.00    +0.280 C 
ENDBRANCH  27  29
ENDBRANCH  23  27
ENDBRANCH  17  20
ENDBRANCH   1  14
BRANCH   1  33
ATOM     31  N   LIG    1       -2.888   7.069  -1.346  0.00  0.00    -0.720 N 
ATOM     32  H   LIG    1       -2.584   7.745  -0.721  0.00  0.00    +0.400 HD
ATOM     33  C   LIG    1       -2.568   5.775  -1.147  0.00  0.00    +0.520 C 
ATOM     34  O   LIG    1       -2.948   4.930  -1.929  0.00  0.00    -0.520 OA
BRANCH  31  35
ATOM     35  C   LIG    1       -3.694   7.455  -2.507  0.00  0.00    +0.320 C 
BRANCH  35  37
ATOM     36  C   LIG    1       -3.112   9.727  -3.184  0.00  0.00    +0.050 C 
ATOM     37  C   LIG    1       -3.908   8.946  -2.497  0.00  0.00    -0.150 C 
ATOM     38  C   LIG    1       -5.039   9.540  -1.696  0.00  0.00    +0.080 C 
ENDBRANCH  35  37
ENDBRANCH  31  35
ENDBRANCH   1  33
TORSDOF 9
