REMARK  Name = ZINCpe000000XOwo.0
REMARK                            x       y       z     vdW  Elec       q    Type
REMARK                         _______ _______ _______ _____ _____    ______ ____
ROOT
ATOM      1  C   LIG    1       -0.116   1.042  -2.410  0.00  0.00    +0.220 C 
ENDROOT
BRANCH   1   2
ATOM      2  N   LIG    1       -0.732   1.557  -1.179  0.00  0.00    -0.520 NA
ATOM      3  C   LIG    1       -0.027   1.060   0.010  0.00  0.00    +0.190 C 
ATOM      4  C   LIG    1       -0.745   1.552   1.269  0.00  0.00    +0.190 C 
ATOM      5  N   LIG    1       -0.790   3.021   1.261  0.00  0.00    -0.530 NA
ATOM      6  C   LIG    1       -1.495   3.518   0.071  0.00  0.00    +0.200 C 
ATOM      7  C   LIG    1       -0.776   3.026  -1.187  0.00  0.00    +0.190 C 
BRANCH   5   8
ATOM      8  C   LIG    1       -1.406   3.536   2.491  0.00  0.00    +0.160 C 
ATOM      9  C   LIG    1       -0.651   3.002   3.722  0.00  0.00    +0.080 C 
ATOM     10  C   LIG    1       -1.089   3.811   4.959  0.00  0.00    -0.310 C 
ATOM     11  S   LIG    1       -1.574   5.450   4.310  0.00  0.00    +2.390 S 
ATOM     12  O   LIG    1       -0.635   6.425   4.743  0.00  0.00    -0.930 OA
ATOM     13  O   LIG    1       -2.962   5.654   4.533  0.00  0.00    -0.930 OA
ATOM     14  C   LIG    1       -1.292   5.081   2.537  0.00  0.00    -0.300 C 
ENDBRANCH   5   8
ENDBRANCH   1   2
BRANCH   1  17
ATOM     15  N   LIG    1       -0.633   0.988  -4.828  0.00  0.00    -0.670 N 
ATOM     16  H   LIG    1        0.235   0.580  -4.975  0.00  0.00    +0.410 HD
ATOM     17  C   LIG    1       -0.999   1.365  -3.587  0.00  0.00    +0.520 C 
ATOM     18  O   LIG    1       -2.040   1.965  -3.418  0.00  0.00    -0.500 OA
BRANCH  15  23
ATOM     19  C   LIG    1       -4.170   1.783  -9.195  0.00  0.00    +0.090 C 
ATOM     20  C   LIG    1       -3.230   1.572  -8.036  0.00  0.00    -0.080 A 
ATOM     21  C   LIG    1       -3.731   1.467  -6.752  0.00  0.00    +0.020 A 
ATOM     22  C   LIG    1       -2.873   1.267  -5.687  0.00  0.00    +0.060 A 
ATOM     23  C   LIG    1       -1.505   1.184  -5.906  0.00  0.00    +0.110 A 
ATOM     24  C   LIG    1       -1.003   1.291  -7.199  0.00  0.00    +0.070 A 
ATOM     25  F   LIG    1        0.327   1.205  -7.417  0.00  0.00    -0.140 F 
ATOM     26  C   LIG    1       -1.868   1.485  -8.260  0.00  0.00    +0.010 A 
ENDBRANCH  15  23
ENDBRANCH   1  17
TORSDOF 4
