REMARK  Name = ZINCpe00000gLQ5X.0
REMARK                            x       y       z     vdW  Elec       q    Type
REMARK                         _______ _______ _______ _____ _____    ______ ____
ROOT
ATOM      1  C   LIG    1        2.406   0.752  -0.017  0.00  0.00    +0.470 C 
ATOM      2  O   LIG    1        2.201  -0.439  -0.021  0.00  0.00    -0.500 OA
ENDROOT
BRANCH   1   3
ATOM      3  O   LIG    1        3.665   1.216  -0.026  0.00  0.00    -0.320 OA
BRANCH   3   4
ATOM      4  C   LIG    1        4.731   0.231  -0.042  0.00  0.00    +0.270 C 
BRANCH   4  10
ATOM      5  N   LIG    1        9.537   0.124  -0.088  0.00  0.00    -0.740 N 
ATOM      6  H   LIG    1        9.500  -0.845  -0.093  0.00  0.00    +0.400 HD
ATOM      7  C   LIG    1        8.397   0.843  -0.074  0.00  0.00    +0.690 C 
ATOM      8  N   LIG    1        7.205   0.215  -0.066  0.00  0.00    -0.690 N 
ATOM      9  H   LIG    1        7.167  -0.754  -0.070  0.00  0.00    +0.410 HD
ATOM     10  C   LIG    1        6.065   0.933  -0.051  0.00  0.00    +0.520 C 
ATOM     11  O   LIG    1        6.112   2.145  -0.045  0.00  0.00    -0.440 OA
ATOM     12  O   LIG    1        8.444   2.057  -0.068  0.00  0.00    -0.520 OA
BRANCH   5  13
ATOM     13  C   LIG    1       10.834   0.807  -0.097  0.00  0.00    +0.270 C 
BRANCH  13  15
ATOM     14  C   LIG    1       13.311   0.482  -0.122  0.00  0.00    +0.030 C 
ATOM     15  C   LIG    1       11.957  -0.231  -0.113  0.00  0.00    +0.000 C 
ENDBRANCH  13  15
ENDBRANCH   5  13
ENDBRANCH   4  10
ENDBRANCH   3   4
ENDBRANCH   1   3
BRANCH   1  16
ATOM     16  C   LIG    1        1.248   1.716  -0.001  0.00  0.00    +0.370 C 
BRANCH  16  17
ATOM     17  N   LIG    1       -0.011   0.966   0.007  0.00  0.00    -0.720 N 
ATOM     18  H   LIG    1        0.002  -0.004   0.002  0.00  0.00    +0.410 HD
ATOM     19  C   LIG    1       -1.187   1.624   0.017  0.00  0.00    +0.570 C 
ATOM     20  O   LIG    1       -1.204   2.839   0.023  0.00  0.00    -0.530 OA
BRANCH  19  21
ATOM     21  C   LIG    1       -2.458   0.867   0.018  0.00  0.00    -0.130 A 
ATOM     22  C   LIG    1       -2.442  -0.528   0.005  0.00  0.00    +0.040 A 
ATOM     23  C   LIG    1       -3.631  -1.228   0.012  0.00  0.00    -0.090 A 
ATOM     24  C   LIG    1       -4.837  -0.550   0.021  0.00  0.00    +0.040 A 
ATOM     25  C   LIG    1       -4.859   0.834   0.029  0.00  0.00    -0.090 A 
ATOM     26  C   LIG    1       -6.177   1.564   0.039  0.00  0.00    +0.090 C 
ATOM     27  C   LIG    1       -3.616  -2.735   0.004  0.00  0.00    +0.090 C 
ATOM     28  C   LIG    1       -3.677   1.546   0.028  0.00  0.00    +0.080 A 
ENDBRANCH  19  21
ENDBRANCH  16  17
ENDBRANCH   1  16
TORSDOF 8
