REMARK  Name = ZINCqH0000007vJu.0
REMARK                            x       y       z     vdW  Elec       q    Type
REMARK                         _______ _______ _______ _____ _____    ______ ____
ROOT
ATOM      1  C   LIG    1        2.414   4.145   0.014  0.00  0.00    +0.190 A 
ATOM      2  C   LIG    1        3.634   3.472   0.012  0.00  0.00    -0.090 A 
ATOM      3  C   LIG    1        3.670   2.108   0.004  0.00  0.00    +0.130 A 
ATOM      4  C   LIG    1        2.475   1.380  -0.001  0.00  0.00    -0.190 A 
ATOM      5  C   LIG    1        1.240   2.054   0.002  0.00  0.00    +0.190 A 
ATOM      6  O   LIG    1        0.089   1.349  -0.002  0.00  0.00    -0.270 OA
ATOM      7  C   LIG    1        0.090   0.006  -0.009  0.00  0.00    +0.520 A 
ATOM      8  C   LIG    1        1.291  -0.733  -0.012  0.00  0.00    -0.240 A 
ATOM      9  O   LIG    1       -0.973  -0.588  -0.013  0.00  0.00    -0.460 OA
ATOM     10  C   LIG    1        2.484  -0.084  -0.008  0.00  0.00    +0.050 A 
ATOM     11  C   LIG    1        3.782  -0.851  -0.012  0.00  0.00    +0.130 C 
ATOM     12  C   LIG    1        1.221   3.441   0.009  0.00  0.00    -0.030 A 
ENDROOT
BRANCH   1  14
ATOM     13  C   LIG    1        3.657   6.170   0.026  0.00  0.00    +0.250 C 
ATOM     14  O   LIG    1        2.394   5.503   0.021  0.00  0.00    -0.310 OA
ENDBRANCH   1  14
BRANCH   8  15
ATOM     15  C   LIG    1        1.250  -2.240  -0.019  0.00  0.00    +0.140 C 
BRANCH  15  16
ATOM     16  C   LIG    1        1.110  -2.753   1.415  0.00  0.00    +0.070 C 
BRANCH  16  17
ATOM     17  C   LIG    1        1.069  -4.259   1.408  0.00  0.00    +0.520 C 
ATOM     18  N   LIG    1        0.949  -4.936   2.568  0.00  0.00    -0.670 N 
ATOM     19  H   LIG    1        0.949  -4.456   3.411  0.00  0.00    +0.420 HD
ATOM     20  O   LIG    1        1.145  -4.863   0.359  0.00  0.00    -0.510 OA
BRANCH  18  21
ATOM     21  C   LIG    1        0.824  -6.326   2.555  0.00  0.00    +0.200 A 
ATOM     22  C   LIG    1        1.475  -7.094   1.592  0.00  0.00    -0.010 A 
ATOM     23  C   LIG    1        1.326  -8.465   1.614  0.00  0.00    +0.290 A 
ATOM     24  N   LIG    1        0.578  -9.050   2.530  0.00  0.00    -0.480 NA
ATOM     25  C   LIG    1       -0.055  -8.359   3.459  0.00  0.00    +0.300 A 
ATOM     26  C   LIG    1        0.047  -6.983   3.510  0.00  0.00    -0.120 A 
ATOM     27 CL   LIG    1       -0.784  -6.083   4.740  0.00  0.00    -0.050 Cl
ENDBRANCH  18  21
ENDBRANCH  16  17
ENDBRANCH  15  16
ENDBRANCH   8  15
TORSDOF 5
