REMARK  Name = ZINCkj00000FMiBN.0
REMARK                            x       y       z     vdW  Elec       q    Type
REMARK                         _______ _______ _______ _____ _____    ______ ____
ROOT
ATOM      1  N   LIG    1       -3.611   1.792   0.029  0.00  0.00    -0.490 N 
ATOM      2  H   LIG    1       -3.570   2.377  -0.792  0.00  0.00    +0.440 HD
ATOM      3  H   LIG    1       -3.562   2.368   0.856  0.00  0.00    +0.440 HD
ENDROOT
BRANCH   1   4
ATOM      4  C   LIG    1       -4.873   1.040   0.031  0.00  0.00    +0.160 C 
ATOM      5  C   LIG    1       -5.006   0.263  -1.280  0.00  0.00    +0.110 C 
BRANCH   4   6
ATOM      6  C   LIG    1       -6.046   2.013   0.167  0.00  0.00    +0.280 C 
ATOM      7  C   LIG    1       -5.914   2.791   1.478  0.00  0.00    +0.080 C 
BRANCH   6   8
ATOM      8  N   LIG    1       -7.305   1.264   0.169  0.00  0.00    -0.390 N 
ATOM      9  C   LIG    1       -7.885   0.689   1.244  0.00  0.00    +0.230 A 
ATOM     10  C   LIG    1       -9.029   0.097   0.828  0.00  0.00    -0.090 A 
ATOM     11  C   LIG    1       -9.152   0.318  -0.548  0.00  0.00    +0.260 A 
ATOM     12  N   LIG    1       -8.122   1.022  -0.943  0.00  0.00    -0.290 NA
ENDBRANCH   6   8
ENDBRANCH   4   6
ENDBRANCH   1   4
BRANCH   1  13
ATOM     13  C   LIG    1       -2.482   0.853   0.018  0.00  0.00    +0.320 C 
BRANCH  13  16
ATOM     14  N   LIG    1       -0.011   0.966   0.007  0.00  0.00    -0.610 N 
ATOM     15  H   LIG    1        0.002  -0.004   0.002  0.00  0.00    +0.430 HD
ATOM     16  C   LIG    1       -1.187   1.624   0.017  0.00  0.00    +0.510 C 
ATOM     17  O   LIG    1       -1.204   2.836   0.023  0.00  0.00    -0.500 OA
BRANCH  14  21
ATOM     18  C   LIG    1        3.406   4.596  -0.005  0.00  0.00    +0.210 C 
ATOM     19  C   LIG    1        2.679   3.276  -0.005  0.00  0.00    +0.000 A 
ATOM     20  C   LIG    1        1.339   3.092   0.006  0.00  0.00    -0.040 A 
ATOM     21  C   LIG    1        1.187   1.680  -0.000  0.00  0.00    +0.220 A 
ATOM     22  N   LIG    1        2.397   1.183  -0.009  0.00  0.00    -0.370 NA
ATOM     23  O   LIG    1        3.233   2.056  -0.017  0.00  0.00    +0.110 OA
ENDBRANCH  14  21
ENDBRANCH  13  16
ENDBRANCH   1  13
TORSDOF 6
