REMARK  Name = ZINCnE000001UbeV.0
REMARK                            x       y       z     vdW  Elec       q    Type
REMARK                         _______ _______ _______ _____ _____    ______ ____
ROOT
ATOM      1  O   LIG    1        6.123  -0.112   1.191  0.00  0.00    -1.030 OA
ATOM      2  S   LIG    1        6.361   0.522  -0.058  0.00  0.00    +2.650 S 
ATOM      3  O   LIG    1        6.098  -0.100  -1.308  0.00  0.00    -1.020 OA
ENDROOT
BRANCH   2   4
ATOM      4  C   LIG    1        8.065   0.970  -0.073  0.00  0.00    -0.690 A 
ATOM      5  C   LIG    1        8.961   0.731   0.898  0.00  0.00    +0.360 A 
ATOM      6  N   LIG    1       10.186   1.220   0.532  0.00  0.00    -0.590 N 
ATOM      7  H   LIG    1       10.992   1.164   1.069  0.00  0.00    +0.420 HD
ATOM      8  C   LIG    1       10.103   1.809  -0.710  0.00  0.00    +0.090 A 
ATOM      9  C   LIG    1       11.026   2.450  -1.530  0.00  0.00    +0.010 A 
ATOM     10  C   LIG    1       10.627   2.947  -2.752  0.00  0.00    -0.020 A 
ATOM     11  C   LIG    1        9.311   2.815  -3.175  0.00  0.00    +0.010 A 
ATOM     12  C   LIG    1        8.388   2.189  -2.385  0.00  0.00    +0.090 A 
ATOM     13 CL   LIG    1       11.781   3.748  -3.773  0.00  0.00    -0.080 Cl
ATOM     14  C   LIG    1        8.771   1.678  -1.144  0.00  0.00    -0.030 A 
ENDBRANCH   2   4
BRANCH   2  15
ATOM     15  N   LIG    1        5.485   1.928  -0.042  0.00  0.00    -1.070 NA
BRANCH  15  16
ATOM     16  C   LIG    1        4.096   1.881  -0.028  0.00  0.00    +0.480 A 
ATOM     17  C   LIG    1        3.373   3.074  -0.015  0.00  0.00    -0.090 A 
ATOM     18  C   LIG    1        2.004   3.033  -0.002  0.00  0.00    +0.100 A 
ATOM     19  C   LIG    1        1.380   1.782  -0.002  0.00  0.00    -0.250 A 
ATOM     20  C   LIG    1       -0.016   1.338   0.009  0.00  0.00    -0.050 A 
ATOM     21  C   LIG    1        0.002  -0.004   0.002  0.00  0.00    +0.170 A 
ATOM     22  N   LIG    1        1.297  -0.452  -0.013  0.00  0.00    -0.590 N 
ATOM     23  H   LIG    1        1.563  -1.385  -0.020  0.00  0.00    +0.410 HD
ATOM     24  C   LIG    1        2.163   0.614  -0.015  0.00  0.00    +0.340 A 
ATOM     25  N   LIG    1        3.488   0.708  -0.027  0.00  0.00    -0.630 NA
ENDBRANCH  15  16
ENDBRANCH   2  15
TORSDOF 3
