REMARK  Name = ZINCnE000001UbeV.1
REMARK                            x       y       z     vdW  Elec       q    Type
REMARK                         _______ _______ _______ _____ _____    ______ ____
ROOT
ATOM      1  O   LIG    1       -1.802  -1.001  -1.244  0.00  0.00    -1.020 OA
ATOM      2  S   LIG    1       -2.351  -0.621   0.011  0.00  0.00    +2.680 S 
ATOM      3  O   LIG    1       -1.790  -1.014   1.256  0.00  0.00    -1.010 OA
ENDROOT
BRANCH   2   4
ATOM      4  C   LIG    1       -4.019  -1.187   0.016  0.00  0.00    -0.700 A 
ATOM      5  C   LIG    1       -4.636  -1.865  -0.965  0.00  0.00    +0.370 A 
ATOM      6  N   LIG    1       -5.927  -2.137  -0.604  0.00  0.00    -0.580 N 
ATOM      7  H   LIG    1       -6.568  -2.620  -1.149  0.00  0.00    +0.420 HD
ATOM      8  C   LIG    1       -6.183  -1.619   0.646  0.00  0.00    +0.090 A 
ATOM      9  C   LIG    1       -7.307  -1.605   1.465  0.00  0.00    +0.010 A 
ATOM     10  C   LIG    1       -7.249  -0.988   2.697  0.00  0.00    -0.020 A 
ATOM     11  C   LIG    1       -6.078  -0.379   3.129  0.00  0.00    +0.010 A 
ATOM     12  C   LIG    1       -4.962  -0.382   2.340  0.00  0.00    +0.090 A 
ATOM     13 CL   LIG    1       -8.654  -0.971   3.717  0.00  0.00    -0.070 Cl
ATOM     14  C   LIG    1       -4.999  -1.001   1.089  0.00  0.00    -0.030 A 
ENDBRANCH   2   4
BRANCH   2  15
ATOM     15  N   LIG    1       -2.395   1.034   0.019  0.00  0.00    -1.100 NA
BRANCH  15  16
ATOM     16  C   LIG    1       -1.225   1.751   0.017  0.00  0.00    +0.540 A 
ATOM     17  C   LIG    1       -0.013   1.076   0.008  0.00  0.00    -0.220 A 
ATOM     18  C   LIG    1        1.175   1.780   0.000  0.00  0.00    +0.200 A 
ATOM     19  C   LIG    1        1.134   3.179   0.008  0.00  0.00    -0.250 A 
ATOM     20  C   LIG    1        2.115   4.196   0.004  0.00  0.00    -0.130 A 
ATOM     21  C   LIG    1        1.441   5.377   0.017  0.00  0.00    +0.140 A 
ATOM     22  N   LIG    1        0.128   5.145   0.028  0.00  0.00    -0.560 NA
ATOM     23  C   LIG    1       -0.116   3.845   0.023  0.00  0.00    +0.240 A 
ATOM     24  N   LIG    1       -1.276   3.100   0.030  0.00  0.00    -0.530 N 
ATOM     25  H   LIG    1       -2.136   3.549   0.040  0.00  0.00    +0.410 HD
ENDBRANCH  15  16
ENDBRANCH   2  15
TORSDOF 3
