REMARK  Name = ZINCrg000000oQps.0
REMARK                            x       y       z     vdW  Elec       q    Type
REMARK                         _______ _______ _______ _____ _____    ______ ____
ROOT
ATOM      1  N   LIG    1        9.556  -0.191  -1.281  0.00  0.00    -1.010 NA
ATOM      2  C   LIG    1        9.516   1.278  -1.274  0.00  0.00    +0.290 C 
ATOM      3  C   LIG    1        8.685   1.740  -0.070  0.00  0.00    +0.280 C 
ATOM      4  N   LIG    1        7.417   0.997  -0.062  0.00  0.00    -0.610 N 
ATOM      5  C   LIG    1        7.457  -0.472  -0.064  0.00  0.00    +0.270 C 
ATOM      6  C   LIG    1        6.239   1.651  -0.048  0.00  0.00    +0.520 C 
ATOM      7  O   LIG    1        6.219   2.864  -0.041  0.00  0.00    -0.540 OA
ATOM      8  C   LIG    1        8.288  -0.934  -1.273  0.00  0.00    +0.280 C 
ENDROOT
BRANCH   1   9
ATOM      9  S   LIG    1       11.003  -0.995  -1.299  0.00  0.00    +2.780 S 
ATOM     10  O   LIG    1       11.956  -0.095  -1.848  0.00  0.00    -0.970 OA
ATOM     11  O   LIG    1       10.742  -2.280  -1.847  0.00  0.00    -0.970 OA
BRANCH   9  13
ATOM     12  C   LIG    1       11.027  -2.458   0.976  0.00  0.00    +0.290 C 
ATOM     13  N   LIG    1       11.447  -1.240   0.278  0.00  0.00    -1.010 NA
ATOM     14  C   LIG    1       12.259  -0.240   0.974  0.00  0.00    +0.290 C 
ENDBRANCH   9  13
ENDBRANCH   1   9
BRANCH   6  15
ATOM     15  C   LIG    1        4.947   0.876  -0.040  0.00  0.00    +0.070 C 
BRANCH  15  16
ATOM     16  C   LIG    1        3.767   1.851  -0.024  0.00  0.00    +0.070 C 
BRANCH  16  17
ATOM     17  C   LIG    1        2.475   1.076  -0.015  0.00  0.00    +0.400 C 
ATOM     18  O   LIG    1        2.495  -0.137  -0.022  0.00  0.00    -0.450 OA
BRANCH  17  19
ATOM     19  C   LIG    1        1.188   1.790   0.000  0.00  0.00    -0.170 A 
ATOM     20  C   LIG    1        1.160   3.188   0.008  0.00  0.00    +0.070 A 
ATOM     21  C   LIG    1       -0.050   3.847   0.023  0.00  0.00    +0.010 A 
ATOM     22  C   LIG    1       -1.239   3.134   0.031  0.00  0.00    -0.060 A 
ATOM     23  C   LIG    1       -2.672   3.623   0.047  0.00  0.00    +0.080 C 
ATOM     24  C   LIG    1       -3.510   2.405   0.489  0.00  0.00    +0.030 C 
ATOM     25  C   LIG    1       -2.636   1.217   0.033  0.00  0.00    +0.080 C 
ATOM     26  C   LIG    1       -1.218   1.749   0.017  0.00  0.00    -0.110 A 
ATOM     27  C   LIG    1       -0.013   1.076   0.008  0.00  0.00    +0.080 A 
ENDBRANCH  17  19
ENDBRANCH  16  17
ENDBRANCH  15  16
ENDBRANCH   6  15
TORSDOF 6
