REMARK  Name = ZINCvU0000000GY0.0
REMARK                            x       y       z     vdW  Elec       q    Type
REMARK                         _______ _______ _______ _____ _____    ______ ____
ROOT
ATOM      1  N   LIG    1       -0.288   1.272  -2.443  0.00  0.00    -0.660 N 
ATOM      2  H   LIG    1        0.480   0.687  -2.534  0.00  0.00    +0.420 HD
ATOM      3  C   LIG    1       -0.650   1.725  -1.226  0.00  0.00    +0.540 C 
ATOM      4  O   LIG    1       -1.550   2.531  -1.121  0.00  0.00    -0.490 OA
ENDROOT
BRANCH   1   9
ATOM      5  C   LIG    1       -3.115   2.224  -4.607  0.00  0.00    -0.000 A 
ATOM      6  C   LIG    1       -2.462   2.387  -5.828  0.00  0.00    +0.020 A 
ATOM      7  C   LIG    1       -1.099   2.181  -5.916  0.00  0.00    +0.030 A 
ATOM      8  C   LIG    1       -0.379   1.812  -4.796  0.00  0.00    +0.000 A 
ATOM      9  C   LIG    1       -1.022   1.646  -3.575  0.00  0.00    +0.140 A 
ATOM     10  C   LIG    1       -2.390   1.846  -3.479  0.00  0.00    +0.060 A 
BRANCH   5  14
ATOM     11  C   LIG    1       -7.428   2.600  -2.215  0.00  0.00    +0.180 C 
ATOM     12  C   LIG    1       -6.511   2.610  -3.411  0.00  0.00    +0.050 A 
ATOM     13  N   LIG    1       -5.241   2.400  -3.364  0.00  0.00    -0.460 NA
ATOM     14  C   LIG    1       -4.579   2.445  -4.511  0.00  0.00    +0.110 A 
ATOM     15  C   LIG    1       -5.352   2.715  -5.583  0.00  0.00    -0.070 A 
ATOM     16  S   LIG    1       -7.010   2.902  -5.019  0.00  0.00    +0.130 S 
ENDBRANCH   5  14
ENDBRANCH   1   9
BRANCH   3  17
ATOM     17  C   LIG    1        0.064   1.229   0.005  0.00  0.00    +0.110 C 
BRANCH  17  18
ATOM     18  S   LIG    1       -0.645   2.016   1.472  0.00  0.00    +0.170 S 
BRANCH  18  19
ATOM     19  C   LIG    1        0.348   1.277   2.726  0.00  0.00    +0.130 A 
ATOM     20  N   LIG    1        1.312   0.407   2.543  0.00  0.00    -0.290 NA
ATOM     21  N   LIG    1        1.817   0.086   3.682  0.00  0.00    -0.240 NA
ATOM     22  C   LIG    1        1.202   0.731   4.629  0.00  0.00    +0.160 A 
ATOM     23  O   LIG    1        0.262   1.505   4.050  0.00  0.00    -0.190 OA
BRANCH  22  24
ATOM     24  C   LIG    1        1.492   0.636   6.105  0.00  0.00    +0.380 C 
BRANCH  24  25
ATOM     25  O   LIG    1        2.471   1.613   6.462  0.00  0.00    -0.310 OA
BRANCH  25  26
ATOM     26  C   LIG    1        2.848   1.661   7.767  0.00  0.00    +0.130 A 
ATOM     27  C   LIG    1        2.282   0.790   8.685  0.00  0.00    -0.060 A 
ATOM     28  C   LIG    1        2.669   0.837  10.011  0.00  0.00    +0.070 A 
ATOM     29  C   LIG    1        3.614   1.760  10.424  0.00  0.00    -0.070 A 
ATOM     30  C   LIG    1        4.176   2.633   9.510  0.00  0.00    +0.070 A 
ATOM     31 CL   LIG    1        4.094   1.821  12.091  0.00  0.00    -0.070 Cl
ATOM     32  C   LIG    1        3.795   2.586   8.183  0.00  0.00    +0.010 A 
ENDBRANCH  25  26
ENDBRANCH  24  25
ENDBRANCH  22  24
ENDBRANCH  18  19
ENDBRANCH  17  18
ENDBRANCH   3  17
TORSDOF 8
