REMARK  Name = ZINCzw0000000f6T.1
REMARK                            x       y       z     vdW  Elec       q    Type
REMARK                         _______ _______ _______ _____ _____    ______ ____
ROOT
ATOM      1  C   LIG    1       -2.441   0.885  -0.088  0.00  0.00    -0.300 C 
ATOM      2  C   LIG    1       -3.577   1.510   0.418  0.00  0.00    +0.330 C 
ATOM      3  C   LIG    1       -3.461   2.790   0.978  0.00  0.00    -0.350 A 
ATOM      4  C   LIG    1       -2.254   3.520   0.860  0.00  0.00    +0.500 A 
ATOM      5  N   LIG    1       -1.207   2.984   0.146  0.00  0.00    -0.500 N 
ATOM      6  N   LIG    1       -2.152   4.712   1.425  0.00  0.00    -0.560 NA
ATOM      7  C   LIG    1       -3.173   5.257   2.091  0.00  0.00    +0.450 A 
ATOM      8  C   LIG    1       -3.004   6.523   2.679  0.00  0.00    -0.100 A 
ATOM      9  C   LIG    1       -4.042   7.096   3.352  0.00  0.00    +0.180 A 
ATOM     10  C   LIG    1       -5.263   6.415   3.448  0.00  0.00    +0.040 A 
ATOM     11  C   LIG    1       -5.407   5.197   2.879  0.00  0.00    +0.310 A 
ATOM     12  C   LIG    1       -1.684   7.241   2.568  0.00  0.00    +0.160 C 
ATOM     13  N   LIG    1       -4.373   4.614   2.208  0.00  0.00    -0.430 N 
ATOM     14  C   LIG    1       -4.551   3.391   1.659  0.00  0.00    +0.560 A 
ATOM     15  O   LIG    1       -5.622   2.818   1.748  0.00  0.00    -0.460 OA
ATOM     16  C   LIG    1       -1.152   1.601   0.026  0.00  0.00    +0.590 C 
ENDROOT
BRANCH   1  19
ATOM     17  N   LIG    1       -3.717  -1.032  -0.890  0.00  0.00    -0.710 N 
ATOM     18  H   LIG    1       -4.532  -0.552  -0.674  0.00  0.00    +0.400 HD
ATOM     19  C   LIG    1       -2.519  -0.440  -0.713  0.00  0.00    +0.580 C 
ATOM     20  O   LIG    1       -1.503  -1.005  -1.071  0.00  0.00    -0.550 OA
BRANCH  17  21
ATOM     21  C   LIG    1       -3.789  -2.400  -1.409  0.00  0.00    +0.320 C 
BRANCH  21  23
ATOM     22  C   LIG    1       -5.707  -3.256  -2.653  0.00  0.00    +0.060 C 
ATOM     23  C   LIG    1       -5.232  -2.823  -1.512  0.00  0.00    -0.080 C 
ENDBRANCH  21  23
ENDBRANCH  17  21
ENDBRANCH   1  19
BRANCH  16  24
ATOM     24  N   LIG    1       -0.011   0.960   0.019  0.00  0.00    -0.700 NA
ATOM     25  H   LIG    1        0.823   1.454   0.010  0.00  0.00    +0.430 HD
ATOM     26  H   LIG    1        0.001  -0.011   0.020  0.00  0.00    +0.460 HD
ENDBRANCH  16  24
BRANCH   5  27
ATOM     27  C   LIG    1       -0.191   3.843  -0.467  0.00  0.00    +0.330 C 
BRANCH  27  28
ATOM     28  C   LIG    1       -0.627   4.215  -1.886  0.00  0.00    +0.080 C 
BRANCH  28  29
ATOM     29  C   LIG    1        0.419   5.099  -2.517  0.00  0.00    -0.100 A 
ATOM     30  C   LIG    1        0.333   6.472  -2.384  0.00  0.00    +0.030 A 
ATOM     31  C   LIG    1        1.292   7.286  -2.957  0.00  0.00    -0.030 A 
ATOM     32  C   LIG    1        2.337   6.727  -3.675  0.00  0.00    +0.110 A 
ATOM     33  C   LIG    1        2.420   5.345  -3.813  0.00  0.00    +0.110 A 
ATOM     34  C   LIG    1        1.459   4.534  -3.232  0.00  0.00    -0.040 A 
BRANCH  33  35
ATOM     35  O   LIG    1        3.444   4.791  -4.516  0.00  0.00    -0.300 OA
ATOM     36  C   LIG    1        3.466   3.366  -4.617  0.00  0.00    +0.250 C 
ENDBRANCH  33  35
BRANCH  32  37
ATOM     37  O   LIG    1        3.278   7.527  -4.243  0.00  0.00    -0.300 OA
ATOM     38  C   LIG    1        3.128   8.936  -4.060  0.00  0.00    +0.250 C 
ENDBRANCH  32  37
ENDBRANCH  28  29
ENDBRANCH  27  28
ENDBRANCH   5  27
TORSDOF 9
