REMARK  Name = ZINCkj000005fLZX.0
REMARK                            x       y       z     vdW  Elec       q    Type
REMARK                         _______ _______ _______ _____ _____    ______ ____
ROOT
ATOM      1  C   LIG    1       -0.266   2.990   6.487  0.00  0.00    +0.530 C 
ATOM      2  N   LIG    1       -0.698   3.586   7.616  0.00  0.00    -0.710 N 
ATOM      3  H   LIG    1       -1.387   3.165   8.154  0.00  0.00    +0.410 HD
ATOM      4  O   LIG    1        0.595   3.516   5.815  0.00  0.00    -0.510 OA
ENDROOT
BRANCH   2   5
ATOM      5  C   LIG    1       -0.127   4.870   8.031  0.00  0.00    +0.300 C 
ATOM      6  C   LIG    1       -0.988   5.770   8.919  0.00  0.00    -0.050 C 
ATOM      7  C   LIG    1       -0.631   7.270   8.998  0.00  0.00    +0.320 C 
ATOM      8  N   LIG    1        0.378   7.358  10.085  0.00  0.00    -0.520 N 
ATOM      9  C   LIG    1        1.227   6.154   9.893  0.00  0.00    +0.320 C 
ATOM     10  H   LIG    1        0.930   8.197   9.989  0.00  0.00    +0.440 HD
ATOM     11  H   LIG    1       -0.072   7.333  10.988  0.00  0.00    +0.430 HD
ATOM     12  C   LIG    1        0.235   5.036   9.508  0.00  0.00    -0.050 C 
ENDBRANCH   2   5
BRANCH   1  13
ATOM     13  C   LIG    1       -0.854   1.669   6.060  0.00  0.00    +0.120 C 
BRANCH  13  18
ATOM     14  C   LIG    1       -0.149   1.182   2.380  0.00  0.00    +0.140 A 
ATOM     15  C   LIG    1        0.994   0.397   2.421  0.00  0.00    -0.070 A 
ATOM     16  C   LIG    1        1.534   0.028   3.638  0.00  0.00    +0.050 A 
ATOM     17  C   LIG    1        0.936   0.440   4.814  0.00  0.00    -0.020 A 
ATOM     18  C   LIG    1       -0.204   1.222   4.776  0.00  0.00    -0.040 A 
ATOM     19  C   LIG    1       -0.744   1.599   3.562  0.00  0.00    -0.010 A 
BRANCH  14  20
ATOM     20  O   LIG    1       -0.682   1.547   1.184  0.00  0.00    -0.320 OA
BRANCH  20  21
ATOM     21  C   LIG    1       -0.013   1.086   0.008  0.00  0.00    +0.180 C 
BRANCH  21  23
ATOM     22  C   LIG    1       -0.037   1.099  -2.490  0.00  0.00    +0.040 C 
ATOM     23  C   LIG    1       -0.753   1.593  -1.232  0.00  0.00    +0.020 C 
ENDBRANCH  21  23
ENDBRANCH  20  21
ENDBRANCH  14  20
ENDBRANCH  13  18
ENDBRANCH   1  13
TORSDOF 6
