REMARK  Name = ZINCpe000000WrEY.0
REMARK                            x       y       z     vdW  Elec       q    Type
REMARK                         _______ _______ _______ _____ _____    ______ ____
ROOT
ATOM      1  N   LIG    1       -2.433   1.028   0.025  0.00  0.00    -0.680 N 
ATOM      2  H   LIG    1       -3.276   1.499   0.113  0.00  0.00    +0.410 HD
ATOM      3  C   LIG    1       -2.418  -0.314  -0.090  0.00  0.00    +0.710 C 
ATOM      4  N   LIG    1       -3.577  -0.995  -0.190  0.00  0.00    -0.630 N 
ATOM      5  C   LIG    1       -4.863  -0.286  -0.285  0.00  0.00    +0.290 C 
ATOM      6  C   LIG    1       -5.631  -0.843  -1.494  0.00  0.00    +0.190 C 
ATOM      7  N   LIG    1       -5.735  -2.303  -1.372  0.00  0.00    -0.520 NA
ATOM      8  C   LIG    1       -4.410  -2.936  -1.406  0.00  0.00    +0.170 C 
ATOM      9  C   LIG    1       -3.591  -2.465  -0.200  0.00  0.00    +0.310 C 
ATOM     10  O   LIG    1       -1.359  -0.912  -0.104  0.00  0.00    -0.570 OA
ENDROOT
BRANCH   1  14
ATOM     11  C   LIG    1        1.081   3.190   0.062  0.00  0.00    +0.300 A 
ATOM     12  C   LIG    1        1.025   2.036  -0.709  0.00  0.00    -0.020 A 
ATOM     13  C   LIG    1       -0.146   1.300  -0.737  0.00  0.00    +0.110 A 
ATOM     14  C   LIG    1       -1.228   1.745   0.019  0.00  0.00    +0.080 A 
ATOM     15  C   LIG    1       -1.100   2.910   0.760  0.00  0.00    +0.280 A 
ATOM     16  N   LIG    1        0.032   3.587   0.763  0.00  0.00    -0.520 NA
BRANCH  11  18
ATOM     17  C   LIG    1        2.221   5.096   0.906  0.00  0.00    +0.260 C 
ATOM     18  O   LIG    1        2.225   3.920   0.096  0.00  0.00    -0.310 OA
ENDBRANCH  11  18
ENDBRANCH   1  14
BRANCH   7  19
ATOM     19  C   LIG    1       -6.611  -2.857  -2.412  0.00  0.00    +0.210 C 
BRANCH  19  20
ATOM     20  C   LIG    1       -8.021  -2.371  -2.195  0.00  0.00    +0.530 C 
ATOM     21  N   LIG    1       -9.003  -2.754  -3.034  0.00  0.00    -0.620 N 
ATOM     22  C   LIG    1       -8.839  -3.634  -4.200  0.00  0.00    +0.240 C 
ATOM     23  C   LIG    1      -10.223  -3.771  -4.869  0.00  0.00    +0.030 C 
ATOM     24  C   LIG    1      -10.971  -2.503  -4.378  0.00  0.00    +0.030 C 
ATOM     25  C   LIG    1      -10.419  -2.355  -2.938  0.00  0.00    +0.260 C 
ATOM     26  O   LIG    1       -8.271  -1.634  -1.264  0.00  0.00    -0.520 OA
ENDBRANCH  19  20
ENDBRANCH   7  19
TORSDOF 4
