REMARK  Name = ZINCqH000000771M.0
REMARK                            x       y       z     vdW  Elec       q    Type
REMARK                         _______ _______ _______ _____ _____    ______ ____
ROOT
ATOM      1  C   LIG    1        7.476   1.458  -4.613  0.00  0.00    -0.060 C 
ATOM      2  C   LIG    1        6.178   1.391  -4.782  0.00  0.00    -0.050 C 
ATOM      3  C   LIG    1        5.196   2.209  -3.991  0.00  0.00    +0.310 C 
ATOM      4  N   LIG    1        5.896   2.852  -2.870  0.00  0.00    -0.630 N 
ATOM      5  C   LIG    1        7.208   3.459  -3.151  0.00  0.00    +0.300 C 
ATOM      6  C   LIG    1        5.357   2.889  -1.635  0.00  0.00    +0.710 C 
ATOM      7  N   LIG    1        4.199   2.245  -1.386  0.00  0.00    -0.740 N 
ATOM      8  H   LIG    1        3.716   1.817  -2.111  0.00  0.00    +0.390 HD
ATOM      9  O   LIG    1        5.914   3.504  -0.747  0.00  0.00    -0.590 OA
ATOM     10  C   LIG    1        8.155   2.338  -3.604  0.00  0.00    +0.070 C 
ENDROOT
BRANCH   1  14
ATOM     11  C   LIG    1        9.928  -0.977  -7.084  0.00  0.00    +0.130 A 
ATOM     12  C   LIG    1        9.168   0.039  -7.649  0.00  0.00    -0.020 A 
ATOM     13  C   LIG    1        8.371   0.831  -6.850  0.00  0.00    +0.060 A 
ATOM     14  C   LIG    1        8.329   0.611  -5.472  0.00  0.00    -0.100 A 
ATOM     15  C   LIG    1        9.098  -0.408  -4.908  0.00  0.00    +0.050 A 
ATOM     16  C   LIG    1        9.889  -1.199  -5.714  0.00  0.00    -0.080 A 
BRANCH  11  18
ATOM     17  C   LIG    1       11.468  -2.782  -7.229  0.00  0.00    +0.250 C 
ATOM     18  O   LIG    1       10.713  -1.755  -7.874  0.00  0.00    -0.320 OA
ENDBRANCH  11  18
ENDBRANCH   1  14
BRANCH   7  19
ATOM     19  C   LIG    1        3.670   2.191  -0.021  0.00  0.00    +0.350 C 
BRANCH  19  20
ATOM     20  C   LIG    1        2.376   1.419  -0.014  0.00  0.00    -0.150 A 
ATOM     21  C   LIG    1        1.170   2.092   0.004  0.00  0.00    +0.070 A 
ATOM     22  C   LIG    1       -0.018   1.383   0.011  0.00  0.00    -0.030 A 
ATOM     23  C   LIG    1       -0.001   0.001   0.000  0.00  0.00    +0.060 A 
ATOM     24  C   LIG    1        1.203  -0.676  -0.017  0.00  0.00    -0.080 A 
ATOM     25  C   LIG    1        2.396   0.032  -0.024  0.00  0.00    +0.140 A 
BRANCH  25  26
ATOM     26  O   LIG    1        3.581  -0.632  -0.041  0.00  0.00    -0.310 OA
ATOM     27  C   LIG    1        3.525  -2.060  -0.051  0.00  0.00    +0.250 C 
ENDBRANCH  25  26
ENDBRANCH  19  20
ENDBRANCH   7  19
TORSDOF 5
