REMARK  Name = ZINCrH000004udYM.0
REMARK                            x       y       z     vdW  Elec       q    Type
REMARK                         _______ _______ _______ _____ _____    ______ ____
ROOT
ATOM      1  C   LIG    1        3.738   1.521  -0.025  0.00  0.00    +0.310 C 
ENDROOT
BRANCH   1   2
ATOM      2  N   LIG    1        4.865   0.584  -0.044  0.00  0.00    -0.580 N 
ATOM      3  C   LIG    1        5.407   0.141   1.168  0.00  0.00    +0.190 A 
ATOM      4  C   LIG    1        5.514   1.001   2.245  0.00  0.00    -0.020 A 
ATOM      5  C   LIG    1        6.051   0.552   3.439  0.00  0.00    +0.050 A 
ATOM      6  C   LIG    1        6.478  -0.755   3.567  0.00  0.00    +0.000 A 
ATOM      7  C   LIG    1        6.369  -1.629   2.497  0.00  0.00    +0.070 A 
ATOM      8  C   LIG    1        5.833  -1.186   1.302  0.00  0.00    -0.150 A 
ATOM      9  S   LIG    1        5.682  -2.280  -0.075  0.00  0.00    +0.010 S 
ATOM     10  C   LIG    1        5.809  -1.163  -1.436  0.00  0.00    -0.150 A 
ATOM     11  C   LIG    1        6.323  -1.586  -2.648  0.00  0.00    +0.070 A 
ATOM     12  C   LIG    1        6.410  -0.695  -3.705  0.00  0.00    +0.000 A 
ATOM     13  C   LIG    1        5.985   0.610  -3.549  0.00  0.00    +0.050 A 
ATOM     14  C   LIG    1        5.470   1.038  -2.337  0.00  0.00    -0.020 A 
ATOM     15  C   LIG    1        5.380   0.156  -1.273  0.00  0.00    +0.190 A 
ENDBRANCH   1   2
BRANCH   1  16
ATOM     16  C   LIG    1        2.424   0.738  -0.019  0.00  0.00    +0.010 C 
BRANCH  16  17
ATOM     17  C   LIG    1        1.248   1.716  -0.000  0.00  0.00    +0.280 C 
BRANCH  17  20
ATOM     18  O   LIG    1       -1.205   2.835   0.117  0.00  0.00    -0.460 OA
ATOM     19  C   LIG    1       -1.187   1.624   0.017  0.00  0.00    +0.550 C 
ATOM     20  N   LIG    1       -0.011   0.966   0.005  0.00  0.00    -0.720 N 
ATOM     21  H   LIG    1        0.002  -0.004  -0.003  0.00  0.00    +0.400 HD
BRANCH  19  22
ATOM     22  C   LIG    1       -2.457   0.872  -0.093  0.00  0.00    +0.050 C 
ATOM     23  C   LIG    1       -2.436  -0.522  -0.101  0.00  0.00    +0.070 C 
ATOM     24  C   LIG    1       -3.632  -1.212  -0.204  0.00  0.00    +0.070 C 
ATOM     25  C   LIG    1       -4.810  -0.486  -0.296  0.00  0.00    +0.070 C 
ATOM     26  C   LIG    1       -4.758   0.897  -0.283  0.00  0.00    +0.260 C 
ATOM     27  N   LIG    1       -3.608   1.530  -0.179  0.00  0.00    -0.090 NA
ATOM     28  O   LIG    1       -3.597   2.946  -0.163  0.00  0.00    -0.490 OA
ENDBRANCH  19  22
ENDBRANCH  17  20
ENDBRANCH  16  17
ENDBRANCH   1  16
TORSDOF 5
