REMARK  Name = ZINCrD000000CoB2.0
REMARK                            x       y       z     vdW  Elec       q    Type
REMARK                         _______ _______ _______ _____ _____    ______ ____
ROOT
ATOM      1  C   LIG    1       -4.607   3.936   3.172  0.00  0.00    +0.290 C 
ATOM      2  C   LIG    1       -4.367   4.498   4.596  0.00  0.00    +0.080 C 
ATOM      3  C   LIG    1       -3.535   3.360   5.244  0.00  0.00    +0.060 C 
ATOM      4  C   LIG    1       -2.675   2.846   4.069  0.00  0.00    +0.270 C 
ATOM      5  N   LIG    1       -3.356   3.237   2.826  0.00  0.00    -0.600 N 
ATOM      6  C   LIG    1       -2.912   2.993   1.577  0.00  0.00    +0.670 C 
ATOM      7  O   LIG    1       -3.563   3.359   0.619  0.00  0.00    -0.550 OA
ENDROOT
BRANCH   1   9
ATOM      8  O   LIG    1       -3.965   5.491   1.523  0.00  0.00    -0.470 OA
ATOM      9  C   LIG    1       -4.866   5.059   2.201  0.00  0.00    +0.460 C 
BRANCH   9  10
ATOM     10  O   LIG    1       -6.098   5.580   2.091  0.00  0.00    -0.350 OA
BRANCH  10  11
ATOM     11  C   LIG    1       -6.274   6.660   1.136  0.00  0.00    +0.220 C 
BRANCH  11  12
ATOM     12  C   LIG    1       -7.733   7.121   1.151  0.00  0.00    +0.030 C 
BRANCH  12  13
ATOM     13  C   LIG    1       -7.919   8.258   0.145  0.00  0.00    +0.310 C 
BRANCH  13  14
ATOM     14  N   LIG    1       -9.316   8.700   0.159  0.00  0.00    -0.460 N 
ATOM     15  C   LIG    1       -9.850   9.679   0.952  0.00  0.00    +0.110 A 
ATOM     16  C   LIG    1      -11.158   9.760   0.643  0.00  0.00    +0.140 A 
ATOM     17  N   LIG    1      -11.416   8.856  -0.314  0.00  0.00    -0.490 NA
ATOM     18  C   LIG    1      -10.315   8.221  -0.613  0.00  0.00    +0.380 A 
ENDBRANCH  13  14
ENDBRANCH  12  13
ENDBRANCH  11  12
ENDBRANCH  10  11
ENDBRANCH   9  10
ENDBRANCH   1   9
BRANCH   6  19
ATOM     19  O   LIG    1       -1.748   2.342   1.392  0.00  0.00    -0.360 OA
BRANCH  19  20
ATOM     20  C   LIG    1       -1.332   2.114   0.020  0.00  0.00    +0.290 C 
BRANCH  20  21
ATOM     21  C   LIG    1       -0.017   1.378   0.010  0.00  0.00    -0.080 A 
ATOM     22  C   LIG    1        1.171   2.086   0.002  0.00  0.00    +0.050 A 
ATOM     23  C   LIG    1        2.377   1.412  -0.013  0.00  0.00    +0.050 A 
ATOM     24  C   LIG    1        2.397   0.029  -0.021  0.00  0.00    -0.080 A 
ATOM     25  C   LIG    1        1.208  -0.679  -0.013  0.00  0.00    +0.050 A 
ATOM     26 BR   LIG    1        4.047  -0.894  -0.042  0.00  0.00    -0.040 Br
ATOM     27  C   LIG    1        0.002  -0.004   0.002  0.00  0.00    +0.050 A 
ENDBRANCH  20  21
ENDBRANCH  19  20
ENDBRANCH   6  19
TORSDOF 9
