REMARK  Name = ZINCrH000004uIkV.0
REMARK                            x       y       z     vdW  Elec       q    Type
REMARK                         _______ _______ _______ _____ _____    ______ ____
ROOT
ATOM      1  C   LIG    1       -4.899   2.110   0.036  0.00  0.00    +0.410 C 
ENDROOT
BRANCH   1   2
ATOM      2  C   LIG    1       -3.444   2.502   0.032  0.00  0.00    +0.020 A 
ATOM      3  N   LIG    1       -2.461   1.672   0.018  0.00  0.00    -0.430 NA
ATOM      4  C   LIG    1       -1.237   2.183   0.020  0.00  0.00    +0.130 A 
ATOM      5  C   LIG    1       -1.206   3.534   0.027  0.00  0.00    -0.040 A 
ATOM      6  S   LIG    1       -2.870   4.112   0.038  0.00  0.00    +0.190 S 
BRANCH   4   7
ATOM      7  C   LIG    1       -0.016   1.351   0.009  0.00  0.00    +0.090 A 
ATOM      8  C   LIG    1        0.002  -0.004   0.002  0.00  0.00    +0.020 A 
ATOM      9  C   LIG    1        1.415  -0.391  -0.014  0.00  0.00    -0.140 A 
ATOM     10  C   LIG    1        2.089  -1.613  -0.027  0.00  0.00    +0.060 A 
ATOM     11  C   LIG    1        3.466  -1.630  -0.041  0.00  0.00    -0.010 A 
ATOM     12  C   LIG    1        4.180  -0.441  -0.041  0.00  0.00    +0.050 A 
ATOM     13  C   LIG    1        3.526   0.774  -0.028  0.00  0.00    +0.020 A 
ATOM     14  C   LIG    1        2.139   0.815  -0.014  0.00  0.00    +0.060 A 
ATOM     15  O   LIG    1        1.245   1.825   0.000  0.00  0.00    -0.190 OA
ENDBRANCH   4   7
ENDBRANCH   1   2
BRANCH   1  18
ATOM     16  O   LIG    1       -7.409   1.428   0.747  0.00  0.00    -0.480 OA
ATOM     17  C   LIG    1       -6.643   1.628   1.668  0.00  0.00    +0.550 C 
ATOM     18  N   LIG    1       -5.365   1.975   1.418  0.00  0.00    -0.720 N 
ATOM     19  H   LIG    1       -4.753   2.135   2.154  0.00  0.00    +0.400 HD
BRANCH  17  20
ATOM     20  C   LIG    1       -7.115   1.491   3.068  0.00  0.00    +0.030 A 
ATOM     21  C   LIG    1       -8.444   1.137   3.346  0.00  0.00    +0.050 A 
ATOM     22  N   LIG    1       -9.518   0.845   2.598  0.00  0.00    -0.510 NA
ATOM     23  C   LIG    1      -10.521   0.568   3.406  0.00  0.00    +0.470 A 
ATOM     24  N   LIG    1      -10.136   0.665   4.672  0.00  0.00    -0.560 NA
ATOM     25  C   LIG    1       -8.853   1.011   4.702  0.00  0.00    +0.230 A 
ATOM     26  N   LIG    1       -7.956   1.247   5.700  0.00  0.00    -0.460 N 
ATOM     27  H   LIG    1       -8.238   1.165   6.625  0.00  0.00    +0.430 HD
ATOM     28  C   LIG    1       -6.690   1.590   5.423  0.00  0.00    +0.330 A 
ATOM     29  C   LIG    1       -6.246   1.718   4.141  0.00  0.00    -0.020 A 
ENDBRANCH  17  20
ENDBRANCH   1  18
TORSDOF 4
