REMARK  Name = ZINCrH000004rBKK.0
REMARK                            x       y       z     vdW  Elec       q    Type
REMARK                         _______ _______ _______ _____ _____    ______ ____
ROOT
ATOM      1  N   LIG    1       -0.011   0.966   0.007  0.00  0.00    -0.720 N 
ATOM      2  H   LIG    1        0.002  -0.004   0.002  0.00  0.00    +0.400 HD
ATOM      3  C   LIG    1        1.147   1.655   0.000  0.00  0.00    +0.560 C 
ATOM      4  O   LIG    1        1.130   2.871   0.007  0.00  0.00    -0.500 OA
ENDROOT
BRANCH   3   5
ATOM      5  C   LIG    1        2.436   0.934  -0.016  0.00  0.00    -0.150 A 
ATOM      6  C   LIG    1        2.459  -0.462  -0.018  0.00  0.00    +0.170 A 
ATOM      7  C   LIG    1        3.666  -1.129  -0.038  0.00  0.00    -0.690 A 
ATOM      8  C   LIG    1        4.854  -0.418  -0.046  0.00  0.00    +0.180 A 
ATOM      9  C   LIG    1        4.840   0.965  -0.039  0.00  0.00    +0.010 A 
ATOM     10  C   LIG    1        3.639   1.646  -0.024  0.00  0.00    +0.060 A 
ATOM     11 CL   LIG    1        3.623   3.382  -0.014  0.00  0.00    -0.010 Cl
BRANCH   7  12
ATOM     12  S   LIG    1        3.696  -2.890  -0.047  0.00  0.00    +2.690 S 
ATOM     13  O   LIG    1        4.947  -3.268  -0.605  0.00  0.00    -0.950 OA
ATOM     14  O   LIG    1        2.448  -3.310  -0.581  0.00  0.00    -0.950 OA
BRANCH  12  15
ATOM     15  N   LIG    1        3.720  -3.388   1.532  0.00  0.00    -1.000 NA
ATOM     16  C   LIG    1        4.999  -3.587   2.219  0.00  0.00    +0.300 C 
ATOM     17  C   LIG    1        2.462  -3.630   2.243  0.00  0.00    +0.310 C 
ENDBRANCH  12  15
ENDBRANCH   7  12
ENDBRANCH   3   5
BRANCH   1  18
ATOM     18  C   LIG    1       -1.290   1.681   0.017  0.00  0.00    +0.320 C 
BRANCH  18  23
ATOM     19  C   LIG    1       -5.391  -1.676  -2.285  0.00  0.00    +0.090 C 
ATOM     20  C   LIG    1       -4.322  -0.800  -1.685  0.00  0.00    -0.080 A 
ATOM     21  C   LIG    1       -4.295   0.552  -1.970  0.00  0.00    +0.000 A 
ATOM     22  C   LIG    1       -3.313   1.355  -1.419  0.00  0.00    +0.020 A 
ATOM     23  C   LIG    1       -2.360   0.806  -0.583  0.00  0.00    -0.100 A 
ATOM     24  C   LIG    1       -2.384  -0.548  -0.302  0.00  0.00    +0.010 A 
ATOM     25  C   LIG    1       -3.368  -1.349  -0.848  0.00  0.00    +0.020 A 
ENDBRANCH  18  23
BRANCH  18  26
ATOM     26  C   LIG    1       -1.667   2.032   1.458  0.00  0.00    -0.060 C 
ATOM     27  C   LIG    1       -2.036   3.486   1.758  0.00  0.00    +0.020 C 
ATOM     28  C   LIG    1       -0.700   2.920   2.245  0.00  0.00    +0.030 C 
ENDBRANCH  18  26
ENDBRANCH   1  18
TORSDOF 6
