REMARK  Name = ZINCpk000000nvgc.0
REMARK                            x       y       z     vdW  Elec       q    Type
REMARK                         _______ _______ _______ _____ _____    ______ ____
ROOT
ATOM      1  C   LIG    1       -0.150   5.588  -2.697  0.00  0.00    +0.260 C 
ENDROOT
BRANCH   1   2
ATOM      2  N   LIG    1        0.596   6.588  -3.466  0.00  0.00    -0.560 N 
ATOM      3  C   LIG    1        1.774   6.357  -4.073  0.00  0.00    +0.580 C 
ATOM      4  C   LIG    1        2.208   7.600  -4.745  0.00  0.00    -0.130 A 
ATOM      5  C   LIG    1        3.309   7.953  -5.508  0.00  0.00    +0.090 A 
ATOM      6  C   LIG    1        3.418   9.245  -6.000  0.00  0.00    +0.050 A 
ATOM      7  C   LIG    1        2.437  10.181  -5.735  0.00  0.00    +0.040 A 
ATOM      8  C   LIG    1        1.329   9.841  -4.974  0.00  0.00    +0.100 A 
ATOM      9  C   LIG    1        1.206   8.555  -4.476  0.00  0.00    -0.140 A 
ATOM     10  O   LIG    1        2.378   5.304  -4.071  0.00  0.00    -0.440 OA
ATOM     11  C   LIG    1        0.195   7.858  -3.653  0.00  0.00    +0.580 C 
ATOM     12  O   LIG    1       -0.826   8.350  -3.218  0.00  0.00    -0.460 OA
ENDBRANCH   1   2
BRANCH   1  13
ATOM     13  C   LIG    1        0.697   5.103  -1.549  0.00  0.00    +0.510 C 
ATOM     14  N   LIG    1        0.127   4.440  -0.523  0.00  0.00    -0.610 N 
ATOM     15  C   LIG    1        0.948   3.864   0.553  0.00  0.00    +0.300 C 
ATOM     16  C   LIG    1        0.548   2.396   0.737  0.00  0.00    +0.170 C 
ATOM     17  N   LIG    1       -0.903   2.309   0.948  0.00  0.00    -0.540 NA
ATOM     18  C   LIG    1       -1.642   2.789  -0.227  0.00  0.00    +0.170 C 
ATOM     19  C   LIG    1       -1.303   0.940   1.299  0.00  0.00    +0.190 C 
ATOM     20  C   LIG    1       -1.332   4.273  -0.451  0.00  0.00    +0.280 C 
ATOM     21  O   LIG    1        1.893   5.309  -1.547  0.00  0.00    -0.510 OA
ENDBRANCH   1  13
BRANCH   1  22
ATOM     22  C   LIG    1       -0.504   4.407  -3.603  0.00  0.00    +0.050 C 
BRANCH  22  24
ATOM     23  C   LIG    1       -1.699   3.732  -5.691  0.00  0.00    +0.030 C 
ATOM     24  C   LIG    1       -1.444   4.881  -4.714  0.00  0.00    -0.030 C 
ATOM     25  C   LIG    1       -2.771   5.334  -4.101  0.00  0.00    +0.020 C 
ENDBRANCH  22  24
ENDBRANCH   1  22
TORSDOF 4
