REMARK  Name = ZINCvU00000006mX.0
REMARK                            x       y       z     vdW  Elec       q    Type
REMARK                         _______ _______ _______ _____ _____    ______ ____
ROOT
ATOM      1  C   LIG    1       -2.003   3.687   8.039  0.00  0.00    +0.000 C 
ATOM      2  C   LIG    1       -2.840   2.696   8.850  0.00  0.00    +0.090 C 
ENDROOT
BRANCH   1   3
ATOM      3  C   LIG    1       -2.026   3.292   6.585  0.00  0.00    +0.410 C 
ATOM      4  O   LIG    1       -2.831   3.801   5.829  0.00  0.00    -0.460 OA
BRANCH   3   5
ATOM      5  C   LIG    1       -1.118   2.338   6.103  0.00  0.00    -0.230 C 
ATOM      6  C   LIG    1       -1.092   2.034   4.782  0.00  0.00    +0.270 C 
ATOM      7  N   LIG    1       -0.234   1.178   4.165  0.00  0.00    -0.530 N 
ATOM      8  C   LIG    1       -0.480   1.090   2.796  0.00  0.00    +0.130 A 
ATOM      9  C   LIG    1        0.153   0.341   1.805  0.00  0.00    -0.020 A 
ATOM     10  C   LIG    1       -0.272   0.425   0.495  0.00  0.00    +0.040 A 
ATOM     11  C   LIG    1       -1.326   1.252   0.154  0.00  0.00    -0.010 A 
ATOM     12  C   LIG    1       -1.959   2.000   1.132  0.00  0.00    +0.070 A 
ATOM     13  C   LIG    1       -1.538   1.918   2.440  0.00  0.00    -0.130 A 
ATOM     14  C   LIG    1        0.821   0.434   4.857  0.00  0.00    +0.320 C 
ATOM     15  C   LIG    1       -2.007   2.588   3.711  0.00  0.00    +0.000 C 
ATOM     16  C   LIG    1       -1.851   4.106   3.605  0.00  0.00    +0.070 C 
ATOM     17  C   LIG    1       -3.462   2.218   4.006  0.00  0.00    +0.080 C 
ENDBRANCH   3   5
ENDBRANCH   1   3
BRANCH   1  18
ATOM     18  S   LIG    1       -2.691   5.351   8.223  0.00  0.00    +0.110 S 
BRANCH  18  22
ATOM     19  C   LIG    1       -2.337   6.480  11.918  0.00  0.00    +0.220 A 
ATOM     20  N   LIG    1       -1.804   5.283  11.950  0.00  0.00    -0.240 NA
ATOM     21  N   LIG    1       -1.851   4.762  10.775  0.00  0.00    -0.290 NA
ATOM     22  C   LIG    1       -2.409   5.610   9.943  0.00  0.00    +0.120 A 
ATOM     23  O   LIG    1       -2.732   6.713  10.646  0.00  0.00    -0.200 OA
BRANCH  19  29
ATOM     24  C   LIG    1       -2.024   7.030  14.331  0.00  0.00    +0.180 A 
ATOM     25  C   LIG    1       -2.162   7.904  15.396  0.00  0.00    -0.070 A 
ATOM     26  C   LIG    1       -2.748   9.142  15.205  0.00  0.00    +0.080 A 
ATOM     27  C   LIG    1       -3.201   9.516  13.952  0.00  0.00    -0.020 A 
ATOM     28  C   LIG    1       -3.065   8.658  12.879  0.00  0.00    +0.100 A 
ATOM     29  C   LIG    1       -2.480   7.405  13.060  0.00  0.00    -0.060 A 
BRANCH  24  31
ATOM     30  C   LIG    1       -1.007   5.501  15.840  0.00  0.00    +0.250 C 
ATOM     31  O   LIG    1       -1.448   5.814  14.518  0.00  0.00    -0.290 OA
ENDBRANCH  24  31
ENDBRANCH  19  29
ENDBRANCH  18  22
ENDBRANCH   1  18
TORSDOF 6
