REMARK  Name = ZINCrD000000f203.0
REMARK                            x       y       z     vdW  Elec       q    Type
REMARK                         _______ _______ _______ _____ _____    ______ ____
ROOT
ATOM      1  C   LIG    1        3.558   2.034   0.165  0.00  0.00    -0.190 A 
ATOM      2  C   LIG    1        4.795   1.391   0.249  0.00  0.00    +0.110 A 
ATOM      3  C   LIG    1        4.857   0.015   0.235  0.00  0.00    -0.030 A 
ATOM      4  C   LIG    1        3.695  -0.738   0.137  0.00  0.00    +0.150 A 
ATOM      5  C   LIG    1        2.462  -0.114   0.058  0.00  0.00    -0.010 A 
ATOM      6  F   LIG    1        3.767  -2.087   0.123  0.00  0.00    -0.130 F 
ATOM      7  C   LIG    1        2.383   1.271   0.066  0.00  0.00    +0.240 A 
ENDROOT
BRANCH   1  10
ATOM      8  N   LIG    1        4.618   4.237   0.165  0.00  0.00    -0.720 N 
ATOM      9  H   LIG    1        5.481   3.793   0.144  0.00  0.00    +0.410 HD
ATOM     10  C   LIG    1        3.486   3.506   0.181  0.00  0.00    +0.570 C 
ATOM     11  O   LIG    1        2.404   4.062   0.208  0.00  0.00    -0.540 OA
BRANCH   8  12
ATOM     12  C   LIG    1        4.546   5.700   0.181  0.00  0.00    +0.250 C 
BRANCH  12  13
ATOM     13  C   LIG    1        5.962   6.280   0.158  0.00  0.00    +0.200 C 
BRANCH  13  14
ATOM     14  O   LIG    1        6.594   5.946  -1.079  0.00  0.00    -0.560 OA
ATOM     15  H   LIG    1        6.134   6.284  -1.860  0.00  0.00    +0.380 HD
ENDBRANCH  13  14
BRANCH  13  16
ATOM     16  C   LIG    1        5.892   7.802   0.300  0.00  0.00    +0.020 C 
BRANCH  16  17
ATOM     17  C   LIG    1        7.309   8.370   0.402  0.00  0.00    +0.170 C 
BRANCH  17  19
ATOM     18  C   LIG    1        7.187  11.002   0.648  0.00  0.00    +0.020 C 
ATOM     19  C   LIG    1        7.241   9.834   0.539  0.00  0.00    -0.200 C 
ENDBRANCH  17  19
ENDBRANCH  16  17
ENDBRANCH  13  16
ENDBRANCH  12  13
ENDBRANCH   8  12
ENDBRANCH   1  10
BRANCH   7  20
ATOM     20  N   LIG    1        1.145   1.901  -0.018  0.00  0.00    -0.650 N 
ATOM     21  H   LIG    1        1.058   2.737  -0.502  0.00  0.00    +0.430 HD
ATOM     22  C   LIG    1        0.067   1.350   0.574  0.00  0.00    +0.560 C 
ATOM     23  O   LIG    1        0.157   0.264   1.111  0.00  0.00    -0.510 OA
BRANCH  22  24
ATOM     24  C   LIG    1       -1.228   2.064   0.564  0.00  0.00    -0.130 A 
ATOM     25  C   LIG    1       -1.334   3.314  -0.048  0.00  0.00    +0.080 A 
ATOM     26  C   LIG    1       -2.546   3.973  -0.058  0.00  0.00    +0.020 A 
ATOM     27  C   LIG    1       -3.652   3.403   0.545  0.00  0.00    +0.080 A 
ATOM     28  C   LIG    1       -3.553   2.165   1.158  0.00  0.00    -0.100 A 
ATOM     29 BR   LIG    1       -5.072   1.394   1.979  0.00  0.00    -0.040 Br
ATOM     30  C   LIG    1       -2.348   1.493   1.171  0.00  0.00    +0.120 A 
ENDBRANCH  22  24
ENDBRANCH   7  20
TORSDOF 9
