REMARK  Name = ZINCrg000000mRIV.0
REMARK                            x       y       z     vdW  Elec       q    Type
REMARK                         _______ _______ _______ _____ _____    ______ ____
ROOT
ATOM      1  S   LIG    1       -4.009   1.975   0.023  0.00  0.00    +2.700 S 
ATOM      2  O   LIG    1       -4.953   1.067  -0.526  0.00  0.00    -0.950 OA
ATOM      3  O   LIG    1       -3.787   3.277  -0.501  0.00  0.00    -0.950 OA
ENDROOT
BRANCH   1  10
ATOM      4  C   LIG    1        3.166  -2.246  -0.208  0.00  0.00    +0.110 C 
ATOM      5  C   LIG    1        1.706  -1.885  -0.113  0.00  0.00    +0.520 C 
ATOM      6  N   LIG    1        1.332  -0.591  -0.086  0.00  0.00    -0.550 N 
ATOM      7  C   LIG    1        0.009  -0.138  -0.062  0.00  0.00    +0.200 A 
ATOM      8  C   LIG    1       -1.177  -0.873  -0.061  0.00  0.00    +0.000 A 
ATOM      9  C   LIG    1       -2.395  -0.228  -0.035  0.00  0.00    +0.150 A 
ATOM     10  C   LIG    1       -2.450   1.154  -0.010  0.00  0.00    -0.700 A 
ATOM     11  C   LIG    1       -1.279   1.889  -0.006  0.00  0.00    +0.160 A 
ATOM     12  C   LIG    1       -0.057   1.246  -0.037  0.00  0.00    -0.160 A 
ATOM     13  C   LIG    1        1.352   1.795  -0.044  0.00  0.00    +0.120 C 
ATOM     14  C   LIG    1        2.253   0.549  -0.077  0.00  0.00    +0.220 C 
ATOM     15  C   LIG    1        3.112   0.548  -1.343  0.00  0.00    +0.050 C 
ATOM     16  O   LIG    1        0.867  -2.760  -0.062  0.00  0.00    -0.510 OA
ENDBRANCH   1  10
BRANCH   1  17
ATOM     17  N   LIG    1       -4.423   2.176   1.614  0.00  0.00    -1.000 NA
ATOM     18  C   LIG    1       -5.205   1.154   2.325  0.00  0.00    +0.320 C 
ATOM     19  C   LIG    1       -4.474   0.810   3.633  0.00  0.00    +0.170 C 
ATOM     20  N   LIG    1       -4.232   2.045   4.391  0.00  0.00    -0.520 NA
ATOM     21  C   LIG    1       -3.343   2.955   3.656  0.00  0.00    +0.170 C 
ATOM     22  C   LIG    1       -4.023   3.384   2.352  0.00  0.00    +0.320 C 
BRANCH  20  23
ATOM     23  C   LIG    1       -3.693   1.746   5.725  0.00  0.00    +0.110 C 
ATOM     24  C   LIG    1       -4.553   0.668   6.428  0.00  0.00    +0.020 C 
ATOM     25  C   LIG    1       -4.610   1.196   7.884  0.00  0.00    +0.210 C 
ATOM     26  O   LIG    1       -4.693   2.628   7.720  0.00  0.00    -0.370 OA
ATOM     27  C   LIG    1       -3.809   2.979   6.642  0.00  0.00    +0.210 C 
ENDBRANCH  20  23
ENDBRANCH   1  17
TORSDOF 3
