REMARK  Name = ZINCvU00000009wD.0
REMARK                            x       y       z     vdW  Elec       q    Type
REMARK                         _______ _______ _______ _____ _____    ______ ____
ROOT
ATOM      1  C   LIG    1       -0.617  -8.918  -1.814  0.00  0.00    +0.090 A 
ATOM      2  C   LIG    1       -0.946  -7.603  -1.549  0.00  0.00    +0.040 A 
ATOM      3  C   LIG    1        0.065  -6.650  -1.394  0.00  0.00    -0.130 A 
ATOM      4  C   LIG    1        1.405  -7.034  -1.499  0.00  0.00    +0.100 A 
ATOM      5  C   LIG    1        1.726  -8.348  -1.758  0.00  0.00    -0.040 A 
ATOM      6  C   LIG    1        0.722  -9.294  -1.916  0.00  0.00    +0.150 A 
ENDROOT
BRANCH   1   8
ATOM      7  C   LIG    1       -2.947  -9.390  -1.853  0.00  0.00    +0.240 C 
ATOM      8  O   LIG    1       -1.598  -9.846  -1.971  0.00  0.00    -0.300 OA
ENDBRANCH   1   8
BRANCH   3   9
ATOM      9  C   LIG    1       -0.281  -5.244  -1.116  0.00  0.00    +0.520 C 
ATOM     10  O   LIG    1       -1.446  -4.911  -1.026  0.00  0.00    -0.510 OA
BRANCH   9  11
ATOM     11  O   LIG    1        0.695  -4.327  -0.963  0.00  0.00    -0.330 OA
BRANCH  11  12
ATOM     12  C   LIG    1        0.281  -2.962  -0.691  0.00  0.00    +0.240 C 
BRANCH  12  13
ATOM     13  C   LIG    1        1.499  -2.086  -0.550  0.00  0.00    +0.400 C 
ATOM     14  O   LIG    1        2.607  -2.565  -0.667  0.00  0.00    -0.420 OA
BRANCH  13  15
ATOM     15  C   LIG    1        1.344  -0.650  -0.271  0.00  0.00    -0.180 A 
ATOM     16  C   LIG    1        0.072  -0.069  -0.259  0.00  0.00    +0.060 A 
ATOM     17  C   LIG    1       -0.065   1.278   0.004  0.00  0.00    -0.110 A 
ATOM     18  C   LIG    1        1.052   2.054   0.256  0.00  0.00    -0.040 A 
ATOM     19  C   LIG    1        2.315   1.487   0.247  0.00  0.00    +0.000 A 
ATOM     20  C   LIG    1        0.893   3.525   0.543  0.00  0.00    +0.100 C 
ATOM     21  C   LIG    1       -1.435   1.906   0.011  0.00  0.00    +0.090 C 
ATOM     22  C   LIG    1        2.468   0.142  -0.015  0.00  0.00    -0.020 A 
ATOM     23  C   LIG    1        3.844  -0.473  -0.025  0.00  0.00    +0.100 C 
ENDBRANCH  13  15
ENDBRANCH  12  13
ENDBRANCH  11  12
ENDBRANCH   9  11
ENDBRANCH   3   9
BRANCH   6  24
ATOM     24  O   LIG    1        1.044 -10.588  -2.172  0.00  0.00    -0.290 OA
BRANCH  24  25
ATOM     25  C   LIG    1        2.435 -10.904  -2.264  0.00  0.00    +0.260 C 
BRANCH  25  26
ATOM     26  C   LIG    1        2.598 -12.375  -2.550  0.00  0.00    -0.100 A 
ATOM     27  C   LIG    1        2.705 -13.274  -1.506  0.00  0.00    +0.030 A 
ATOM     28  C   LIG    1        2.849 -14.624  -1.768  0.00  0.00    +0.010 A 
ATOM     29  C   LIG    1        2.897 -15.073  -3.074  0.00  0.00    +0.020 A 
ATOM     30  C   LIG    1        2.795 -14.173  -4.119  0.00  0.00    +0.010 A 
ATOM     31  C   LIG    1        2.646 -12.824  -3.857  0.00  0.00    +0.030 A 
ENDBRANCH  25  26
ENDBRANCH  24  25
ENDBRANCH   6  24
TORSDOF 9
