REMARK  Name = ZINCpk00000kF2Rd.0
REMARK                            x       y       z     vdW  Elec       q    Type
REMARK                         _______ _______ _______ _____ _____    ______ ____
ROOT
ATOM      1  C   LIG    1       -2.527   1.425   0.020  0.00  0.00    +0.610 C 
ATOM      2  N   LIG    1       -3.528   2.320   0.131  0.00  0.00    -0.620 N 
ATOM      3  C   LIG    1       -3.371   3.786   0.150  0.00  0.00    +0.250 C 
ATOM      4  C   LIG    1       -4.628   4.309   0.890  0.00  0.00    +0.100 C 
ATOM      5  C   LIG    1       -5.720   3.333   0.377  0.00  0.00    +0.110 C 
ATOM      6  C   LIG    1       -4.958   1.997   0.246  0.00  0.00    +0.250 C 
ATOM      7  O   LIG    1       -2.777   0.234  -0.021  0.00  0.00    -0.520 OA
ENDROOT
BRANCH   1  13
ATOM      8  C   LIG    1        2.542   1.510  -0.119  0.00  0.00    +0.100 C 
ATOM      9  C   LIG    1        1.096   1.936  -0.114  0.00  0.00    -0.180 A 
ATOM     10  C   LIG    1        0.639   3.207  -0.209  0.00  0.00    +0.050 A 
ATOM     11  N   LIG    1       -0.716   3.190  -0.169  0.00  0.00    -0.540 N 
ATOM     12  H   LIG    1       -1.293   3.968  -0.220  0.00  0.00    +0.420 HD
ATOM     13  C   LIG    1       -1.136   1.885  -0.051  0.00  0.00    -0.060 A 
ATOM     14  C   LIG    1        1.496   4.440  -0.340  0.00  0.00    +0.150 C 
ATOM     15  C   LIG    1       -0.011   1.088  -0.010  0.00  0.00    +0.060 A 
ENDBRANCH   1  13
BRANCH   5  16
ATOM     16  O   LIG    1       -6.220   3.755  -0.893  0.00  0.00    -0.540 OA
ATOM     17  H   LIG    1       -6.905   3.178  -1.257  0.00  0.00    +0.380 HD
ENDBRANCH   5  16
BRANCH   5  18
ATOM     18  C   LIG    1       -6.858   3.212   1.393  0.00  0.00    +0.280 C 
BRANCH  18  19
ATOM     19  N   LIG    1       -7.812   2.197   0.939  0.00  0.00    -0.730 N 
ATOM     20  H   LIG    1       -7.658   1.726   0.105  0.00  0.00    +0.400 HD
ATOM     21  C   LIG    1       -8.903   1.919   1.679  0.00  0.00    +0.500 C 
ATOM     22  O   LIG    1       -9.095   2.509   2.721  0.00  0.00    -0.500 OA
BRANCH  21  23
ATOM     23  C   LIG    1       -9.884   0.875   1.212  0.00  0.00    +0.190 C 
ATOM     24  F   LIG    1      -11.033   1.502   0.718  0.00  0.00    -0.180 F 
BRANCH  23  25
ATOM     25  C   LIG    1      -10.263  -0.031   2.386  0.00  0.00    -0.030 C 
ATOM     26  C   LIG    1      -11.525  -0.872   2.133  0.00  0.00    +0.030 C 
ATOM     27  C   LIG    1      -11.913  -0.583   3.595  0.00  0.00    +0.000 C 
ATOM     28  C   LIG    1      -11.057   0.690   3.489  0.00  0.00    +0.040 C 
ENDBRANCH  23  25
ENDBRANCH  21  23
ENDBRANCH  18  19
ENDBRANCH   5  18
TORSDOF 6
