REMARK  Name = ZINCpe000000Zzw3.0
REMARK                            x       y       z     vdW  Elec       q    Type
REMARK                         _______ _______ _______ _____ _____    ______ ____
ROOT
ATOM      1  C   LIG    1        1.655   2.196  -0.002  0.00  0.00    -0.690 A 
ATOM      2  C   LIG    1        2.300   2.416  -1.206  0.00  0.00    +0.150 A 
ATOM      3  C   LIG    1        3.616   2.843  -1.225  0.00  0.00    +0.000 A 
ATOM      4  C   LIG    1        4.294   3.054  -0.042  0.00  0.00    +0.110 A 
ATOM      5  C   LIG    1        3.648   2.834   1.177  0.00  0.00    -0.150 A 
ATOM      6  C   LIG    1        2.320   2.408   1.189  0.00  0.00    +0.190 A 
ENDROOT
BRANCH   5   7
ATOM      7  C   LIG    1        4.368   3.058   2.448  0.00  0.00    +0.560 C 
ATOM      8  N   LIG    1        5.650   3.474   2.433  0.00  0.00    -0.720 N 
ATOM      9  H   LIG    1        6.100   3.627   1.588  0.00  0.00    +0.400 HD
ATOM     10  O   LIG    1        3.804   2.866   3.508  0.00  0.00    -0.520 OA
BRANCH   8  11
ATOM     11  C   LIG    1        6.363   3.696   3.694  0.00  0.00    +0.230 C 
ATOM     12  C   LIG    1        6.065   5.106   4.207  0.00  0.00    +0.000 C 
ATOM     13  C   LIG    1        6.809   5.337   5.524  0.00  0.00    +0.020 C 
ATOM     14  C   LIG    1        8.314   5.187   5.292  0.00  0.00    +0.010 C 
ATOM     15  C   LIG    1        8.613   3.777   4.778  0.00  0.00    +0.020 C 
ATOM     16  C   LIG    1        7.868   3.545   3.461  0.00  0.00    +0.010 C 
ENDBRANCH   8  11
ENDBRANCH   5   7
BRANCH   1  17
ATOM     17  S   LIG    1       -0.020   1.652   0.011  0.00  0.00    +2.690 S 
ATOM     18  O   LIG    1       -0.558   2.039   1.268  0.00  0.00    -0.940 OA
ATOM     19  O   LIG    1       -0.582   2.052  -1.231  0.00  0.00    -0.940 OA
BRANCH  17  23
ATOM     20  O   LIG    1        1.337  -2.515   2.106  0.00  0.00    -0.540 OA
ATOM     21  C   LIG    1        1.004  -1.908   1.110  0.00  0.00    +0.510 C 
ATOM     22  C   LIG    1        0.024  -0.776   1.254  0.00  0.00    +0.360 C 
ATOM     23  N   LIG    1        0.002  -0.004   0.002  0.00  0.00    -1.000 NA
ATOM     24  C   LIG    1       -0.006  -0.764  -1.260  0.00  0.00    +0.310 C 
ATOM     25  C   LIG    1        1.288  -1.587  -1.324  0.00  0.00    +0.250 C 
ATOM     26  N   LIG    1        1.524  -2.276  -0.062  0.00  0.00    -0.720 N 
ATOM     27  H   LIG    1        2.098  -3.057  -0.076  0.00  0.00    +0.400 HD
ENDBRANCH  17  23
ENDBRANCH   1  17
TORSDOF 4
