REMARK  Name = ZINCpk000000oiKN.0
REMARK                            x       y       z     vdW  Elec       q    Type
REMARK                         _______ _______ _______ _____ _____    ______ ____
ROOT
ATOM      1  N   LIG    1       -0.335   4.788   6.099  0.00  0.00    -0.600 N 
ATOM      2  C   LIG    1       -0.435   3.919   5.074  0.00  0.00    +0.510 C 
ATOM      3  O   LIG    1        0.230   2.904   5.072  0.00  0.00    -0.510 OA
ENDROOT
BRANCH   1   4
ATOM      4  C   LIG    1        0.577   4.508   7.210  0.00  0.00    +0.260 C 
ATOM      5  C   LIG    1        2.012   4.280   6.691  0.00  0.00    +0.090 C 
ATOM      6  C   LIG    1        2.320   2.860   7.111  0.00  0.00    +0.540 C 
ATOM      7  N   LIG    1        1.262   2.352   7.756  0.00  0.00    -0.560 N 
ATOM      8  C   LIG    1        1.240   0.990   8.294  0.00  0.00    +0.320 C 
ATOM      9  O   LIG    1        3.359   2.274   6.897  0.00  0.00    -0.480 OA
ATOM     10  C   LIG    1        0.226   3.193   7.870  0.00  0.00    +0.530 C 
ATOM     11  O   LIG    1       -0.827   2.940   8.414  0.00  0.00    -0.470 OA
ENDBRANCH   1   4
BRANCH   1  12
ATOM     12  C   LIG    1       -1.138   6.013   6.101  0.00  0.00    +0.290 C 
BRANCH  12  14
ATOM     13  C   LIG    1       -3.314   7.025   6.798  0.00  0.00    +0.030 C 
ATOM     14  C   LIG    1       -2.475   5.745   6.795  0.00  0.00    -0.010 C 
ENDBRANCH  12  14
ENDBRANCH   1  12
BRANCH   2  15
ATOM     15  C   LIG    1       -1.374   4.207   3.931  0.00  0.00    +0.160 C 
BRANCH  15  16
ATOM     16  C   LIG    1       -1.298   3.087   2.925  0.00  0.00    -0.210 A 
ATOM     17  C   LIG    1       -0.453   3.020   1.870  0.00  0.00    +0.120 A 
ATOM     18  N   LIG    1       -0.703   1.867   1.215  0.00  0.00    -0.440 N 
ATOM     19  N   LIG    1       -1.729   1.199   1.895  0.00  0.00    -0.270 NA
ATOM     20  C   LIG    1        0.580   4.051   1.493  0.00  0.00    +0.150 C 
ATOM     21  C   LIG    1       -2.086   1.931   2.919  0.00  0.00    +0.110 A 
ATOM     22  C   LIG    1       -3.159   1.588   3.920  0.00  0.00    +0.160 C 
BRANCH  18  23
ATOM     23  C   LIG    1       -0.017   1.395   0.010  0.00  0.00    +0.670 C 
ATOM     24  F   LIG    1        1.296   1.879  -0.000  0.00  0.00    -0.180 F 
ATOM     25  F   LIG    1        0.002  -0.004   0.002  0.00  0.00    -0.170 F 
ENDBRANCH  18  23
ENDBRANCH  15  16
ENDBRANCH   2  15
TORSDOF 6
