REMARK  Name = ZINCkj00000GeTsk.0
REMARK                            x       y       z     vdW  Elec       q    Type
REMARK                         _______ _______ _______ _____ _____    ______ ____
ROOT
ATOM      1  N   LIG    1       -0.012   1.005   0.008  0.00  0.00    -0.500 N 
ATOM      2  H   LIG    1        0.935   1.354   0.000  0.00  0.00    +0.440 HD
ATOM      3  H   LIG    1        0.002  -0.004   0.002  0.00  0.00    +0.430 HD
ENDROOT
BRANCH   1   4
ATOM      4  C   LIG    1       -0.699   1.479   1.216  0.00  0.00    +0.170 C 
ATOM      5  C   LIG    1        0.109   1.077   2.454  0.00  0.00    +0.070 C 
ATOM      6  C   LIG    1       -0.484   1.766   3.690  0.00  0.00    +0.210 C 
ATOM      7  C   LIG    1       -1.977   1.546   3.681  0.00  0.00    +0.270 A 
ATOM      8  N   LIG    1       -2.816   1.705   4.666  0.00  0.00    -0.520 NA
ATOM      9  C   LIG    1       -4.051   1.407   4.258  0.00  0.00    +0.450 A 
ATOM     10  N   LIG    1       -4.011   1.053   2.998  0.00  0.00    -0.300 NA
ATOM     11  N   LIG    1       -2.673   1.137   2.603  0.00  0.00    -0.390 N 
ATOM     12  C   LIG    1       -2.095   0.848   1.290  0.00  0.00    +0.350 C 
ENDBRANCH   1   4
BRANCH   1  13
ATOM     13  C   LIG    1       -0.722   1.492  -1.183  0.00  0.00    +0.350 C 
BRANCH  13  17
ATOM     14  C   LIG    1        1.280   0.113  -4.703  0.00  0.00    +0.060 A 
ATOM     15  C   LIG    1        1.482   1.416  -4.245  0.00  0.00    +0.080 A 
ATOM     16  C   LIG    1        0.829   1.856  -3.112  0.00  0.00    +0.110 A 
ATOM     17  C   LIG    1       -0.017   1.006  -2.422  0.00  0.00    -0.180 A 
ATOM     18  C   LIG    1       -0.222  -0.290  -2.870  0.00  0.00    +0.130 A 
ATOM     19  F   LIG    1       -1.054  -1.113  -2.195  0.00  0.00    -0.120 F 
ATOM     20  C   LIG    1        0.421  -0.741  -4.007  0.00  0.00    +0.060 A 
BRANCH  14  22
ATOM     21  N   LIG    1        2.482  -0.712  -6.817  0.00  0.00    -0.360 NA
ATOM     22  C   LIG    1        1.950  -0.347  -5.882  0.00  0.00    +0.220 C 
ENDBRANCH  14  22
ENDBRANCH  13  17
ENDBRANCH   1  13
TORSDOF 4
