REMARK  Name = ZINCrD000000AL5R.0
REMARK                            x       y       z     vdW  Elec       q    Type
REMARK                         _______ _______ _______ _____ _____    ______ ____
ROOT
ATOM      1  C   LIG    1        2.461   1.311  -0.014  0.00  0.00    -0.060 A 
ATOM      2  C   LIG    1        2.381  -0.073  -0.035  0.00  0.00    +0.010 A 
ATOM      3  C   LIG    1        1.122  -0.691  -0.026  0.00  0.00    +0.330 A 
ATOM      4  N   LIG    1        0.002  -0.004   0.002  0.00  0.00    -0.500 NA
ATOM      5  C   LIG    1       -0.016   1.332   0.024  0.00  0.00    +0.150 A 
ATOM      6  C   LIG    1       -1.229   2.041   0.059  0.00  0.00    +0.040 A 
ATOM      7  C   LIG    1       -1.216   3.403   0.078  0.00  0.00    +0.040 A 
ATOM      8  C   LIG    1       -0.016   4.109   0.070  0.00  0.00    +0.010 A 
ATOM      9  C   LIG    1        1.180   3.454   0.041  0.00  0.00    +0.070 A 
ATOM     10  C   LIG    1        1.202   2.056   0.017  0.00  0.00    -0.080 A 
ENDROOT
BRANCH   3  11
ATOM     11  N   LIG    1        1.056  -2.076  -0.047  0.00  0.00    -0.460 N 
ATOM     12  C   LIG    1        1.687  -2.658   1.166  0.00  0.00    +0.190 C 
ATOM     13  C   LIG    1        1.076  -4.079   1.237  0.00  0.00    +0.040 C 
ATOM     14  C   LIG    1       -0.382  -3.852   0.774  0.00  0.00    -0.010 C 
ATOM     15  C   LIG    1       -0.348  -2.541  -0.033  0.00  0.00    +0.210 C 
BRANCH  14  16
ATOM     16  C   LIG    1       -0.846  -5.010  -0.113  0.00  0.00    +0.000 C 
ATOM     17  C   LIG    1       -2.256  -4.720  -0.637  0.00  0.00    +0.000 C 
ATOM     18  C   LIG    1       -2.743  -5.917  -1.458  0.00  0.00    +0.200 C 
ATOM     19  O   LIG    1       -2.714  -7.093  -0.646  0.00  0.00    -0.380 OA
ATOM     20  C   LIG    1       -1.413  -7.439  -0.167  0.00  0.00    +0.200 C 
ATOM     21  C   LIG    1       -0.873  -6.304   0.706  0.00  0.00    -0.010 C 
ENDBRANCH  14  16
ENDBRANCH   3  11
BRANCH   1  23
ATOM     22  O   LIG    1        3.809   3.217  -0.109  0.00  0.00    -0.520 OA
ATOM     23  C   LIG    1        3.767   2.006  -0.024  0.00  0.00    +0.570 C 
ATOM     24  N   LIG    1        4.909   1.296   0.063  0.00  0.00    -0.690 N 
ATOM     25  H   LIG    1        4.875   0.329   0.132  0.00  0.00    +0.400 HD
BRANCH  24  26
ATOM     26  C   LIG    1        6.202   1.984   0.054  0.00  0.00    +0.210 C 
ATOM     27  C   LIG    1        7.315   1.385  -0.807  0.00  0.00    +0.020 C 
ATOM     28  C   LIG    1        7.384   1.275   0.717  0.00  0.00    +0.020 C 
ENDBRANCH  24  26
ENDBRANCH   1  23
TORSDOF 4
