REMARK  Name = ZINCnE00000dSPe9.0
REMARK                            x       y       z     vdW  Elec       q    Type
REMARK                         _______ _______ _______ _____ _____    ______ ____
ROOT
ATOM      1  C   LIG    1       -3.724   7.816  -0.221  0.00  0.00    +0.180 A 
ATOM      2  C   LIG    1       -2.552   8.558  -0.303  0.00  0.00    -0.030 A 
ATOM      3  C   LIG    1       -1.330   7.935  -0.183  0.00  0.00    +0.120 A 
ATOM      4  C   LIG    1       -1.270   6.553   0.024  0.00  0.00    -0.220 A 
ATOM      5  C   LIG    1       -2.452   5.810   0.102  0.00  0.00    +0.100 A 
ATOM      6  C   LIG    1       -3.669   6.442  -0.015  0.00  0.00    -0.090 A 
ENDROOT
BRANCH   4   7
ATOM      7  C   LIG    1        0.036   5.881   0.153  0.00  0.00    +0.450 C 
ATOM      8  O   LIG    1        1.062   6.497  -0.067  0.00  0.00    -0.450 OA
BRANCH   7   9
ATOM      9  C   LIG    1        0.100   4.460   0.550  0.00  0.00    -0.160 A 
ATOM     10  C   LIG    1       -0.813   3.949   1.477  0.00  0.00    +0.100 A 
ATOM     11  C   LIG    1       -0.749   2.622   1.843  0.00  0.00    -0.020 A 
ATOM     12  C   LIG    1        0.217   1.794   1.293  0.00  0.00    +0.120 A 
ATOM     13  C   LIG    1        1.128   2.296   0.376  0.00  0.00    -0.020 A 
ATOM     14  F   LIG    1        0.275   0.494   1.656  0.00  0.00    -0.130 F 
ATOM     15  C   LIG    1        1.071   3.620  -0.001  0.00  0.00    +0.100 A 
ENDBRANCH   7   9
ENDBRANCH   4   7
BRANCH   1  16
ATOM     16  O   LIG    1       -4.926   8.434  -0.340  0.00  0.00    -0.300 OA
BRANCH  16  17
ATOM     17  C   LIG    1       -6.091   7.612  -0.245  0.00  0.00    +0.230 C 
BRANCH  17  20
ATOM     18  C   LIG    1       -8.343   7.188   1.437  0.00  0.00    +0.070 C 
ATOM     19  C   LIG    1       -8.352   8.310   0.431  0.00  0.00    -0.140 C 
ATOM     20  C   LIG    1       -7.323   8.466  -0.401  0.00  0.00    -0.040 C 
BRANCH  19  21
ATOM     21  C   LIG    1       -9.493   9.229   0.368  0.00  0.00    +0.510 C 
ATOM     22  O   LIG    1      -10.438   9.086   1.132  0.00  0.00    -0.690 OA
ATOM     23  O   LIG    1       -9.500  10.140  -0.449  0.00  0.00    -0.690 OA
ENDBRANCH  19  21
ENDBRANCH  17  20
ENDBRANCH  16  17
ENDBRANCH   1  16
TORSDOF 6
