REMARK  Name = ZINCrg00000fRd8E.0
REMARK                            x       y       z     vdW  Elec       q    Type
REMARK                         _______ _______ _______ _____ _____    ______ ____
ROOT
ATOM      1  N   LIG    1       -0.353   1.400   5.014  0.00  0.00    -1.090 NA
ATOM      2  H   LIG    1       -0.559   0.562   5.457  0.00  0.00    +0.420 HD
ENDROOT
BRANCH   1   3
ATOM      3  S   LIG    1        0.785   2.418   5.654  0.00  0.00    +2.700 S 
ATOM      4  O   LIG    1        1.662   2.760   4.589  0.00  0.00    -0.940 OA
ATOM      5  O   LIG    1        1.227   1.817   6.863  0.00  0.00    -0.950 OA
BRANCH   3   6
ATOM      6  C   LIG    1       -0.044   3.905   6.112  0.00  0.00    -0.680 A 
ATOM      7  C   LIG    1       -0.055   4.982   5.246  0.00  0.00    +0.130 A 
ATOM      8  C   LIG    1       -0.708   6.149   5.600  0.00  0.00    +0.020 A 
ATOM      9  C   LIG    1       -1.343   6.244   6.829  0.00  0.00    +0.110 A 
ATOM     10  O   LIG    1       -1.973   7.402   7.168  0.00  0.00    -0.300 OA
ATOM     11  C   LIG    1       -2.913   7.332   8.245  0.00  0.00    +0.230 C 
ATOM     12  C   LIG    1       -2.271   6.541   9.393  0.00  0.00    +0.230 C 
ATOM     13  O   LIG    1       -1.948   5.232   8.910  0.00  0.00    -0.300 OA
ATOM     14  C   LIG    1       -1.327   5.162   7.701  0.00  0.00    +0.030 A 
ATOM     15  C   LIG    1       -0.676   3.993   7.338  0.00  0.00    +0.140 A 
ENDBRANCH   3   6
ENDBRANCH   1   3
BRANCH   1  16
ATOM     16  C   LIG    1       -1.050   1.765   3.777  0.00  0.00    +0.250 C 
BRANCH  16  17
ATOM     17  C   LIG    1       -0.366   1.113   2.604  0.00  0.00    +0.500 C 
ATOM     18  N   LIG    1       -0.836   1.308   1.356  0.00  0.00    -0.720 N 
ATOM     19  H   LIG    1       -1.615   1.868   1.213  0.00  0.00    +0.400 HD
ATOM     20  O   LIG    1        0.608   0.412   2.783  0.00  0.00    -0.520 OA
BRANCH  18  21
ATOM     21  C   LIG    1       -0.170   0.674   0.215  0.00  0.00    +0.280 C 
BRANCH  21  22
ATOM     22  C   LIG    1       -0.898   1.055  -1.076  0.00  0.00    +0.140 C 
ATOM     23  C   LIG    1       -0.205   0.392  -2.283  0.00  0.00    +0.010 C 
ATOM     24  C   LIG    1       -1.317  -0.465  -2.935  0.00  0.00    +0.000 C 
ATOM     25  C   LIG    1       -2.605   0.203  -2.389  0.00  0.00    +0.200 C 
ATOM     26  O   LIG    1       -2.249   0.566  -1.038  0.00  0.00    -0.370 OA
ENDBRANCH  21  22
ENDBRANCH  18  21
ENDBRANCH  16  17
BRANCH  16  28
ATOM     27  C   LIG    1       -2.531  -0.232   4.024  0.00  0.00    +0.040 C 
ATOM     28  C   LIG    1       -2.502   1.288   3.851  0.00  0.00    +0.000 C 
ATOM     29  C   LIG    1       -3.197   1.950   5.042  0.00  0.00    +0.030 C 
ENDBRANCH  16  28
ENDBRANCH   1  16
TORSDOF 7
