REMARK  Name = ZINCAx0000000jTv.0
REMARK                            x       y       z     vdW  Elec       q    Type
REMARK                         _______ _______ _______ _____ _____    ______ ____
ROOT
ATOM      1  O   LIG    1        2.403   4.224   0.389  0.00  0.00    -0.520 OA
ATOM      2  C   LIG    1        1.626   3.597  -0.304  0.00  0.00    +0.560 C 
ATOM      3  N   LIG    1        0.693   4.247  -1.029  0.00  0.00    -0.610 N 
ATOM      4  C   LIG    1       -0.329   3.501  -1.774  0.00  0.00    +0.280 C 
ATOM      5  C   LIG    1       -1.713   4.028  -1.366  0.00  0.00    +0.020 C 
ATOM      6  C   LIG    1       -1.760   5.542  -1.580  0.00  0.00    +0.270 C 
ATOM      7  C   LIG    1       -0.708   6.217  -0.696  0.00  0.00    +0.020 C 
ATOM      8  C   LIG    1        0.684   5.715  -1.092  0.00  0.00    +0.300 C 
ENDROOT
BRANCH   2   9
ATOM      9  C   LIG    1        1.704   2.119  -0.353  0.00  0.00    -0.050 A 
ATOM     10  C   LIG    1        1.569   1.456  -1.576  0.00  0.00    +0.020 A 
ATOM     11  C   LIG    1        1.641   0.081  -1.632  0.00  0.00    +0.150 A 
ATOM     12  C   LIG    1        1.848  -0.648  -0.464  0.00  0.00    -0.180 A 
ATOM     13  C   LIG    1        1.931  -2.121  -0.476  0.00  0.00    +0.560 A 
ATOM     14  N   LIG    1        2.133  -2.761   0.696  0.00  0.00    -0.510 N 
ATOM     15  C   LIG    1        2.257  -2.083   1.847  0.00  0.00    +0.710 A 
ATOM     16  N   LIG    1        2.190  -0.743   1.915  0.00  0.00    -0.640 N 
ATOM     17  H   LIG    1        2.285  -0.300   2.772  0.00  0.00    +0.440 HD
ATOM     18  O   LIG    1        2.437  -2.709   2.874  0.00  0.00    -0.520 OA
ATOM     19  O   LIG    1        1.820  -2.743  -1.515  0.00  0.00    -0.470 OA
ATOM     20  C   LIG    1        1.984   0.014   0.769  0.00  0.00    +0.200 A 
ATOM     21  C   LIG    1        1.912   1.397   0.820  0.00  0.00    +0.040 A 
BRANCH  14  22
ATOM     22  C   LIG    1        2.216  -4.160   0.710  0.00  0.00    +0.120 A 
ATOM     23  C   LIG    1        3.443  -4.786   0.544  0.00  0.00    +0.040 A 
ATOM     24  C   LIG    1        3.522  -6.165   0.564  0.00  0.00    +0.020 A 
ATOM     25  C   LIG    1        2.378  -6.922   0.738  0.00  0.00    +0.030 A 
ATOM     26  C   LIG    1        1.153  -6.301   0.897  0.00  0.00    +0.020 A 
ATOM     27  C   LIG    1        1.068  -4.923   0.883  0.00  0.00    +0.040 A 
ENDBRANCH  14  22
ENDBRANCH   2   9
BRANCH   6  28
ATOM     28  N   LIG    1       -3.090   6.045  -1.226  0.00  0.00    -0.540 N 
ATOM     29  C   LIG    1       -3.674   5.944  -0.017  0.00  0.00    +0.680 A 
ATOM     30  N   LIG    1       -4.893   6.515  -0.053  0.00  0.00    -0.640 N 
ATOM     31  H   LIG    1       -5.514   6.574   0.689  0.00  0.00    +0.430 HD
ATOM     32  C   LIG    1       -5.109   7.006  -1.338  0.00  0.00    +0.090 A 
ATOM     33  C   LIG    1       -6.167   7.674  -1.936  0.00  0.00    +0.030 A 
ATOM     34  C   LIG    1       -6.078   8.055  -3.261  0.00  0.00    +0.020 A 
ATOM     35  C   LIG    1       -4.944   7.762  -3.998  0.00  0.00    +0.020 A 
ATOM     36  C   LIG    1       -3.887   7.092  -3.412  0.00  0.00    +0.020 A 
ATOM     37  O   LIG    1       -3.176   5.417   0.960  0.00  0.00    -0.550 OA
ATOM     38  C   LIG    1       -3.963   6.713  -2.081  0.00  0.00    +0.090 A 
ENDBRANCH   6  28
TORSDOF 3
