REMARK  Name = ZINCrD00000eLvRv.0
REMARK                            x       y       z     vdW  Elec       q    Type
REMARK                         _______ _______ _______ _____ _____    ______ ____
ROOT
ATOM      1  C   LIG    1       -3.127   6.776  -0.056  0.00  0.00    +0.540 C 
ATOM      2  N   LIG    1       -4.405   6.896  -0.464  0.00  0.00    -0.720 N 
ATOM      3  H   LIG    1       -4.920   6.104  -0.687  0.00  0.00    +0.400 HD
ATOM      4  O   LIG    1       -2.483   7.766   0.222  0.00  0.00    -0.510 OA
ENDROOT
BRANCH   1   6
ATOM      5  C   LIG    1       -2.935   4.752   1.363  0.00  0.00    +0.090 C 
ATOM      6  C   LIG    1       -2.496   5.412   0.055  0.00  0.00    -0.020 C 
BRANCH   6   7
ATOM      7  S   LIG    1       -0.693   5.578   0.038  0.00  0.00    +0.110 S 
BRANCH   7   8
ATOM      8  C   LIG    1       -0.230   3.878   0.025  0.00  0.00    +0.070 A 
ATOM      9  N   LIG    1        0.985   3.446   0.011  0.00  0.00    -0.440 NA
ATOM     10  C   LIG    1        1.179   2.112   0.002  0.00  0.00    +0.090 A 
ATOM     11  C   LIG    1        2.396   1.397  -0.013  0.00  0.00    +0.080 A 
ATOM     12  C   LIG    1        2.396   0.025  -0.021  0.00  0.00    +0.040 A 
ATOM     13  C   LIG    1        1.202  -0.681  -0.013  0.00  0.00    +0.040 A 
ATOM     14  C   LIG    1        0.002  -0.004   0.002  0.00  0.00    +0.060 A 
ATOM     15  C   LIG    1       -0.017   1.388   0.010  0.00  0.00    -0.170 A 
ATOM     16  S   LIG    1       -1.359   2.530   0.021  0.00  0.00    +0.060 S 
ENDBRANCH   7   8
ENDBRANCH   6   7
ENDBRANCH   1   6
BRANCH   2  17
ATOM     17  C   LIG    1       -5.019   8.222  -0.572  0.00  0.00    +0.280 C 
BRANCH  17  18
ATOM     18  C   LIG    1       -6.464   8.078  -1.053  0.00  0.00    +0.010 C 
BRANCH  18  19
ATOM     19  C   LIG    1       -7.104   9.463  -1.165  0.00  0.00    +0.280 C 
BRANCH  19  20
ATOM     20  N   LIG    1       -8.488   9.325  -1.626  0.00  0.00    -0.730 N 
ATOM     21  H   LIG    1       -8.854   8.445  -1.806  0.00  0.00    +0.400 HD
ATOM     22  C   LIG    1       -9.253  10.421  -1.799  0.00  0.00    +0.520 C 
ATOM     23  O   LIG    1       -8.796  11.522  -1.574  0.00  0.00    -0.520 OA
BRANCH  22  24
ATOM     24  C   LIG    1      -10.677  10.280  -2.272  0.00  0.00    +0.070 C 
BRANCH  24  25
ATOM     25  C   LIG    1      -11.317  11.665  -2.385  0.00  0.00    +0.050 C 
ATOM     26  C   LIG    1      -10.528  12.511  -3.386  0.00  0.00    +0.060 C 
ATOM     27  C   LIG    1      -11.301  12.347  -1.016  0.00  0.00    +0.060 C 
BRANCH  25  28
ATOM     28  C   LIG    1      -12.708  11.526  -2.848  0.00  0.00    +0.210 C 
ATOM     29  N   LIG    1      -13.781  11.419  -3.205  0.00  0.00    -0.430 NA
ENDBRANCH  25  28
ENDBRANCH  24  25
ENDBRANCH  22  24
ENDBRANCH  19  20
ENDBRANCH  18  19
ENDBRANCH  17  18
ENDBRANCH   2  17
TORSDOF 10
