REMARK  Name = ZINCpk00000y6uuV.0
REMARK                            x       y       z     vdW  Elec       q    Type
REMARK                         _______ _______ _______ _____ _____    ______ ____
ROOT
ATOM      1  N   LIG    1        4.086  -3.562  -2.458  0.00  0.00    -0.520 NA
ATOM      2  C   LIG    1        3.394  -3.242  -3.713  0.00  0.00    +0.170 C 
ATOM      3  C   LIG    1        2.963  -1.774  -3.699  0.00  0.00    +0.040 C 
ATOM      4  C   LIG    1        2.033  -1.532  -2.506  0.00  0.00    -0.020 C 
ATOM      5  C   LIG    1        2.761  -1.918  -1.216  0.00  0.00    +0.130 C 
ATOM      6  C   LIG    1        3.199  -3.382  -1.302  0.00  0.00    +0.210 C 
ENDROOT
BRANCH   5   7
ATOM      7  O   LIG    1        3.910  -1.086  -1.047  0.00  0.00    -0.530 OA
ATOM      8  H   LIG    1        3.707  -0.142  -0.987  0.00  0.00    +0.380 HD
ENDBRANCH   5   7
BRANCH   1   9
ATOM      9  C   LIG    1        4.636  -4.924  -2.492  0.00  0.00    +0.260 C 
BRANCH   9  18
ATOM     10  C   LIG    1        7.059  -4.562  -3.382  0.00  0.00    -0.110 A 
ATOM     11  C   LIG    1        7.707  -4.829  -4.600  0.00  0.00    +0.110 A 
ATOM     12  C   LIG    1        9.023  -4.616  -5.038  0.00  0.00    +0.050 A 
ATOM     13  C   LIG    1        9.374  -4.985  -6.302  0.00  0.00    +0.040 A 
ATOM     14  C   LIG    1        8.414  -5.571  -7.143  0.00  0.00    +0.010 A 
ATOM     15  C   LIG    1        7.153  -5.768  -6.706  0.00  0.00    +0.230 A 
ATOM     16  N   LIG    1        6.787  -5.403  -5.439  0.00  0.00    -0.330 N 
ATOM     17  C   LIG    1        5.593  -5.505  -4.777  0.00  0.00    +0.130 A 
ATOM     18  C   LIG    1        5.721  -5.001  -3.535  0.00  0.00    -0.050 A 
BRANCH  10  20
ATOM     19  N   LIG    1        8.096  -3.490  -1.292  0.00  0.00    -0.430 NA
ATOM     20  C   LIG    1        7.637  -3.964  -2.216  0.00  0.00    +0.290 C 
ENDBRANCH  10  20
ENDBRANCH   9  18
ENDBRANCH   1   9
BRANCH   5  21
ATOM     21  C   LIG    1        1.819  -1.736  -0.024  0.00  0.00    +0.300 C 
BRANCH  21  22
ATOM     22  N   LIG    1        1.307  -0.363  -0.012  0.00  0.00    -0.290 N 
ATOM     23  C   LIG    1        0.002  -0.004   0.002  0.00  0.00    +0.140 A 
ATOM     24  C   LIG    1       -0.016   1.349   0.009  0.00  0.00    +0.140 A 
ATOM     25  N   LIG    1        1.261   1.747  -0.001  0.00  0.00    -0.260 NA
ATOM     26  N   LIG    1        2.020   0.708  -0.013  0.00  0.00    -0.090 NA
ENDBRANCH  21  22
ENDBRANCH   5  21
TORSDOF 6
