REMARK  Name = ZINCqH0000007BfF.0
REMARK                            x       y       z     vdW  Elec       q    Type
REMARK                         _______ _______ _______ _____ _____    ______ ____
ROOT
ATOM      1  C   LIG    1        5.862  -1.965  -0.203  0.00  0.00    +0.120 C 
ENDROOT
BRANCH   1   2
ATOM      2  C   LIG    1        6.214  -3.309   0.381  0.00  0.00    +0.530 C 
ATOM      3  N   LIG    1        7.503  -3.625   0.617  0.00  0.00    -0.670 N 
ATOM      4  H   LIG    1        8.209  -3.019   0.341  0.00  0.00    +0.410 HD
ATOM      5  O   LIG    1        5.337  -4.107   0.638  0.00  0.00    -0.460 OA
BRANCH   3   6
ATOM      6  C   LIG    1        7.822  -4.826   1.260  0.00  0.00    +0.150 A 
ATOM      7  C   LIG    1        6.974  -5.343   2.229  0.00  0.00    +0.010 A 
ATOM      8  C   LIG    1        7.289  -6.533   2.857  0.00  0.00    +0.040 A 
ATOM      9  C   LIG    1        8.455  -7.201   2.531  0.00  0.00    -0.010 A 
ATOM     10  C   LIG    1        9.305  -6.685   1.569  0.00  0.00    -0.070 A 
ATOM     11  C   LIG    1       10.574  -7.417   1.216  0.00  0.00    +0.090 C 
ATOM     12  C   LIG    1        8.992  -5.500   0.933  0.00  0.00    -0.010 A 
ENDBRANCH   3   6
ENDBRANCH   1   2
BRANCH   1  13
ATOM     13  C   LIG    1        4.367  -1.864  -0.367  0.00  0.00    +0.430 C 
ATOM     14  O   LIG    1        3.701  -2.872  -0.488  0.00  0.00    -0.380 OA
BRANCH  13  21
ATOM     15  C   LIG    1       -0.096  -0.466  -0.808  0.00  0.00    +0.130 A 
ATOM     16  C   LIG    1       -0.210   0.919  -0.757  0.00  0.00    -0.020 A 
ATOM     17  C   LIG    1        0.907   1.710  -0.594  0.00  0.00    +0.080 A 
ATOM     18  C   LIG    1        2.162   1.125  -0.479  0.00  0.00    +0.010 A 
ATOM     19  O   LIG    1        3.402   1.633  -0.316  0.00  0.00    -0.170 OA
ATOM     20  C   LIG    1        4.322   0.666  -0.256  0.00  0.00    +0.320 A 
ATOM     21  C   LIG    1        3.720  -0.553  -0.380  0.00  0.00    -0.270 A 
ATOM     22  C   LIG    1        2.277  -0.271  -0.530  0.00  0.00    -0.050 A 
ATOM     23  C   LIG    1        1.147  -1.064  -0.695  0.00  0.00    +0.040 A 
BRANCH  15  25
ATOM     24  C   LIG    1       -2.457  -0.551  -1.078  0.00  0.00    +0.240 C 
ATOM     25  O   LIG    1       -1.207  -1.234  -0.968  0.00  0.00    -0.310 OA
ENDBRANCH  15  25
ENDBRANCH  13  21
ENDBRANCH   1  13
BRANCH   1  26
ATOM     26  C   LIG    1        6.511  -1.815  -1.515  0.00  0.00    +0.200 C 
ATOM     27  N   LIG    1        7.012  -1.699  -2.528  0.00  0.00    -0.360 NA
ENDBRANCH   1  26
TORSDOF 6
