REMARK  Name = ZINCpk000000nnEZ.0
REMARK                            x       y       z     vdW  Elec       q    Type
REMARK                         _______ _______ _______ _____ _____    ______ ____
ROOT
ATOM      1  N   LIG    1       -2.778  -2.133   1.511  0.00  0.00    -0.720 N 
ATOM      2  H   LIG    1       -3.446  -2.345   0.839  0.00  0.00    +0.410 HD
ATOM      3  C   LIG    1       -1.548  -1.732   1.134  0.00  0.00    +0.510 C 
ATOM      4  O   LIG    1       -0.713  -1.467   1.973  0.00  0.00    -0.520 OA
ENDROOT
BRANCH   3   5
ATOM      5  C   LIG    1       -1.209  -1.611  -0.330  0.00  0.00    +0.070 C 
ATOM      6  C   LIG    1       -1.378  -2.973  -1.004  0.00  0.00    +0.110 C 
ATOM      7  C   LIG    1       -0.279  -3.903  -0.565  0.00  0.00    +0.520 C 
ATOM      8  N   LIG    1        0.962  -3.439  -0.330  0.00  0.00    -0.660 N 
ATOM      9  H   LIG    1        1.663  -4.053  -0.059  0.00  0.00    +0.420 HD
ATOM     10  C   LIG    1        1.249  -2.078  -0.473  0.00  0.00    +0.210 A 
ATOM     11  C   LIG    1        2.563  -1.653  -0.610  0.00  0.00    -0.050 A 
ATOM     12  C   LIG    1        2.840  -0.304  -0.751  0.00  0.00    +0.140 A 
ATOM     13  C   LIG    1        1.808   0.619  -0.756  0.00  0.00    -0.030 A 
ATOM     14  C   LIG    1        0.498   0.196  -0.620  0.00  0.00    +0.100 A 
ATOM     15  F   LIG    1        4.119   0.112  -0.884  0.00  0.00    -0.130 F 
ATOM     16  O   LIG    1       -0.514  -5.084  -0.422  0.00  0.00    -0.520 OA
ATOM     17  C   LIG    1        0.217  -1.148  -0.479  0.00  0.00    -0.120 A 
ENDBRANCH   3   5
BRANCH   1  18
ATOM     18  C   LIG    1       -3.107  -2.250   2.933  0.00  0.00    +0.280 C 
BRANCH  18  20
ATOM     19  C   LIG    1       -4.520  -4.276   2.558  0.00  0.00    +0.060 C 
ATOM     20  C   LIG    1       -4.510  -2.840   3.086  0.00  0.00    +0.090 C 
ATOM     21  C   LIG    1       -4.907  -2.837   4.563  0.00  0.00    +0.020 C 
BRANCH  20  22
ATOM     22  N   LIG    1       -5.467  -2.030   2.320  0.00  0.00    -0.520 NA
ATOM     23  C   LIG    1       -5.446  -0.629   2.764  0.00  0.00    +0.150 C 
ATOM     24  C   LIG    1       -6.412   0.189   1.903  0.00  0.00    +0.220 C 
ATOM     25  O   LIG    1       -7.719  -0.385   1.984  0.00  0.00    -0.380 OA
ATOM     26  C   LIG    1       -7.776  -1.749   1.558  0.00  0.00    +0.220 C 
ATOM     27  C   LIG    1       -6.825  -2.587   2.416  0.00  0.00    +0.150 C 
ENDBRANCH  20  22
ENDBRANCH  18  20
ENDBRANCH   1  18
TORSDOF 4
