REMARK  Name = ZINCrH000004v61h.0
REMARK                            x       y       z     vdW  Elec       q    Type
REMARK                         _______ _______ _______ _____ _____    ______ ____
ROOT
ATOM      1  C   LIG    1        4.676  -0.517  -0.155  0.00  0.00    +0.010 C 
ATOM      2  C   LIG    1        5.697   0.547  -0.563  0.00  0.00    +0.060 C 
ATOM      3  C   LIG    1        5.030   1.553  -1.507  0.00  0.00    +0.280 C 
ATOM      4  N   LIG    1        3.828   2.089  -0.854  0.00  0.00    -0.610 N 
ATOM      5  C   LIG    1        2.826   1.147  -0.336  0.00  0.00    +0.280 C 
ATOM      6  C   LIG    1        3.650   3.419  -0.726  0.00  0.00    +0.560 C 
ATOM      7  O   LIG    1        4.436   4.187  -1.238  0.00  0.00    -0.530 OA
ATOM      8  C   LIG    1        3.515   0.146   0.589  0.00  0.00    +0.030 C 
ENDROOT
BRANCH   1  10
ATOM      9  O   LIG    1        6.511  -1.408   1.034  0.00  0.00    -0.510 OA
ATOM     10  C   LIG    1        5.338  -1.528   0.747  0.00  0.00    +0.520 C 
ATOM     11  N   LIG    1        4.628  -2.564   1.233  0.00  0.00    -0.670 N 
ATOM     12  H   LIG    1        3.675  -2.625   1.057  0.00  0.00    +0.410 HD
BRANCH  11  13
ATOM     13  C   LIG    1        5.263  -3.554   1.993  0.00  0.00    +0.130 A 
ATOM     14  C   LIG    1        4.848  -4.876   1.901  0.00  0.00    +0.020 A 
ATOM     15  C   LIG    1        5.480  -5.851   2.647  0.00  0.00    +0.010 A 
ATOM     16  C   LIG    1        6.519  -5.509   3.496  0.00  0.00    +0.080 A 
ATOM     17  C   LIG    1        6.931  -4.191   3.594  0.00  0.00    +0.010 A 
ATOM     18  F   LIG    1        7.132  -6.464   4.230  0.00  0.00    -0.140 F 
ATOM     19  C   LIG    1        6.306  -3.214   2.845  0.00  0.00    +0.060 A 
ENDBRANCH  11  13
ENDBRANCH   1  10
BRANCH   6  20
ATOM     20  C   LIG    1        2.474   3.951   0.052  0.00  0.00    -0.120 C 
ATOM     21  C   LIG    1        1.881   5.290  -0.391  0.00  0.00    +0.090 C 
ATOM     22  C   LIG    1        1.118   3.991  -0.656  0.00  0.00    +0.050 C 
BRANCH  20  23
ATOM     23  C   LIG    1        2.480   3.646   1.528  0.00  0.00    -0.040 A 
ATOM     24  C   LIG    1        3.679   3.497   2.198  0.00  0.00    +0.010 A 
ATOM     25  C   LIG    1        3.684   3.218   3.552  0.00  0.00    +0.010 A 
ATOM     26  C   LIG    1        2.490   3.082   4.234  0.00  0.00    +0.000 A 
ATOM     27  C   LIG    1        1.290   3.235   3.564  0.00  0.00    +0.010 A 
ATOM     28  C   LIG    1        1.285   3.515   2.211  0.00  0.00    +0.010 A 
ENDBRANCH  20  23
ENDBRANCH   6  20
TORSDOF 4
