REMARK  Name = ZINCkj000005hsNu.1
REMARK                            x       y       z     vdW  Elec       q    Type
REMARK                         _______ _______ _______ _____ _____    ______ ____
ROOT
ATOM      1  N   LIG    1       -3.652   6.792  -0.784  0.00  0.00    -0.370 N 
ATOM      2  C   LIG    1       -3.445   6.415   0.619  0.00  0.00    +0.270 C 
ATOM      3  C   LIG    1       -2.217   5.509   0.732  0.00  0.00    +0.070 C 
ATOM      4  C   LIG    1       -2.441   4.248  -0.109  0.00  0.00    +0.250 C 
ATOM      5  C   LIG    1       -2.731   4.655  -1.556  0.00  0.00    +0.050 C 
ATOM      6  C   LIG    1       -3.939   5.595  -1.584  0.00  0.00    +0.280 C 
ATOM      7  H   LIG    1       -2.820   7.240  -1.138  0.00  0.00    +0.430 HD
ENDROOT
BRANCH   4   8
ATOM      8  N   LIG    1       -1.240   3.411  -0.067  0.00  0.00    -0.730 N 
ATOM      9  H   LIG    1       -0.375   3.812   0.115  0.00  0.00    +0.400 HD
ATOM     10  C   LIG    1       -1.335   2.084  -0.281  0.00  0.00    +0.600 C 
ATOM     11  O   LIG    1       -2.420   1.581  -0.508  0.00  0.00    -0.520 OA
BRANCH  10  12
ATOM     12  C   LIG    1       -0.134   1.247  -0.239  0.00  0.00    -0.280 A 
ATOM     13  C   LIG    1       -0.102  -0.105  -0.438  0.00  0.00    +0.140 A 
ATOM     14  C   LIG    1        1.161  -0.638  -0.348  0.00  0.00    +0.020 A 
ATOM     15  C   LIG    1        2.133   0.245  -0.083  0.00  0.00    -0.150 A 
ATOM     16 CL   LIG    1        3.813  -0.161   0.084  0.00  0.00    +0.010 Cl
ATOM     17  S   LIG    1        1.499   1.822   0.069  0.00  0.00    +0.250 S 
ENDBRANCH  10  12
ENDBRANCH   4   8
BRANCH   1  18
ATOM     18  C   LIG    1       -4.784   7.724  -0.877  0.00  0.00    +0.290 C 
BRANCH  18  22
ATOM     19  C   LIG    1       -5.016  11.232   0.636  0.00  0.00    +0.310 C 
ATOM     20  N   LIG    1       -5.362   9.976  -0.033  0.00  0.00    -0.710 N 
ATOM     21  H   LIG    1       -6.262   9.835  -0.365  0.00  0.00    +0.410 HD
ATOM     22  C   LIG    1       -4.428   9.016  -0.189  0.00  0.00    +0.500 C 
ATOM     23  O   LIG    1       -3.302   9.193   0.226  0.00  0.00    -0.530 OA
ENDBRANCH  18  22
ENDBRANCH   1  18
TORSDOF 4
