REMARK  Name = ZINCrg000000tSaX.0
REMARK                            x       y       z     vdW  Elec       q    Type
REMARK                         _______ _______ _______ _____ _____    ______ ____
ROOT
ATOM      1  C   LIG    1       -8.329   2.644  -3.781  0.00  0.00    +0.260 C 
ATOM      2  C   LIG    1       -9.393   1.579  -4.064  0.00  0.00    +0.010 C 
ATOM      3  C   LIG    1      -10.289   1.419  -2.833  0.00  0.00    +0.020 C 
ATOM      4  C   LIG    1       -9.445   0.956  -1.643  0.00  0.00    +0.010 C 
ATOM      5  C   LIG    1       -8.382   2.008  -1.335  0.00  0.00    +0.260 C 
ATOM      6  N   LIG    1       -7.609   2.279  -2.554  0.00  0.00    -0.620 N 
ATOM      7  C   LIG    1       -6.264   2.188  -2.549  0.00  0.00    +0.700 C 
ATOM      8  N   LIG    1       -5.621   1.767  -1.441  0.00  0.00    -0.740 N 
ATOM      9  H   LIG    1       -6.119   1.600  -0.626  0.00  0.00    +0.390 HD
ATOM     10  O   LIG    1       -5.631   2.486  -3.543  0.00  0.00    -0.570 OA
ENDROOT
BRANCH   1  14
ATOM     11  O   LIG    1       -5.684   5.229  -6.875  0.00  0.00    -0.540 OA
ATOM     12  C   LIG    1       -6.451   4.405  -6.423  0.00  0.00    +0.520 C 
ATOM     13  C   LIG    1       -6.587   4.061  -4.956  0.00  0.00    +0.090 C 
ATOM     14  C   LIG    1       -7.347   2.714  -4.952  0.00  0.00    +0.030 C 
ATOM     15  C   LIG    1       -8.097   2.771  -6.301  0.00  0.00    +0.250 C 
ATOM     16  N   LIG    1       -7.303   3.665  -7.153  0.00  0.00    -0.740 N 
ATOM     17  H   LIG    1       -7.384   3.715  -8.118  0.00  0.00    +0.410 HD
ENDBRANCH   1  14
BRANCH   8  18
ATOM     18  C   LIG    1       -4.171   1.562  -1.469  0.00  0.00    +0.270 C 
BRANCH  18  19
ATOM     19  C   LIG    1       -3.697   1.087  -0.095  0.00  0.00    +0.320 C 
BRANCH  19  20
ATOM     20  N   LIG    1       -2.246   0.882  -0.123  0.00  0.00    -0.540 N 
ATOM     21  C   LIG    1       -1.314   1.809   0.168  0.00  0.00    +0.680 A 
ATOM     22  N   LIG    1       -0.086   1.272   0.038  0.00  0.00    -0.640 N 
ATOM     23  H   LIG    1        0.754   1.733   0.191  0.00  0.00    +0.440 HD
ATOM     24  C   LIG    1       -0.226  -0.058  -0.352  0.00  0.00    +0.090 A 
ATOM     25  C   LIG    1        0.680  -1.070  -0.626  0.00  0.00    +0.030 A 
ATOM     26  C   LIG    1        0.224  -2.319  -1.000  0.00  0.00    +0.030 A 
ATOM     27  C   LIG    1       -1.134  -2.564  -1.101  0.00  0.00    +0.020 A 
ATOM     28  C   LIG    1       -2.045  -1.560  -0.834  0.00  0.00    +0.030 A 
ATOM     29  O   LIG    1       -1.546   2.957   0.497  0.00  0.00    -0.550 OA
ATOM     30  C   LIG    1       -1.597  -0.305  -0.454  0.00  0.00    +0.090 A 
ENDBRANCH  19  20
ENDBRANCH  18  19
ENDBRANCH   8  18
TORSDOF 4
