REMARK  Name = ZINCtV00000L6kDa.1
REMARK                            x       y       z     vdW  Elec       q    Type
REMARK                         _______ _______ _______ _____ _____    ______ ____
ROOT
ATOM      1  C   LIG    1        0.854   1.699   0.047  0.00  0.00    -0.150 A 
ATOM      2  C   LIG    1       -0.350   1.019  -0.150  0.00  0.00    +0.130 A 
ATOM      3  C   LIG    1       -1.524   1.729  -0.290  0.00  0.00    +0.030 A 
ATOM      4  C   LIG    1       -1.512   3.112  -0.224  0.00  0.00    +0.080 A 
ATOM      5  C   LIG    1       -0.321   3.792  -0.030  0.00  0.00    -0.680 A 
ATOM      6 CL   LIG    1       -2.995   3.998  -0.395  0.00  0.00    -0.030 Cl
ATOM      7  C   LIG    1        0.860   3.094   0.106  0.00  0.00    +0.230 A 
ENDROOT
BRANCH   1   9
ATOM      8  O   LIG    1        3.163   1.539   0.364  0.00  0.00    -0.500 OA
ATOM      9  C   LIG    1        2.116   0.945   0.192  0.00  0.00    +0.570 C 
ATOM     10  N   LIG    1        2.107  -0.402   0.135  0.00  0.00    -0.660 N 
ATOM     11  H   LIG    1        1.265  -0.879   0.071  0.00  0.00    +0.410 HD
BRANCH  10  12
ATOM     12  C   LIG    1        3.312  -1.111   0.169  0.00  0.00    +0.170 A 
ATOM     13  C   LIG    1        4.380  -0.635   0.918  0.00  0.00    +0.050 A 
ATOM     14  C   LIG    1        5.567  -1.340   0.954  0.00  0.00    +0.070 A 
ATOM     15  C   LIG    1        5.698  -2.514   0.235  0.00  0.00    +0.040 A 
ATOM     16  C   LIG    1        4.639  -2.990  -0.517  0.00  0.00    -0.010 A 
ATOM     17 CL   LIG    1        4.808  -4.465  -1.417  0.00  0.00    -0.040 Cl
ATOM     18  C   LIG    1        3.446  -2.292  -0.552  0.00  0.00    -0.060 A 
ATOM     19 CL   LIG    1        2.117  -2.889  -1.497  0.00  0.00    -0.040 Cl
ENDBRANCH  10  12
ENDBRANCH   1   9
BRANCH   5  20
ATOM     20  S   LIG    1       -0.316   5.553   0.045  0.00  0.00    +2.690 S 
ATOM     21  O   LIG    1        1.041   5.943   0.209  0.00  0.00    -0.930 OA
ATOM     22  O   LIG    1       -1.345   5.919   0.953  0.00  0.00    -0.930 OA
BRANCH  20  23
ATOM     23  N   LIG    1       -0.785   6.108  -1.443  0.00  0.00    -1.050 N 
ATOM     24  H   LIG    1       -1.592   6.638  -1.531  0.00  0.00    +0.430 HD
BRANCH  23  25
ATOM     25  C   LIG    1       -0.018   5.811  -2.573  0.00  0.00    +0.140 A 
ATOM     26  C   LIG    1        1.363   5.962  -2.536  0.00  0.00    +0.030 A 
ATOM     27  C   LIG    1        2.119   5.663  -3.653  0.00  0.00    +0.050 A 
ATOM     28  C   LIG    1        1.502   5.225  -4.811  0.00  0.00    -0.040 A 
ATOM     29  C   LIG    1        0.126   5.080  -4.853  0.00  0.00    +0.050 A 
ATOM     30 CL   LIG    1        2.455   4.857  -6.215  0.00  0.00    -0.060 Cl
ATOM     31  C   LIG    1       -0.634   5.372  -3.737  0.00  0.00    +0.030 A 
ENDBRANCH  23  25
ENDBRANCH  20  23
ENDBRANCH   5  20
TORSDOF 5
