REMARK  Name = ZINCrD000000CaUU.0
REMARK                            x       y       z     vdW  Elec       q    Type
REMARK                         _______ _______ _______ _____ _____    ______ ____
ROOT
ATOM      1  O   LIG    1        1.433  -0.846   0.085  0.00  0.00    -0.570 OA
ATOM      2  C   LIG    1        2.461  -0.197   0.078  0.00  0.00    +0.730 C 
ATOM      3  N   LIG    1        3.652  -0.821   0.165  0.00  0.00    -0.630 N 
ATOM      4  C   LIG    1        4.986  -0.190   0.171  0.00  0.00    +0.260 C 
ATOM      5  C   LIG    1        5.941  -1.157   0.901  0.00  0.00    +0.080 C 
ATOM      6  C   LIG    1        5.073  -2.375   1.251  0.00  0.00    +0.140 C 
ATOM      7  O   LIG    1        4.630  -2.327   2.607  0.00  0.00    -0.330 OA
ATOM      8  C   LIG    1        4.513  -3.709   3.003  0.00  0.00    +0.260 C 
ATOM      9  C   LIG    1        5.494  -4.475   2.145  0.00  0.00    -0.130 A 
ATOM     10  C   LIG    1        6.049  -5.732   2.257  0.00  0.00    +0.040 A 
ATOM     11  C   LIG    1        6.937  -6.184   1.297  0.00  0.00    +0.020 A 
ATOM     12  C   LIG    1        7.269  -5.374   0.227  0.00  0.00    +0.020 A 
ATOM     13  C   LIG    1        6.715  -4.112   0.116  0.00  0.00    +0.040 A 
ATOM     14  C   LIG    1        5.830  -3.659   1.073  0.00  0.00    -0.120 A 
ATOM     15  C   LIG    1        3.889  -2.281   0.279  0.00  0.00    +0.300 C 
ATOM     16  N   LIG    1        2.409   1.147  -0.015  0.00  0.00    -0.670 N 
ATOM     17  H   LIG    1        3.229   1.660  -0.082  0.00  0.00    +0.410 HD
ENDROOT
BRANCH  16  18
ATOM     18  C   LIG    1        1.170   1.802  -0.016  0.00  0.00    +0.110 A 
ATOM     19  C   LIG    1        0.060   1.210  -0.606  0.00  0.00    +0.110 A 
ATOM     20  C   LIG    1       -1.144   1.900  -0.587  0.00  0.00    -0.040 A 
ATOM     21  C   LIG    1       -1.205   3.138   0.021  0.00  0.00    +0.280 A 
ATOM     22  N   LIG    1       -0.134   3.677   0.575  0.00  0.00    -0.520 NA
ATOM     23  C   LIG    1        1.033   3.058   0.575  0.00  0.00    +0.300 A 
BRANCH  23  24
ATOM     24  O   LIG    1        2.108   3.650   1.156  0.00  0.00    -0.300 OA
BRANCH  24  25
ATOM     25  C   LIG    1        1.902   4.936   1.744  0.00  0.00    +0.220 C 
BRANCH  25  26
ATOM     26  C   LIG    1        3.216   5.439   2.344  0.00  0.00    +0.400 C 
ATOM     27  F   LIG    1        4.182   5.536   1.337  0.00  0.00    -0.200 F 
ATOM     28  F   LIG    1        3.654   4.542   3.325  0.00  0.00    -0.200 F 
ENDBRANCH  25  26
ENDBRANCH  24  25
ENDBRANCH  23  24
ENDBRANCH  16  18
TORSDOF 4
