REMARK  Name = ZINCrg000000ofYD.0
REMARK                            x       y       z     vdW  Elec       q    Type
REMARK                         _______ _______ _______ _____ _____    ______ ____
ROOT
ATOM      1  C   LIG    1        3.324   6.444  -1.449  0.00  0.00    +0.320 C 
ENDROOT
BRANCH   1   8
ATOM      2  C   LIG    1        8.676   8.655  -0.596  0.00  0.00    +0.150 C 
ATOM      3  C   LIG    1        8.081   7.553  -1.480  0.00  0.00    +0.290 C 
ATOM      4  N   LIG    1        6.898   7.002  -0.801  0.00  0.00    -0.630 N 
ATOM      5  C   LIG    1        7.037   6.590   0.605  0.00  0.00    +0.240 C 
ATOM      6  C   LIG    1        7.685   7.733   1.386  0.00  0.00    +0.220 C 
ATOM      7  C   LIG    1        5.721   6.882  -1.446  0.00  0.00    +0.720 C 
ATOM      8  N   LIG    1        4.625   6.468  -0.778  0.00  0.00    -0.740 N 
ATOM      9  H   LIG    1        4.699   6.186   0.147  0.00  0.00    +0.410 HD
ATOM     10  O   LIG    1        5.646   7.147  -2.630  0.00  0.00    -0.580 OA
ATOM     11  O   LIG    1        8.883   8.140   0.722  0.00  0.00    -0.360 OA
BRANCH   2  12
ATOM     12  C   LIG    1       10.013   9.114  -1.181  0.00  0.00    +0.200 C 
BRANCH  12  13
ATOM     13  O   LIG    1       10.511  10.218  -0.424  0.00  0.00    -0.380 OA
BRANCH  13  15
ATOM     14  C   LIG    1       12.197  11.899  -0.010  0.00  0.00    +0.040 C 
ATOM     15  C   LIG    1       11.763  10.726  -0.890  0.00  0.00    +0.160 C 
ENDBRANCH  13  15
ENDBRANCH  12  13
ENDBRANCH   2  12
ENDBRANCH   1   8
BRANCH   1  16
ATOM     16  C   LIG    1        2.273   5.946  -0.490  0.00  0.00    +0.510 C 
ATOM     17  N   LIG    1        0.991   5.840  -0.892  0.00  0.00    -0.710 N 
ATOM     18  H   LIG    1        0.744   6.084  -1.797  0.00  0.00    +0.410 HD
ATOM     19  O   LIG    1        2.582   5.641   0.642  0.00  0.00    -0.530 OA
BRANCH  17  20
ATOM     20  C   LIG    1       -0.030   5.355   0.041  0.00  0.00    +0.290 C 
ATOM     21  C   LIG    1       -1.400   5.894  -0.380  0.00  0.00    +0.010 C 
ATOM     22  C   LIG    1       -2.477   5.147   0.418  0.00  0.00    +0.260 C 
ATOM     23  O   LIG    1       -2.446   3.771   0.038  0.00  0.00    -0.310 OA
ATOM     24  C   LIG    1       -1.242   3.143   0.028  0.00  0.00    +0.140 A 
ATOM     25  C   LIG    1       -1.219   1.752   0.013  0.00  0.00    -0.020 A 
ATOM     26  C   LIG    1       -0.015   1.077   0.002  0.00  0.00    +0.050 A 
ATOM     27  C   LIG    1        1.173   1.784  -0.005  0.00  0.00    -0.040 A 
ATOM     28  C   LIG    1        1.154   3.165   0.006  0.00  0.00    +0.060 A 
ATOM     29  C   LIG    1       -0.051   3.848   0.024  0.00  0.00    -0.180 A 
ENDBRANCH  17  20
ENDBRANCH   1  16
TORSDOF 6
