REMARK  Name = ZINCkj00000dEh2w.0
REMARK                            x       y       z     vdW  Elec       q    Type
REMARK                         _______ _______ _______ _____ _____    ______ ____
ROOT
ATOM      1  O   LIG    1        1.000   2.807  -1.837  0.00  0.00    -0.510 OA
ATOM      2  C   LIG    1       -0.134   2.428  -2.041  0.00  0.00    +0.530 C 
ATOM      3  N   LIG    1       -0.725   1.573  -1.183  0.00  0.00    -0.600 N 
ATOM      4  C   LIG    1       -0.013   1.086   0.008  0.00  0.00    +0.340 C 
ATOM      5  C   LIG    1       -0.731   1.581   1.269  0.00  0.00    +0.310 C 
ATOM      6  N   LIG    1       -2.171   1.360   1.119  0.00  0.00    -0.420 N 
ATOM      7  C   LIG    1       -3.112   1.330   2.079  0.00  0.00    +0.150 A 
ATOM      8  N   LIG    1       -4.274   1.117   1.517  0.00  0.00    -0.400 NA
ATOM      9  C   LIG    1       -4.112   1.002   0.187  0.00  0.00    +0.030 A 
ATOM     10 BR   LIG    1       -5.481   0.691  -1.080  0.00  0.00    +0.050 Br
ATOM     11  C   LIG    1       -2.809   1.148  -0.078  0.00  0.00    +0.010 A 
ATOM     12  C   LIG    1       -2.103   1.100  -1.411  0.00  0.00    +0.420 C 
ENDROOT
BRANCH   2  13
ATOM     13  C   LIG    1       -0.883   2.914  -3.255  0.00  0.00    +0.180 C 
ATOM     14  C   LIG    1       -1.863   4.057  -2.952  0.00  0.00    +0.130 C 
ATOM     15  C   LIG    1       -0.640   4.946  -3.228  0.00  0.00    +0.300 C 
ATOM     16  N   LIG    1       -0.113   3.863  -4.080  0.00  0.00    -0.510 N 
ATOM     17  H   LIG    1       -0.431   3.913  -5.037  0.00  0.00    +0.450 HD
ATOM     18  H   LIG    1        0.886   3.742  -4.004  0.00  0.00    +0.440 HD
ENDBRANCH   2  13
BRANCH   7  19
ATOM     19  C   LIG    1       -2.869   1.511   3.555  0.00  0.00    +0.560 C 
ATOM     20  F   LIG    1       -2.629   2.863   3.825  0.00  0.00    -0.160 F 
ATOM     21  F   LIG    1       -1.758   0.754   3.941  0.00  0.00    -0.160 F 
ATOM     22  F   LIG    1       -3.994   1.085   4.269  0.00  0.00    -0.140 F 
ENDBRANCH   7  19
TORSDOF 2
