REMARK  Name = ZINCtV00001bB3HM.0
REMARK                            x       y       z     vdW  Elec       q    Type
REMARK                         _______ _______ _______ _____ _____    ______ ____
ROOT
ATOM      1  O   LIG    1        2.051   4.729   0.663  0.00  0.00    -0.490 OA
ATOM      2  C   LIG    1        1.001   4.115   0.698  0.00  0.00    +0.570 C 
ATOM      3  C   LIG    1        0.901   2.903   1.521  0.00  0.00    -0.170 A 
ATOM      4  C   LIG    1        1.985   2.439   2.267  0.00  0.00    +0.110 A 
ATOM      5  C   LIG    1        1.851   1.297   3.028  0.00  0.00    -0.020 A 
ATOM      6  C   LIG    1        0.650   0.604   3.060  0.00  0.00    +0.070 A 
ATOM      7  C   LIG    1       -0.435   1.046   2.330  0.00  0.00    -0.020 A 
ATOM      8  C   LIG    1       -0.319   2.196   1.557  0.00  0.00    +0.050 A 
ATOM      9  C   LIG    1       -1.451   2.715   0.761  0.00  0.00    -0.310 C 
ATOM     10  C   LIG    1       -1.236   3.932  -0.029  0.00  0.00    +0.580 C 
ATOM     11  O   LIG    1       -2.146   4.384  -0.700  0.00  0.00    -0.520 OA
ATOM     12  C   LIG    1       -2.670   2.074   0.758  0.00  0.00    +0.450 C 
ATOM     13  N   LIG    1       -0.046   4.556  -0.017  0.00  0.00    -0.510 N 
ENDROOT
BRANCH  13  14
ATOM     14  C   LIG    1        0.108   5.718  -0.784  0.00  0.00    +0.130 A 
ATOM     15  C   LIG    1        0.303   6.943  -0.159  0.00  0.00    +0.040 A 
ATOM     16  C   LIG    1        0.455   8.088  -0.917  0.00  0.00    +0.040 A 
ATOM     17  C   LIG    1        0.415   8.015  -2.297  0.00  0.00    +0.040 A 
ATOM     18  C   LIG    1        0.221   6.796  -2.924  0.00  0.00    -0.030 A 
ATOM     19 CL   LIG    1        0.171   6.710  -4.657  0.00  0.00    -0.060 Cl
ATOM     20  C   LIG    1        0.073   5.647  -2.170  0.00  0.00    +0.040 A 
ENDBRANCH  13  14
BRANCH  12  21
ATOM     21  N   LIG    1       -3.651   2.481  -0.090  0.00  0.00    -0.630 N 
ATOM     22  H   LIG    1       -3.464   3.163  -0.755  0.00  0.00    +0.430 HD
BRANCH  21  23
ATOM     23  C   LIG    1       -4.927   1.918  -0.005  0.00  0.00    +0.130 A 
ATOM     24  C   LIG    1       -5.111   0.565  -0.266  0.00  0.00    -0.040 A 
ATOM     25  C   LIG    1       -6.374   0.011  -0.175  0.00  0.00    +0.060 A 
ATOM     26  C   LIG    1       -7.456   0.803   0.164  0.00  0.00    +0.060 A 
ATOM     27  C   LIG    1       -7.278   2.150   0.418  0.00  0.00    +0.060 A 
ATOM     28 CL   LIG    1       -3.755  -0.429  -0.697  0.00  0.00    -0.040 Cl
ATOM     29  C   LIG    1       -6.017   2.711   0.335  0.00  0.00    -0.030 A 
ATOM     30 CL   LIG    1       -5.796   4.403   0.653  0.00  0.00    -0.030 Cl
ENDBRANCH  21  23
ENDBRANCH  12  21
TORSDOF 3
