REMARK  Name = ZINCkj000005hoVm.0
REMARK                            x       y       z     vdW  Elec       q    Type
REMARK                         _______ _______ _______ _____ _____    ______ ____
ROOT
ATOM      1  N   LIG    1       -2.422   1.725   0.023  0.00  0.00    -0.640 N 
ATOM      2  C   LIG    1       -2.442   0.261  -0.095  0.00  0.00    +0.290 C 
ATOM      3  C   LIG    1       -3.363  -0.128  -1.256  0.00  0.00    +0.040 C 
ATOM      4  C   LIG    1       -4.740   0.504  -1.044  0.00  0.00    +0.010 C 
ATOM      5  C   LIG    1       -4.607   2.027  -1.020  0.00  0.00    -0.010 C 
ATOM      6  C   LIG    1       -5.986   2.662  -0.840  0.00  0.00    +0.270 C 
ATOM      7  N   LIG    1       -6.577   2.223   0.436  0.00  0.00    -0.390 N 
ATOM      8  C   LIG    1       -5.749   2.689   1.556  0.00  0.00    +0.260 C 
ATOM      9  C   LIG    1       -4.364   2.045   1.471  0.00  0.00    +0.050 C 
ATOM     10  C   LIG    1       -7.931   2.776   0.566  0.00  0.00    +0.310 C 
ATOM     11  H   LIG    1       -6.623   1.215   0.451  0.00  0.00    +0.420 HD
ATOM     12  C   LIG    1       -3.700   2.440   0.149  0.00  0.00    +0.260 C 
ENDROOT
BRANCH   1  17
ATOM     13  C   LIG    1        2.408   4.536  -0.042  0.00  0.00    +0.370 C 
ATOM     14  N   LIG    1        1.146   3.792  -0.006  0.00  0.00    -0.410 N 
ATOM     15  N   LIG    1        0.200   3.981  -1.019  0.00  0.00    -0.190 NA
ATOM     16  C   LIG    1       -0.930   3.333  -1.012  0.00  0.00    +0.260 A 
ATOM     17  C   LIG    1       -1.223   2.417   0.021  0.00  0.00    +0.210 A 
ATOM     18  C   LIG    1       -0.302   2.221   1.034  0.00  0.00    -0.130 A 
ATOM     19 CL   LIG    1       -0.634   1.105   2.322  0.00  0.00    -0.000 Cl
ATOM     20  C   LIG    1        0.907   2.931   1.002  0.00  0.00    +0.510 A 
ATOM     21  O   LIG    1        1.738   2.771   1.884  0.00  0.00    -0.510 OA
ENDBRANCH   1  17
TORSDOF 1
