REMARK  Name = ZINCkj000005hoVm.1
REMARK                            x       y       z     vdW  Elec       q    Type
REMARK                         _______ _______ _______ _____ _____    ______ ____
ROOT
ATOM      1  N   LIG    1       -0.882   3.055  -1.143  0.00  0.00    -0.640 N 
ATOM      2  C   LIG    1       -0.756   1.593  -1.233  0.00  0.00    +0.300 C 
ATOM      3  C   LIG    1       -0.014   1.084   0.006  0.00  0.00    +0.010 C 
ATOM      4  C   LIG    1       -0.729   1.578   1.266  0.00  0.00    +0.060 C 
ATOM      5  C   LIG    1       -0.716   3.110   1.291  0.00  0.00    -0.010 C 
ATOM      6  C   LIG    1        0.730   3.609   1.249  0.00  0.00    +0.240 C 
ATOM      7  N   LIG    1        0.749   5.076   1.243  0.00  0.00    -0.380 N 
ATOM      8  C   LIG    1        0.103   5.575   0.022  0.00  0.00    +0.240 C 
ATOM      9  C   LIG    1       -1.364   5.161   0.011  0.00  0.00    +0.070 C 
ATOM     10  C   LIG    1        2.140   5.547   1.287  0.00  0.00    +0.330 C 
ATOM     11  H   LIG    1        0.253   5.422   2.050  0.00  0.00    +0.420 HD
ATOM     12  C   LIG    1       -1.473   3.637   0.068  0.00  0.00    +0.270 C 
ENDROOT
BRANCH   1  17
ATOM     13  C   LIG    1        0.792   6.349  -5.335  0.00  0.00    +0.370 C 
ATOM     14  N   LIG    1        0.372   5.479  -4.234  0.00  0.00    -0.410 N 
ATOM     15  N   LIG    1       -0.963   5.483  -3.817  0.00  0.00    -0.180 NA
ATOM     16  C   LIG    1       -1.365   4.715  -2.844  0.00  0.00    +0.260 A 
ATOM     17  C   LIG    1       -0.454   3.866  -2.180  0.00  0.00    +0.230 A 
ATOM     18  C   LIG    1        0.871   3.848  -2.578  0.00  0.00    -0.170 A 
ATOM     19 CL   LIG    1        2.015   2.811  -1.785  0.00  0.00    -0.000 Cl
ATOM     20  C   LIG    1        1.276   4.681  -3.632  0.00  0.00    +0.510 A 
ATOM     21  O   LIG    1        2.440   4.682  -4.002  0.00  0.00    -0.510 OA
ENDBRANCH   1  17
TORSDOF 1
