REMARK  Name = ZINCkj00000dDVZZ.0
REMARK                            x       y       z     vdW  Elec       q    Type
REMARK                         _______ _______ _______ _____ _____    ______ ____
ROOT
ATOM      1  N   LIG    1       -2.599   3.601   0.034  0.00  0.00    -0.490 N 
ATOM      2  H   LIG    1       -3.096   3.197  -0.745  0.00  0.00    +0.440 HD
ATOM      3  H   LIG    1       -2.615   4.607  -0.043  0.00  0.00    +0.430 HD
ENDROOT
BRANCH   1   4
ATOM      4  C   LIG    1       -3.245   3.197   1.290  0.00  0.00    +0.160 C 
ATOM      5  C   LIG    1       -2.569   3.909   2.463  0.00  0.00    +0.100 C 
BRANCH   4   6
ATOM      6  C   LIG    1       -4.726   3.577   1.248  0.00  0.00    +0.370 C 
BRANCH   6  10
ATOM      7  C   LIG    1       -7.940   0.551  -1.125  0.00  0.00    +0.130 C 
ATOM      8  C   LIG    1       -6.795   1.488  -0.839  0.00  0.00    -0.220 A 
ATOM      9  C   LIG    1       -6.484   2.020   0.366  0.00  0.00    +0.260 A 
ATOM     10  N   LIG    1       -5.399   2.805   0.200  0.00  0.00    -0.400 N 
ATOM     11  N   LIG    1       -5.026   2.747  -1.149  0.00  0.00    -0.350 NA
ATOM     12  C   LIG    1       -5.863   1.957  -1.771  0.00  0.00    +0.290 A 
ENDBRANCH   6  10
ENDBRANCH   4   6
ENDBRANCH   1   4
BRANCH   1  13
ATOM     13  C   LIG    1       -1.208   3.131   0.025  0.00  0.00    +0.230 C 
BRANCH  13  14
ATOM     14  C   LIG    1       -0.510   3.649  -1.206  0.00  0.00    -0.150 A 
ATOM     15  C   LIG    1       -1.175   3.676  -2.418  0.00  0.00    +0.010 A 
ATOM     16  C   LIG    1       -0.536   4.156  -3.546  0.00  0.00    +0.040 A 
ATOM     17  C   LIG    1        0.770   4.600  -3.465  0.00  0.00    +0.060 A 
ATOM     18  C   LIG    1        1.437   4.569  -2.254  0.00  0.00    +0.040 A 
ATOM     19  C   LIG    1        0.797   4.093  -1.125  0.00  0.00    +0.050 A 
ENDBRANCH  13  14
BRANCH  13  20
ATOM     20  C   LIG    1       -1.187   1.624   0.017  0.00  0.00    +0.520 C 
ATOM     21  O   LIG    1       -2.229   1.003   0.018  0.00  0.00    -0.520 OA
ATOM     22  N   LIG    1       -0.011   0.966   0.007  0.00  0.00    -0.820 N 
ATOM     23  H   LIG    1        0.822   1.462   0.002  0.00  0.00    +0.410 HD
ATOM     24  H   LIG    1        0.002  -0.004   0.002  0.00  0.00    +0.420 HD
ENDBRANCH  13  20
ENDBRANCH   1  13
TORSDOF 6
