REMARK  Name = ZINC9u0000000C6M.0
REMARK                            x       y       z     vdW  Elec       q    Type
REMARK                         _______ _______ _______ _____ _____    ______ ____
ROOT
ATOM      1 CL   LIG    1        2.700   1.639  -0.015  0.00  0.00    +0.000 Cl
ATOM      2  C   LIG    1        1.166   2.452   0.004  0.00  0.00    -0.140 A 
ATOM      3  C   LIG    1        1.097   3.836   0.012  0.00  0.00    +0.400 A 
ATOM      4  N   LIG    1       -0.089   4.422   0.026  0.00  0.00    -0.490 NA
ATOM      5  C   LIG    1       -1.197   3.707   0.033  0.00  0.00    +0.380 A 
ATOM      6  N   LIG    1       -1.172   2.388   0.021  0.00  0.00    -0.490 NA
ATOM      7 CL   LIG    1       -2.730   4.522   0.051  0.00  0.00    +0.060 Cl
ATOM      8  C   LIG    1       -0.021   1.732   0.012  0.00  0.00    +0.240 A 
ATOM      9 CL   LIG    1        0.002  -0.004   0.002  0.00  0.00    +0.030 Cl
ENDROOT
TORSDOF 0
