REMARK  Name = ZINCrD00000f6x9E.0
REMARK                            x       y       z     vdW  Elec       q    Type
REMARK                         _______ _______ _______ _____ _____    ______ ____
ROOT
ATOM      1  C   LIG    1        1.334   0.769  -9.378  0.00  0.00    -0.160 A 
ATOM      2  C   LIG    1        0.188   1.536  -9.206  0.00  0.00    +0.090 A 
ATOM      3  C   LIG    1       -0.404   1.624  -7.963  0.00  0.00    +0.010 A 
ATOM      4  C   LIG    1        0.146   0.945  -6.883  0.00  0.00    +0.170 A 
ATOM      5  C   LIG    1        1.294   0.183  -7.053  0.00  0.00    -0.020 A 
ATOM      6  C   LIG    1        1.884   0.091  -8.297  0.00  0.00    +0.090 A 
ENDROOT
BRANCH   4   7
ATOM      7  N   LIG    1       -0.455   1.033  -5.620  0.00  0.00    -0.670 N 
ATOM      8  H   LIG    1        0.094   1.036  -4.821  0.00  0.00    +0.420 HD
ATOM      9  C   LIG    1       -1.797   1.115  -5.517  0.00  0.00    +0.480 C 
ATOM     10  O   LIG    1       -2.478   1.196  -6.517  0.00  0.00    -0.520 OA
BRANCH   9  11
ATOM     11  C   LIG    1       -2.450   1.105  -4.159  0.00  0.00    +0.170 C 
BRANCH  11  12
ATOM     12  N   LIG    1       -3.802   1.671  -4.262  0.00  0.00    -0.810 NA
ATOM     13  H   LIG    1       -4.371   1.133  -4.898  0.00  0.00    +0.350 HD
ATOM     14  H   LIG    1       -3.768   2.640  -4.537  0.00  0.00    +0.350 HD
ENDBRANCH  11  12
BRANCH  11  15
ATOM     15  C   LIG    1       -2.536  -0.333  -3.645  0.00  0.00    +0.320 C 
BRANCH  15  16
ATOM     16  N   LIG    1       -3.277  -0.356  -2.381  0.00  0.00    -0.600 N 
ATOM     17  C   LIG    1       -4.731  -0.525  -2.276  0.00  0.00    +0.260 C 
ATOM     18  C   LIG    1       -4.997  -0.922  -0.807  0.00  0.00    +0.040 C 
ATOM     19  C   LIG    1       -3.769  -0.308  -0.090  0.00  0.00    +0.060 C 
ATOM     20  C   LIG    1       -2.712  -0.226  -1.168  0.00  0.00    +0.520 C 
ATOM     21  O   LIG    1       -1.526  -0.067  -0.968  0.00  0.00    -0.540 OA
ENDBRANCH  15  16
ENDBRANCH  11  15
ENDBRANCH   9  11
ENDBRANCH   4   7
BRANCH   1  22
ATOM     22  S   LIG    1        2.090   0.657 -10.966  0.00  0.00    -0.000 S 
BRANCH  22  28
ATOM     23  C   LIG    1        4.493   4.632  -8.556  0.00  0.00    +0.090 C 
ATOM     24  C   LIG    1        4.395   3.722  -9.753  0.00  0.00    -0.080 A 
ATOM     25  C   LIG    1        5.281   3.867 -10.805  0.00  0.00    +0.000 A 
ATOM     26  C   LIG    1        5.195   3.034 -11.906  0.00  0.00    +0.030 A 
ATOM     27  C   LIG    1        4.224   2.054 -11.958  0.00  0.00    -0.070 A 
ATOM     28  C   LIG    1        3.332   1.906 -10.903  0.00  0.00    -0.100 A 
ATOM     29  C   LIG    1        4.131   1.148 -13.159  0.00  0.00    +0.100 C 
ATOM     30  C   LIG    1        3.418   2.747  -9.801  0.00  0.00    +0.000 A 
ENDBRANCH  22  28
ENDBRANCH   1  22
TORSDOF 7
