REMARK  Name = ZINCpe00000gN9na.0
REMARK                            x       y       z     vdW  Elec       q    Type
REMARK                         _______ _______ _______ _____ _____    ______ ____
ROOT
ATOM      1  N   LIG    1        5.773   3.097   0.844  0.00  0.00    -0.600 N 
ATOM      2  C   LIG    1        5.805   1.628   0.830  0.00  0.00    +0.290 C 
ATOM      3  C   LIG    1        4.872   1.128  -0.280  0.00  0.00    +0.290 C 
ATOM      4  N   LIG    1        3.575   1.807  -0.145  0.00  0.00    -0.610 N 
ATOM      5  C   LIG    1        3.543   3.276  -0.137  0.00  0.00    +0.250 C 
ATOM      6  C   LIG    1        2.436   1.095  -0.036  0.00  0.00    +0.570 C 
ATOM      7  O   LIG    1        2.484  -0.116   0.080  0.00  0.00    -0.530 OA
ATOM      8  C   LIG    1        4.476   3.776   0.979  0.00  0.00    +0.290 C 
ENDROOT
BRANCH   6   9
ATOM      9  C   LIG    1        1.143   1.777  -0.057  0.00  0.00    -0.250 C 
ATOM     10  C   LIG    1        0.042   1.164   0.443  0.00  0.00    +0.170 C 
ATOM     11  C   LIG    1       -1.239   1.885   0.373  0.00  0.00    -0.160 A 
ATOM     12  C   LIG    1       -2.338   1.494   1.136  0.00  0.00    +0.070 A 
ATOM     13  C   LIG    1       -3.519   2.201   1.038  0.00  0.00    -0.020 A 
ATOM     14  C   LIG    1       -3.615   3.291   0.189  0.00  0.00    +0.060 A 
ATOM     15  C   LIG    1       -2.531   3.692  -0.563  0.00  0.00    -0.010 A 
ATOM     16  C   LIG    1       -1.339   2.994  -0.483  0.00  0.00    +0.140 A 
ATOM     17  O   LIG    1       -0.260   3.355  -1.221  0.00  0.00    -0.310 OA
ATOM     18  C   LIG    1        1.028   3.163  -0.635  0.00  0.00    +0.310 C 
ENDBRANCH   6   9
BRANCH   1  23
ATOM     19  O   LIG    1       10.320   5.907   0.403  0.00  0.00    -0.540 OA
ATOM     20  C   LIG    1        9.278   5.279   0.505  0.00  0.00    +0.490 A 
ATOM     21  C   LIG    1        8.064   5.954   0.752  0.00  0.00    +0.040 A 
ATOM     22  C   LIG    1        6.914   5.237   0.858  0.00  0.00    +0.040 A 
ATOM     23  C   LIG    1        6.951   3.834   0.730  0.00  0.00    +0.360 A 
ATOM     24  N   LIG    1        8.085   3.217   0.501  0.00  0.00    -0.310 NA
ATOM     25  N   LIG    1        9.279   3.937   0.383  0.00  0.00    -0.500 N 
ATOM     26  H   LIG    1       10.111   3.468   0.213  0.00  0.00    +0.440 HD
ENDBRANCH   1  23
TORSDOF 2
