REMARK  Name = ZINCkj00000GeR2Z.0
REMARK                            x       y       z     vdW  Elec       q    Type
REMARK                         _______ _______ _______ _____ _____    ______ ____
ROOT
ATOM      1  C   LIG    1       -0.019   1.526   0.010  0.00  0.00    +0.240 C 
ENDROOT
BRANCH   1   2
ATOM      2  N   LIG    1        1.359   2.034   0.000  0.00  0.00    -0.500 N 
ATOM      3  H   LIG    1        1.832   1.709  -0.830  0.00  0.00    +0.430 HD
ATOM      4  H   LIG    1        1.847   1.700   0.817  0.00  0.00    +0.430 HD
BRANCH   2   5
ATOM      5  C   LIG    1        1.340   3.503   0.008  0.00  0.00    +0.250 C 
BRANCH   5   6
ATOM      6  C   LIG    1        2.775   4.033  -0.003  0.00  0.00    +0.100 C 
BRANCH   6   7
ATOM      7  C   LIG    1        2.755   5.540   0.005  0.00  0.00    -0.110 A 
ATOM      8  C   LIG    1        2.739   6.237  -1.188  0.00  0.00    +0.010 A 
ATOM      9  C   LIG    1        2.716   7.619  -1.180  0.00  0.00    +0.020 A 
ATOM     10  C   LIG    1        2.718   8.304   0.021  0.00  0.00    +0.030 A 
ATOM     11  C   LIG    1        2.738   7.606   1.214  0.00  0.00    +0.020 A 
ATOM     12  C   LIG    1        2.757   6.224   1.206  0.00  0.00    +0.010 A 
ENDBRANCH   6   7
ENDBRANCH   5   6
ENDBRANCH   2   5
ENDBRANCH   1   2
BRANCH   1  13
ATOM     13  C   LIG    1        0.002  -0.004   0.002  0.00  0.00    +0.220 C 
BRANCH  13  14
ATOM     14  O   LIG    1        0.590  -0.479   1.215  0.00  0.00    -0.540 OA
ATOM     15  H   LIG    1        0.119  -0.205   2.014  0.00  0.00    +0.390 HD
ENDBRANCH  13  14
BRANCH  13  16
ATOM     16  C   LIG    1       -1.429  -0.533  -0.113  0.00  0.00    +0.160 C 
BRANCH  16  17
ATOM     17  O   LIG    1       -1.402  -1.956  -0.238  0.00  0.00    -0.370 OA
BRANCH  17  18
ATOM     18  C   LIG    1       -2.695  -2.554  -0.352  0.00  0.00    +0.200 C 
BRANCH  18  19
ATOM     19  C   LIG    1       -2.546  -4.071  -0.480  0.00  0.00    +0.160 C 
ATOM     20  C   LIG    1       -3.926  -4.731  -0.692  0.00  0.00    +0.010 C 
ATOM     21  C   LIG    1       -3.838  -6.051   0.108  0.00  0.00    +0.000 C 
ATOM     22  C   LIG    1       -2.415  -6.031   0.709  0.00  0.00    +0.200 C 
ATOM     23  O   LIG    1       -2.051  -4.633   0.755  0.00  0.00    -0.370 OA
ENDBRANCH  18  19
ENDBRANCH  17  18
ENDBRANCH  16  17
ENDBRANCH  13  16
ENDBRANCH   1  13
TORSDOF 10
