REMARK  Name = ZINCpk00000KfKE0.0
REMARK                            x       y       z     vdW  Elec       q    Type
REMARK                         _______ _______ _______ _____ _____    ______ ____
ROOT
ATOM      1  N   LIG    1       -0.016   1.344   0.009  0.00  0.00    -0.530 N 
ATOM      2  H   LIG    1        0.817   1.840   0.004  0.00  0.00    +0.440 HD
ENDROOT
BRANCH   1  10
ATOM      3  C   LIG    1       -2.360   8.015   0.059  0.00  0.00    +0.100 C 
ATOM      4  C   LIG    1       -2.862   6.594   0.053  0.00  0.00    -0.100 A 
ATOM      5  C   LIG    1       -4.219   6.344   0.058  0.00  0.00    +0.080 A 
ATOM      6  C   LIG    1       -4.696   5.044   0.052  0.00  0.00    +0.000 A 
ATOM      7  C   LIG    1       -3.813   3.983   0.041  0.00  0.00    +0.100 A 
ATOM      8  C   LIG    1       -2.444   4.225   0.037  0.00  0.00    -0.100 A 
ATOM      9  C   LIG    1       -1.257   3.339   0.026  0.00  0.00    +0.110 C 
ATOM     10  N   LIG    1       -1.239   2.027   0.019  0.00  0.00    -0.180 NA
ATOM     11  C   LIG    1       -0.098   4.253   0.032  0.00  0.00    +0.540 C 
ATOM     12  O   LIG    1        1.073   3.925   0.031  0.00  0.00    -0.480 OA
ATOM     13  N   LIG    1       -0.567   5.513   0.036  0.00  0.00    -0.640 N 
ATOM     14  H   LIG    1       -0.006   6.304   0.039  0.00  0.00    +0.430 HD
ATOM     15  C   LIG    1       -1.957   5.538   0.042  0.00  0.00    +0.160 A 
ENDBRANCH   1  10
BRANCH   1  16
ATOM     16  C   LIG    1        0.002  -0.004   0.002  0.00  0.00    +0.580 C 
ATOM     17  S   LIG    1        1.496  -0.840  -0.017  0.00  0.00    -0.580 S 
BRANCH  16  18
ATOM     18  N   LIG    1       -1.156  -0.694   0.009  0.00  0.00    -0.660 N 
ATOM     19  H   LIG    1       -2.002  -0.220   0.020  0.00  0.00    +0.410 HD
BRANCH  18  20
ATOM     20  C   LIG    1       -1.136  -2.159   0.001  0.00  0.00    +0.300 C 
BRANCH  20  21
ATOM     21  C   LIG    1       -2.571  -2.688   0.012  0.00  0.00    +0.020 C 
BRANCH  21  22
ATOM     22  C   LIG    1       -2.551  -4.218   0.004  0.00  0.00    +0.180 C 
BRANCH  22  23
ATOM     23  N   LIG    1       -3.929  -4.726   0.014  0.00  0.00    -0.540 NA
ATOM     24  C   LIG    1       -4.601  -4.399   1.280  0.00  0.00    +0.150 C 
ATOM     25  C   LIG    1       -6.049  -4.894   1.225  0.00  0.00    +0.220 C 
ATOM     26  O   LIG    1       -6.058  -6.298   0.954  0.00  0.00    -0.390 OA
ATOM     27  C   LIG    1       -5.412  -6.652  -0.272  0.00  0.00    +0.220 C 
ATOM     28  C   LIG    1       -3.958  -6.176  -0.232  0.00  0.00    +0.160 C 
ENDBRANCH  22  23
ENDBRANCH  21  22
ENDBRANCH  20  21
ENDBRANCH  18  20
ENDBRANCH  16  18
ENDBRANCH   1  16
TORSDOF 7
