REMARK  Name = ZINCnE00000rhnZO.0
REMARK                            x       y       z     vdW  Elec       q    Type
REMARK                         _______ _______ _______ _____ _____    ______ ____
ROOT
ATOM      1  N   LIG    1       -0.017   1.379   0.010  0.00  0.00    -1.020 NA
ENDROOT
BRANCH   1   2
ATOM      2  C   LIG    1        0.002  -0.004   0.002  0.00  0.00    +0.310 A 
ATOM      3  C   LIG    1       -1.080  -0.836   0.013  0.00  0.00    -0.170 A 
ATOM      4  C   LIG    1       -0.510  -2.134  -0.005  0.00  0.00    +0.070 A 
ATOM      5  N   LIG    1        0.791  -1.965  -0.016  0.00  0.00    -0.400 NA
ATOM      6  O   LIG    1        1.088  -0.793  -0.012  0.00  0.00    +0.000 OA
BRANCH   4   7
ATOM      7  C   LIG    1       -1.240  -3.427  -0.005  0.00  0.00    -0.040 A 
ATOM      8  C   LIG    1       -0.541  -4.637  -0.018  0.00  0.00    +0.080 A 
ATOM      9  C   LIG    1       -1.268  -5.815  -0.018  0.00  0.00    -0.040 A 
ATOM     10  C   LIG    1       -2.649  -5.758  -0.004  0.00  0.00    +0.240 A 
ATOM     11  N   LIG    1       -3.281  -4.600   0.008  0.00  0.00    -0.490 NA
ATOM     12  C   LIG    1       -2.632  -3.454   0.014  0.00  0.00    +0.280 A 
ENDBRANCH   4   7
ENDBRANCH   1   2
BRANCH   1  14
ATOM     13  O   LIG    1        2.041   1.957   1.243  0.00  0.00    -1.010 OA
ATOM     14  S   LIG    1        1.406   2.226   0.001  0.00  0.00    +2.610 S 
ATOM     15  O   LIG    1        2.017   1.970  -1.256  0.00  0.00    -1.000 OA
BRANCH  14  16
ATOM     16  C   LIG    1        0.993   3.939   0.014  0.00  0.00    -0.660 A 
ATOM     17  C   LIG    1        1.328   4.722   1.102  0.00  0.00    +0.190 A 
ATOM     18  C   LIG    1        1.009   6.068   1.110  0.00  0.00    -0.130 A 
ATOM     19  C   LIG    1        0.344   6.629   0.034  0.00  0.00    +0.130 A 
ATOM     20  C   LIG    1        0.004   5.845  -1.053  0.00  0.00    -0.020 A 
ATOM     21 BR   LIG    1        1.474   7.141   2.596  0.00  0.00    -0.040 Br
ATOM     22  C   LIG    1        0.328   4.499  -1.064  0.00  0.00    +0.220 A 
ATOM     23  F   LIG    1       -0.005   3.733  -2.125  0.00  0.00    -0.110 F 
ENDBRANCH  14  16
ENDBRANCH   1  14
TORSDOF 4
