REMARK  Name = ZINCpe00000VVGwV.0
REMARK                            x       y       z     vdW  Elec       q    Type
REMARK                         _______ _______ _______ _____ _____    ______ ____
ROOT
ATOM      1  N   LIG    1       -1.627  -1.078   1.392  0.00  0.00    -0.550 NA
ATOM      2  C   LIG    1       -0.632  -1.834   2.166  0.00  0.00    +0.180 C 
ATOM      3  C   LIG    1       -1.103  -1.954   3.617  0.00  0.00    +0.190 C 
ATOM      4  N   LIG    1       -2.411  -2.623   3.651  0.00  0.00    -0.530 NA
ATOM      5  C   LIG    1       -3.406  -1.867   2.877  0.00  0.00    +0.200 C 
ATOM      6  C   LIG    1       -2.935  -1.747   1.426  0.00  0.00    +0.210 C 
ENDROOT
BRANCH   1   7
ATOM      7  C   LIG    1       -1.175  -0.876   0.009  0.00  0.00    +0.500 C 
BRANCH   7  10
ATOM      8  C   LIG    1        1.225   1.723  -0.000  0.00  0.00    +0.150 A 
ATOM      9  N   LIG    1       -0.015   1.284   0.009  0.00  0.00    -0.220 NA
ATOM     10  N   LIG    1        0.002  -0.004   0.002  0.00  0.00    -0.290 N 
ATOM     11  C   LIG    1        1.284  -0.414  -0.012  0.00  0.00    +0.420 A 
ATOM     12  N   LIG    1        2.042   0.653  -0.014  0.00  0.00    -0.460 NA
BRANCH   8  13
ATOM     13  C   LIG    1        1.647   3.139   0.003  0.00  0.00    +0.570 C 
ATOM     14  O   LIG    1        0.812   4.021   0.016  0.00  0.00    -0.480 OA
BRANCH  13  16
ATOM     15  C   LIG    1        3.298   4.863  -0.003  0.00  0.00    +0.290 C 
ATOM     16  O   LIG    1        2.957   3.451  -0.008  0.00  0.00    -0.340 OA
ENDBRANCH  13  16
ENDBRANCH   8  13
ENDBRANCH   7  10
ENDBRANCH   1   7
BRANCH   4  17
ATOM     17  C   LIG    1       -2.862  -2.825   5.034  0.00  0.00    +0.240 C 
BRANCH  17  18
ATOM     18  C   LIG    1       -1.946  -3.802   5.724  0.00  0.00    -0.120 A 
ATOM     19  C   LIG    1       -2.225  -5.156   5.685  0.00  0.00    +0.070 A 
ATOM     20  C   LIG    1       -1.383  -6.054   6.312  0.00  0.00    -0.080 A 
ATOM     21  C   LIG    1       -0.263  -5.596   6.991  0.00  0.00    +0.130 A 
ATOM     22  C   LIG    1        0.011  -4.237   7.034  0.00  0.00    -0.020 A 
ATOM     23  C   LIG    1       -0.831  -3.343   6.400  0.00  0.00    +0.060 A 
BRANCH  21  24
ATOM     24  O   LIG    1        0.564  -6.477   7.613  0.00  0.00    -0.320 OA
ATOM     25  C   LIG    1        0.219  -7.861   7.528  0.00  0.00    +0.250 C 
ENDBRANCH  21  24
ENDBRANCH  17  18
ENDBRANCH   4  17
TORSDOF 7
