REMARK  Name = ZINCrD000000AjoW.0
REMARK                            x       y       z     vdW  Elec       q    Type
REMARK                         _______ _______ _______ _____ _____    ______ ____
ROOT
ATOM      1  C   LIG    1       -4.405   2.240   3.032  0.00  0.00    +0.100 C 
ENDROOT
BRANCH   1   2
ATOM      2  C   LIG    1       -3.346   2.972   2.249  0.00  0.00    +0.530 C 
ATOM      3  N   LIG    1       -3.504   3.173   0.926  0.00  0.00    -0.610 N 
ATOM      4  C   LIG    1       -4.658   2.732   0.121  0.00  0.00    +0.250 C 
ATOM      5  C   LIG    1       -4.680   3.688  -1.097  0.00  0.00    +0.040 C 
ATOM      6  C   LIG    1       -3.165   3.879  -1.372  0.00  0.00    +0.040 C 
ATOM      7  C   LIG    1       -2.553   3.868   0.045  0.00  0.00    +0.270 C 
ATOM      8  O   LIG    1       -2.351   3.380   2.810  0.00  0.00    -0.530 OA
BRANCH   7   9
ATOM      9  C   LIG    1       -1.238   3.133   0.030  0.00  0.00    -0.100 A 
ATOM     10  C   LIG    1       -1.218   1.751   0.017  0.00  0.00    +0.050 A 
ATOM     11  C   LIG    1       -0.013   1.076   0.008  0.00  0.00    -0.020 A 
ATOM     12  C   LIG    1        1.177   1.785   0.000  0.00  0.00    +0.100 A 
ATOM     13  C   LIG    1        1.157   3.169   0.008  0.00  0.00    -0.010 A 
ATOM     14  F   LIG    1        2.356   1.126  -0.013  0.00  0.00    -0.140 F 
ATOM     15  C   LIG    1       -0.051   3.842   0.022  0.00  0.00    +0.050 A 
ENDBRANCH   7   9
ENDBRANCH   1   2
BRANCH   1  16
ATOM     16  C   LIG    1       -3.983   2.148   4.499  0.00  0.00    +0.150 C 
BRANCH  16  20
ATOM     17  O   LIG    1       -8.070  -0.059   4.666  0.00  0.00    -0.480 OA
ATOM     18  C   LIG    1       -7.088   0.330   5.275  0.00  0.00    +0.530 A 
ATOM     19  N   LIG    1       -6.099   0.992   4.645  0.00  0.00    -0.600 NA
ATOM     20  C   LIG    1       -5.043   1.416   5.282  0.00  0.00    +0.450 A 
ATOM     21  N   LIG    1       -4.848   1.230   6.599  0.00  0.00    -0.620 N 
ATOM     22  H   LIG    1       -4.039   1.565   7.018  0.00  0.00    +0.420 HD
ATOM     23  C   LIG    1       -5.791   0.570   7.361  0.00  0.00    +0.170 A 
ATOM     24  C   LIG    1       -5.623   0.365   8.723  0.00  0.00    -0.020 A 
ATOM     25  C   LIG    1       -6.594  -0.305   9.438  0.00  0.00    +0.080 A 
ATOM     26  C   LIG    1       -7.737  -0.777   8.809  0.00  0.00    -0.010 A 
ATOM     27  C   LIG    1       -7.922  -0.584   7.457  0.00  0.00    +0.110 A 
ATOM     28  C   LIG    1       -6.951   0.091   6.723  0.00  0.00    -0.210 A 
ENDBRANCH  16  20
ENDBRANCH   1  16
TORSDOF 4
