REMARK  Name = ZINCrH00000No503.0
REMARK                            x       y       z     vdW  Elec       q    Type
REMARK                         _______ _______ _______ _____ _____    ______ ____
ROOT
ATOM      1  N   LIG    1       -2.254  -2.883   0.041  0.00  0.00    -0.730 N 
ATOM      2  H   LIG    1       -3.135  -2.478   0.063  0.00  0.00    +0.410 HD
ATOM      3  C   LIG    1       -1.155  -2.104   0.022  0.00  0.00    +0.520 C 
ATOM      4  O   LIG    1       -0.053  -2.610  -0.005  0.00  0.00    -0.520 OA
ENDROOT
BRANCH   1   6
ATOM      5  C   LIG    1       -1.915  -4.846   1.459  0.00  0.00    +0.060 C 
ATOM      6  C   LIG    1       -2.119  -4.342   0.029  0.00  0.00    +0.350 C 
BRANCH   6   7
ATOM      7  C   LIG    1       -3.368  -4.957  -0.547  0.00  0.00    +0.020 A 
ATOM      8  C   LIG    1       -3.391  -6.007  -1.381  0.00  0.00    -0.020 A 
ATOM      9  C   LIG    1       -4.805  -6.260  -1.681  0.00  0.00    -0.130 A 
ATOM     10  C   LIG    1       -5.483  -7.190  -2.466  0.00  0.00    +0.060 A 
ATOM     11  C   LIG    1       -6.859  -7.151  -2.532  0.00  0.00    +0.000 A 
ATOM     12  C   LIG    1       -7.566  -6.192  -1.821  0.00  0.00    +0.050 A 
ATOM     13  C   LIG    1       -6.907  -5.266  -1.041  0.00  0.00    +0.020 A 
ATOM     14  C   LIG    1       -5.521  -5.288  -0.961  0.00  0.00    +0.060 A 
ATOM     15  O   LIG    1       -4.620  -4.537  -0.296  0.00  0.00    -0.190 OA
ENDBRANCH   6   7
ENDBRANCH   1   6
BRANCH   3  16
ATOM     16  C   LIG    1       -1.294  -0.603   0.034  0.00  0.00    +0.240 C 
BRANCH  16  17
ATOM     17  O   LIG    1        0.003  -0.004   0.009  0.00  0.00    -0.220 OA
BRANCH  17  18
ATOM     18  N   LIG    1       -0.017   1.412   0.018  0.00  0.00    -0.350 NA
ATOM     19  C   LIG    1        1.095   2.074  -0.002  0.00  0.00    +0.290 C 
BRANCH  19  20
ATOM     20  C   LIG    1        1.075   3.549   0.007  0.00  0.00    -0.130 A 
ATOM     21  C   LIG    1       -0.143   4.232   0.032  0.00  0.00    +0.110 A 
ATOM     22  C   LIG    1       -0.159   5.609   0.046  0.00  0.00    -0.080 A 
ATOM     23  C   LIG    1        1.037   6.320   0.025  0.00  0.00    +0.240 A 
ATOM     24  C   LIG    1        2.252   5.643  -0.006  0.00  0.00    -0.070 A 
ATOM     25  C   LIG    1        2.274   4.266  -0.015  0.00  0.00    +0.100 A 
BRANCH  23  26
ATOM     26  N   LIG    1        1.018   7.713   0.033  0.00  0.00    -0.630 N 
ATOM     27  C   LIG    1       -0.256   8.429  -0.062  0.00  0.00    +0.280 C 
ATOM     28  C   LIG    1        2.273   8.462   0.137  0.00  0.00    +0.280 C 
ENDBRANCH  23  26
ENDBRANCH  19  20
ENDBRANCH  17  18
ENDBRANCH  16  17
ENDBRANCH   3  16
TORSDOF 7
