REMARK  Name = ZINCrH00000No56h.0
REMARK                            x       y       z     vdW  Elec       q    Type
REMARK                         _______ _______ _______ _____ _____    ______ ____
ROOT
ATOM      1  O   LIG    1        3.598   2.061  -0.050  0.00  0.00    -0.210 OA
ENDROOT
BRANCH   1   2
ATOM      2  N   LIG    1        2.381   1.336  -0.031  0.00  0.00    -0.250 NA
ATOM      3  C   LIG    1        1.253   1.967  -0.014  0.00  0.00    +0.200 C 
BRANCH   3   4
ATOM      4  C   LIG    1       -0.014   1.212   0.006  0.00  0.00    +0.570 C 
ATOM      5  N   LIG    1       -1.191   1.869   0.018  0.00  0.00    -0.650 N 
ATOM      6  H   LIG    1       -1.205   2.836   0.099  0.00  0.00    +0.420 HD
ATOM      7  O   LIG    1        0.003  -0.004   0.006  0.00  0.00    -0.490 OA
BRANCH   5   8
ATOM      8  C   LIG    1       -2.390   1.159  -0.086  0.00  0.00    +0.150 A 
ATOM      9  C   LIG    1       -2.410  -0.088  -0.699  0.00  0.00    +0.020 A 
ATOM     10  C   LIG    1       -3.596  -0.787  -0.799  0.00  0.00    +0.030 A 
ATOM     11  C   LIG    1       -4.764  -0.248  -0.291  0.00  0.00    -0.010 A 
ATOM     12  C   LIG    1       -4.748   0.993   0.320  0.00  0.00    -0.070 A 
ATOM     13  C   LIG    1       -6.022   1.576   0.873  0.00  0.00    +0.090 C 
ATOM     14  C   LIG    1       -3.564   1.695   0.429  0.00  0.00    -0.110 A 
ATOM     15  C   LIG    1       -3.546   3.044   1.100  0.00  0.00    +0.090 C 
ENDBRANCH   5   8
ENDBRANCH   3   4
ENDBRANCH   1   2
BRANCH   1  16
ATOM     16  C   LIG    1        4.765   1.237  -0.067  0.00  0.00    +0.230 C 
BRANCH  16  17
ATOM     17  C   LIG    1        5.995   2.108  -0.086  0.00  0.00    +0.430 C 
ATOM     18  O   LIG    1        5.882   3.317  -0.085  0.00  0.00    -0.460 OA
BRANCH  17  22
ATOM     19  N   LIG    1        9.517   1.224  -0.140  0.00  0.00    -0.430 N 
ATOM     20  C   LIG    1        8.980  -0.031  -0.132  0.00  0.00    +0.010 A 
ATOM     21  C   LIG    1        7.640   0.062  -0.111  0.00  0.00    +0.000 A 
ATOM     22  C   LIG    1        7.325   1.497  -0.107  0.00  0.00    -0.270 A 
ATOM     23  C   LIG    1        9.766  -1.317  -0.144  0.00  0.00    +0.120 C 
ATOM     24  C   LIG    1        8.542   2.151  -0.131  0.00  0.00    +0.120 A 
ATOM     25  C   LIG    1        8.743   3.645  -0.143  0.00  0.00    +0.150 C 
BRANCH  19  26
ATOM     26  C   LIG    1       10.951   1.520  -0.161  0.00  0.00    +0.320 C 
BRANCH  26  28
ATOM     27  C   LIG    1       12.043   2.700  -1.999  0.00  0.00    +0.050 C 
ATOM     28  C   LIG    1       11.422   1.621  -1.589  0.00  0.00    -0.070 C 
ENDBRANCH  26  28
ENDBRANCH  19  26
ENDBRANCH  17  22
ENDBRANCH  16  17
ENDBRANCH   1  16
TORSDOF 8
