REMARK  Name = ZINCpe000000Ytzy.0
REMARK                            x       y       z     vdW  Elec       q    Type
REMARK                         _______ _______ _______ _____ _____    ______ ____
ROOT
ATOM      1  C   LIG    1        5.097   3.882   2.670  0.00  0.00    +0.530 C 
ATOM      2  N   LIG    1        5.790   4.762   3.420  0.00  0.00    -0.580 N 
ATOM      3  C   LIG    1        5.935   6.202   3.139  0.00  0.00    +0.270 C 
ATOM      4  C   LIG    1        7.244   6.615   3.858  0.00  0.00    +0.040 C 
ATOM      5  C   LIG    1        7.178   5.754   5.146  0.00  0.00    +0.050 C 
ATOM      6  C   LIG    1        6.519   4.446   4.657  0.00  0.00    +0.270 C 
ATOM      7  O   LIG    1        5.045   2.715   2.998  0.00  0.00    -0.500 OA
ENDROOT
BRANCH   1  13
ATOM      8  N   LIG    1        1.285   2.126   0.014  0.00  0.00    -0.540 NA
ATOM      9  C   LIG    1        1.930   1.797   1.292  0.00  0.00    +0.170 C 
ATOM     10  C   LIG    1        3.429   2.101   1.197  0.00  0.00    +0.300 C 
ATOM     11  N   LIG    1        3.596   3.494   0.757  0.00  0.00    -0.580 N 
ATOM     12  C   LIG    1        2.869   3.937  -0.443  0.00  0.00    +0.290 C 
ATOM     13  C   LIG    1        4.394   4.343   1.435  0.00  0.00    +0.510 C 
ATOM     14  O   LIG    1        4.542   5.481   1.042  0.00  0.00    -0.520 OA
ATOM     15  C   LIG    1        1.393   3.561  -0.283  0.00  0.00    +0.170 C 
BRANCH   8  16
ATOM     16  C   LIG    1       -0.117   1.690   0.004  0.00  0.00    +0.200 C 
BRANCH  16  17
ATOM     17  C   LIG    1       -0.177   0.163   0.068  0.00  0.00    +0.210 C 
BRANCH  17  19
ATOM     18  N   LIG    1       -2.667  -0.611   0.051  0.00  0.00    -0.430 NA
ATOM     19  C   LIG    1       -1.583  -0.274   0.058  0.00  0.00    +0.200 C 
ENDBRANCH  17  19
ENDBRANCH  16  17
ENDBRANCH   8  16
ENDBRANCH   1  13
BRANCH   6  20
ATOM     20  C   LIG    1        5.561   3.930   5.700  0.00  0.00    -0.040 A 
ATOM     21  C   LIG    1        4.296   4.482   5.836  0.00  0.00    -0.030 A 
ATOM     22  C   LIG    1        3.444   3.980   6.801  0.00  0.00    +0.250 A 
ATOM     23  N   LIG    1        3.825   2.995   7.592  0.00  0.00    -0.480 NA
ATOM     24  C   LIG    1        5.021   2.450   7.494  0.00  0.00    +0.260 A 
ATOM     25  C   LIG    1        5.926   2.897   6.549  0.00  0.00    -0.020 A 
ENDBRANCH   6  20
TORSDOF 5
