REMARK  Name = ZINCrH000004oJ7S.0
REMARK                            x       y       z     vdW  Elec       q    Type
REMARK                         _______ _______ _______ _____ _____    ______ ____
ROOT
ATOM      1  C   LIG    1       -7.372   1.504  -3.240  0.00  0.00    -0.050 A 
ATOM      2  C   LIG    1       -7.363   1.006  -1.949  0.00  0.00    +0.010 A 
ATOM      3  C   LIG    1       -6.394   1.414  -1.056  0.00  0.00    +0.080 A 
ATOM      4  C   LIG    1       -5.421   2.331  -1.457  0.00  0.00    -0.140 A 
ATOM      5  C   LIG    1       -5.439   2.833  -2.759  0.00  0.00    +0.050 A 
ATOM      6  C   LIG    1       -6.411   2.413  -3.644  0.00  0.00    +0.030 A 
ENDROOT
BRANCH   4   7
ATOM      7  C   LIG    1       -4.380   2.773  -0.505  0.00  0.00    +0.560 C 
ATOM      8  N   LIG    1       -3.442   3.659  -0.896  0.00  0.00    -0.720 N 
ATOM      9  H   LIG    1       -3.450   4.006  -1.802  0.00  0.00    +0.400 HD
ATOM     10  O   LIG    1       -4.370   2.338   0.630  0.00  0.00    -0.530 OA
BRANCH   8  11
ATOM     11  C   LIG    1       -2.410   4.097   0.047  0.00  0.00    +0.300 C 
ATOM     12  C   LIG    1       -1.822   5.455  -0.391  0.00  0.00    +0.050 C 
ATOM     13  C   LIG    1       -0.344   5.329   0.034  0.00  0.00    +0.090 C 
ATOM     14  C   LIG    1       -0.053   3.843   0.023  0.00  0.00    -0.090 A 
ATOM     15  C   LIG    1        1.153   3.165   0.008  0.00  0.00    +0.010 A 
ATOM     16  C   LIG    1        1.174   1.784   0.000  0.00  0.00    +0.010 A 
ATOM     17  C   LIG    1       -0.013   1.076   0.008  0.00  0.00    +0.000 A 
ATOM     18  C   LIG    1       -1.218   1.751   0.017  0.00  0.00    +0.030 A 
ATOM     19  C   LIG    1       -1.241   3.135   0.031  0.00  0.00    -0.110 A 
ENDBRANCH   8  11
ENDBRANCH   4   7
BRANCH   1  20
ATOM     20  C   LIG    1       -8.434   1.054  -4.210  0.00  0.00    +0.230 C 
BRANCH  20  24
ATOM     21  C   LIG    1      -12.745   2.370  -6.187  0.00  0.00    +0.050 C 
ATOM     22  C   LIG    1      -11.709   2.684  -5.105  0.00  0.00    +0.160 C 
ATOM     23  C   LIG    1      -10.548   1.691  -5.205  0.00  0.00    +0.150 C 
ATOM     24  N   LIG    1       -9.594   1.950  -4.117  0.00  0.00    -0.530 NA
ATOM     25  C   LIG    1      -10.251   1.827  -2.808  0.00  0.00    +0.150 C 
ATOM     26  C   LIG    1      -11.415   2.819  -2.732  0.00  0.00    +0.200 C 
ATOM     27  C   LIG    1      -10.877   4.248  -2.829  0.00  0.00    +0.020 C 
ATOM     28  O   LIG    1      -12.316   2.572  -3.815  0.00  0.00    -0.380 OA
ENDBRANCH  20  24
ENDBRANCH   1  20
TORSDOF 4
