REMARK  Name = ZINCrD000000CV5c.0
REMARK                            x       y       z     vdW  Elec       q    Type
REMARK                         _______ _______ _______ _____ _____    ______ ____
ROOT
ATOM      1  O   LIG    1        3.398   6.960  -0.588  0.00  0.00    -0.520 OA
ATOM      2  C   LIG    1        3.165   5.849  -0.155  0.00  0.00    +0.700 C 
ATOM      3  N   LIG    1        2.723   4.825  -0.913  0.00  0.00    -0.720 N 
ATOM      4  H   LIG    1        2.541   4.842  -1.866  0.00  0.00    +0.440 HD
ATOM      5  C   LIG    1        2.572   3.684  -0.010  0.00  0.00    +0.170 C 
ATOM      6  C   LIG    1        2.987   4.210   1.339  0.00  0.00    +0.540 C 
ATOM      7  O   LIG    1        3.018   3.603   2.388  0.00  0.00    -0.450 OA
ATOM      8  C   LIG    1        3.456   2.507  -0.443  0.00  0.00    +0.080 C 
ATOM      9  C   LIG    1        2.610   1.288  -0.010  0.00  0.00    +0.100 C 
ATOM     10  C   LIG    1        1.178   1.781   0.000  0.00  0.00    -0.070 A 
ATOM     11  C   LIG    1       -0.013   1.076   0.008  0.00  0.00    +0.020 A 
ATOM     12  C   LIG    1       -1.220   1.747   0.017  0.00  0.00    +0.030 A 
ATOM     13  C   LIG    1       -1.239   3.129   0.030  0.00  0.00    +0.010 A 
ATOM     14  C   LIG    1       -0.053   3.835   0.022  0.00  0.00    +0.040 A 
ATOM     15  C   LIG    1        1.159   3.166   0.006  0.00  0.00    -0.110 A 
ATOM     16  N   LIG    1        3.318   5.503   1.130  0.00  0.00    -0.570 N 
ENDROOT
BRANCH  16  17
ATOM     17  C   LIG    1        3.785   6.413   2.178  0.00  0.00    +0.400 C 
BRANCH  17  18
ATOM     18  C   LIG    1        5.288   6.340   2.274  0.00  0.00    -0.110 A 
ATOM     19  C   LIG    1        5.881   5.585   3.267  0.00  0.00    +0.050 A 
ATOM     20  C   LIG    1        7.261   5.514   3.352  0.00  0.00    +0.070 A 
ATOM     21  C   LIG    1        8.048   6.207   2.448  0.00  0.00    +0.050 A 
ATOM     22  C   LIG    1        7.457   6.966   1.457  0.00  0.00    -0.020 A 
ATOM     23  F   LIG    1        7.840   4.772   4.322  0.00  0.00    -0.130 F 
ATOM     24  C   LIG    1        6.075   7.034   1.367  0.00  0.00    +0.120 A 
BRANCH  24  25
ATOM     25  O   LIG    1        5.493   7.782   0.392  0.00  0.00    -0.290 OA
BRANCH  25  26
ATOM     26  C   LIG    1        6.365   8.470  -0.506  0.00  0.00    +0.590 C 
ATOM     27  F   LIG    1        7.172   7.543  -1.175  0.00  0.00    -0.200 F 
ATOM     28  F   LIG    1        7.172   9.356   0.215  0.00  0.00    -0.200 F 
ENDBRANCH  25  26
ENDBRANCH  24  25
ENDBRANCH  17  18
ENDBRANCH  16  17
TORSDOF 4
