REMARK  Name = ZINCpk00000KfLkc.0
REMARK                            x       y       z     vdW  Elec       q    Type
REMARK                         _______ _______ _______ _____ _____    ______ ____
ROOT
ATOM      1  C   LIG    1       -3.411   3.318  -2.850  0.00  0.00    +0.010 C 
ATOM      2  C   LIG    1       -2.381   4.158  -3.612  0.00  0.00    +0.030 C 
ATOM      3  C   LIG    1       -1.012   3.480  -3.519  0.00  0.00    +0.040 C 
ATOM      4  C   LIG    1       -0.628   3.317  -2.046  0.00  0.00    +0.180 C 
ATOM      5  N   LIG    1       -1.643   2.506  -1.361  0.00  0.00    -0.530 NA
ATOM      6  C   LIG    1       -2.958   3.160  -1.397  0.00  0.00    +0.190 C 
ENDROOT
BRANCH   1  11
ATOM      7  N   LIG    1       -6.359   3.562  -4.465  0.00  0.00    -0.580 N 
ATOM      8  C   LIG    1       -6.702   2.932  -3.335  0.00  0.00    +0.700 C 
ATOM      9  N   LIG    1       -5.820   3.144  -2.338  0.00  0.00    -0.720 N 
ATOM     10  H   LIG    1       -5.865   2.791  -1.436  0.00  0.00    +0.440 HD
ATOM     11  C   LIG    1       -4.770   4.019  -2.888  0.00  0.00    +0.130 C 
ATOM     12  C   LIG    1       -4.714   5.341  -2.121  0.00  0.00    +0.090 C 
ATOM     13  O   LIG    1       -7.699   2.247  -3.220  0.00  0.00    -0.540 OA
ATOM     14  C   LIG    1       -5.210   4.252  -4.320  0.00  0.00    +0.530 C 
ATOM     15  O   LIG    1       -4.647   4.920  -5.160  0.00  0.00    -0.460 OA
BRANCH   7  17
ATOM     16  C   LIG    1       -6.657   2.329  -6.556  0.00  0.00    +0.030 C 
ATOM     17  C   LIG    1       -7.136   3.507  -5.706  0.00  0.00    +0.310 C 
ENDBRANCH   7  17
ENDBRANCH   1  11
BRANCH   5  18
ATOM     18  C   LIG    1       -1.239   2.213   0.020  0.00  0.00    +0.360 C 
BRANCH  18  19
ATOM     19  C   LIG    1       -0.016   1.332   0.009  0.00  0.00    +0.190 A 
ATOM     20  N   LIG    1        1.233   1.730  -0.000  0.00  0.00    -0.470 NA
ATOM     21  C   LIG    1        1.972   0.606  -0.013  0.00  0.00    +0.200 A 
ATOM     22  N   LIG    1        1.149  -0.400  -0.011  0.00  0.00    -0.380 NA
ATOM     23  O   LIG    1        0.002  -0.004   0.002  0.00  0.00    +0.090 OA
BRANCH  21  24
ATOM     24  C   LIG    1        3.476   0.527  -0.028  0.00  0.00    +0.060 C 
ATOM     25  C   LIG    1        4.110  -0.848  -0.245  0.00  0.00    +0.050 C 
ATOM     26  C   LIG    1        4.157  -0.193   1.137  0.00  0.00    +0.050 C 
ENDBRANCH  21  24
ENDBRANCH  18  19
ENDBRANCH   5  18
TORSDOF 5
