REMARK  Name = ZINCvU0000000J9z.0
REMARK                            x       y       z     vdW  Elec       q    Type
REMARK                         _______ _______ _______ _____ _____    ______ ____
ROOT
ATOM      1  C   LIG    1       -4.538   4.336   0.280  0.00  0.00    +0.160 A 
ATOM      2  N   LIG    1       -3.930   5.478   0.122  0.00  0.00    -0.240 NA
ATOM      3  N   LIG    1       -2.658   5.304   0.203  0.00  0.00    -0.270 NA
ATOM      4  C   LIG    1       -2.408   4.031   0.408  0.00  0.00    +0.210 A 
ATOM      5  O   LIG    1       -3.595   3.395   0.464  0.00  0.00    -0.210 OA
ENDROOT
BRANCH   4   6
ATOM      6  C   LIG    1       -1.074   3.413   0.555  0.00  0.00    +0.000 A 
ATOM      7  C   LIG    1       -0.961   2.038   0.772  0.00  0.00    +0.060 A 
ATOM      8  C   LIG    1        0.284   1.464   0.914  0.00  0.00    +0.020 A 
ATOM      9  C   LIG    1        1.428   2.250   0.832  0.00  0.00    +0.080 A 
ATOM     10  C   LIG    1        1.319   3.621   0.611  0.00  0.00    +0.130 A 
ATOM     11  F   LIG    1        2.432   4.383   0.532  0.00  0.00    -0.120 F 
ATOM     12  C   LIG    1        0.076   4.202   0.473  0.00  0.00    +0.060 A 
BRANCH   9  13
ATOM     13  N   LIG    1        2.687   1.665   0.971  0.00  0.00    -0.500 N 
ATOM     14  C   LIG    1        2.945   0.706  -0.113  0.00  0.00    +0.160 C 
ATOM     15  C   LIG    1        4.356   0.134   0.044  0.00  0.00    +0.220 C 
ATOM     16  O   LIG    1        4.481  -0.465   1.337  0.00  0.00    -0.380 OA
ATOM     17  C   LIG    1        4.237   0.440   2.417  0.00  0.00    +0.220 C 
ATOM     18  C   LIG    1        2.824   1.016   2.284  0.00  0.00    +0.160 C 
ENDBRANCH   9  13
ENDBRANCH   4   6
BRANCH   1  20
ATOM     19  C   LIG    1       -6.536   4.181  -1.180  0.00  0.00    +0.080 C 
ATOM     20  C   LIG    1       -6.028   4.111   0.261  0.00  0.00    +0.300 C 
BRANCH  20  21
ATOM     21  O   LIG    1       -6.672   5.119   1.043  0.00  0.00    -0.290 OA
BRANCH  21  22
ATOM     22  C   LIG    1       -7.887   4.810   1.567  0.00  0.00    +0.130 A 
ATOM     23  C   LIG    1       -8.499   5.690   2.413  0.00  0.00    +0.000 A 
ATOM     24  C   LIG    1       -9.755   5.372   2.956  0.00  0.00    -0.010 A 
ATOM     25  C   LIG    1      -10.416   6.253   3.829  0.00  0.00    +0.020 A 
ATOM     26  C   LIG    1      -11.632   5.912   4.336  0.00  0.00    +0.030 A 
ATOM     27  C   LIG    1      -12.235   4.701   4.003  0.00  0.00    -0.010 A 
ATOM     28  C   LIG    1      -11.625   3.823   3.160  0.00  0.00    +0.030 A 
ATOM     29  C   LIG    1      -10.368   4.140   2.616  0.00  0.00    -0.080 A 
ATOM     30  C   LIG    1       -9.709   3.258   1.742  0.00  0.00    +0.070 A 
ATOM     31  C   LIG    1       -8.497   3.598   1.229  0.00  0.00    -0.070 A 
ENDBRANCH  21  22
ENDBRANCH  20  21
ENDBRANCH   1  20
TORSDOF 5
