REMARK  Name = ZINCpk00000KfLby.0
REMARK                            x       y       z     vdW  Elec       q    Type
REMARK                         _______ _______ _______ _____ _____    ______ ____
ROOT
ATOM      1  C   LIG    1       -4.116   0.144   2.076  0.00  0.00    +0.290 C 
ATOM      2  C   LIG    1       -2.620   0.145   1.752  0.00  0.00    +0.200 C 
ATOM      3  N   LIG    1       -2.151   1.534   1.634  0.00  0.00    -0.500 NA
ATOM      4  C   LIG    1       -2.397   2.274   2.880  0.00  0.00    +0.150 C 
ATOM      5  C   LIG    1       -3.895   2.251   3.193  0.00  0.00    +0.260 C 
ATOM      6  O   LIG    1       -4.340   0.894   3.273  0.00  0.00    -0.390 OA
ENDROOT
BRANCH   1  10
ATOM      7  C   LIG    1       -5.454  -3.073   3.110  0.00  0.00    +0.180 A 
ATOM      8  N   LIG    1       -4.970  -3.327   1.925  0.00  0.00    -0.280 NA
ATOM      9  N   LIG    1       -4.460  -2.257   1.427  0.00  0.00    -0.280 NA
ATOM     10  C   LIG    1       -4.587  -1.274   2.275  0.00  0.00    +0.180 A 
ATOM     11  N   LIG    1       -5.224  -1.762   3.366  0.00  0.00    -0.560 N 
ATOM     12  H   LIG    1       -5.467  -1.273   4.168  0.00  0.00    +0.430 HD
BRANCH   7  13
ATOM     13  C   LIG    1       -6.141  -4.054   4.025  0.00  0.00    +0.150 C 
BRANCH  13  15
ATOM     14  C   LIG    1       -8.009  -5.703   4.214  0.00  0.00    +0.020 C 
ATOM     15  C   LIG    1       -7.311  -4.706   3.286  0.00  0.00    +0.020 C 
ENDBRANCH  13  15
ENDBRANCH   7  13
ENDBRANCH   1  10
BRANCH   3  16
ATOM     16  C   LIG    1       -0.729   1.579   1.267  0.00  0.00    +0.190 C 
ATOM     17  C   LIG    1       -0.474   0.628   0.096  0.00  0.00    +0.080 C 
BRANCH  16  18
ATOM     18  C   LIG    1        0.109   1.159   2.447  0.00  0.00    +0.480 C 
ATOM     19  N   LIG    1        1.354   1.651   2.599  0.00  0.00    -0.630 N 
ATOM     20  H   LIG    1        1.712   2.275   1.948  0.00  0.00    +0.430 HD
ATOM     21  O   LIG    1       -0.338   0.379   3.261  0.00  0.00    -0.490 OA
BRANCH  19  22
ATOM     22  C   LIG    1        2.125   1.264   3.685  0.00  0.00    +0.210 A 
ATOM     23  C   LIG    1        3.396   1.671   3.975  0.00  0.00    -0.090 A 
ATOM     24  C   LIG    1        3.707   0.990   5.169  0.00  0.00    +0.040 A 
ATOM     25  N   LIG    1        2.659   0.276   5.472  0.00  0.00    -0.370 NA
ATOM     26  C   LIG    1        4.997   1.070   5.943  0.00  0.00    +0.160 C 
ATOM     27  O   LIG    1        1.769   0.418   4.665  0.00  0.00    +0.110 OA
ENDBRANCH  19  22
ENDBRANCH  16  18
ENDBRANCH   3  16
TORSDOF 6
