REMARK  Name = ZINCpe00000VVGLY.1
REMARK                            x       y       z     vdW  Elec       q    Type
REMARK                         _______ _______ _______ _____ _____    ______ ____
ROOT
ATOM      1  N   LIG    1        0.002  -0.004   0.002  0.00  0.00    -0.560 NA
ATOM      2  C   LIG    1        1.087  -0.521   0.849  0.00  0.00    +0.190 C 
ATOM      3  C   LIG    1        1.024  -2.050   0.877  0.00  0.00    +0.190 C 
ATOM      4  N   LIG    1        1.137  -2.567  -0.494  0.00  0.00    -0.530 NA
ATOM      5  C   LIG    1        0.053  -2.051  -1.341  0.00  0.00    +0.200 C 
ATOM      6  C   LIG    1        0.116  -0.522  -1.369  0.00  0.00    +0.210 C 
ENDROOT
BRANCH   1   7
ATOM      7  C   LIG    1       -0.018   1.465   0.010  0.00  0.00    +0.500 C 
BRANCH   7  11
ATOM      8  N   LIG    1       -2.343   2.603   2.554  0.00  0.00    -0.570 N 
ATOM      9  C   LIG    1       -1.223   2.651   3.307  0.00  0.00    +0.510 C 
ATOM     10  C   LIG    1       -0.115   2.201   2.402  0.00  0.00    +0.510 C 
ATOM     11  N   LIG    1       -0.704   1.937   1.215  0.00  0.00    -0.570 N 
ATOM     12  O   LIG    1        1.062   2.097   2.678  0.00  0.00    -0.410 OA
ATOM     13  O   LIG    1       -1.133   2.986   4.469  0.00  0.00    -0.410 OA
ATOM     14  C   LIG    1       -2.019   2.184   1.319  0.00  0.00    +0.720 C 
ATOM     15  O   LIG    1       -2.816   2.044   0.413  0.00  0.00    -0.480 OA
BRANCH   8  17
ATOM     16  C   LIG    1       -3.943   4.442   2.754  0.00  0.00    +0.040 C 
ATOM     17  C   LIG    1       -3.691   2.954   3.007  0.00  0.00    +0.320 C 
ENDBRANCH   8  17
ENDBRANCH   7  11
ENDBRANCH   1   7
BRANCH   4  18
ATOM     18  C   LIG    1        1.157  -4.036  -0.502  0.00  0.00    +0.240 C 
BRANCH  18  19
ATOM     19  C   LIG    1        2.110  -4.531   0.555  0.00  0.00    -0.080 A 
ATOM     20  C   LIG    1        1.654  -4.775   1.837  0.00  0.00    +0.000 A 
ATOM     21  C   LIG    1        2.528  -5.229   2.807  0.00  0.00    +0.000 A 
ATOM     22  C   LIG    1        3.858  -5.441   2.495  0.00  0.00    +0.000 A 
ATOM     23  C   LIG    1        4.314  -5.198   1.212  0.00  0.00    -0.090 A 
ATOM     24  C   LIG    1        5.764  -5.429   0.872  0.00  0.00    +0.090 C 
ATOM     25  C   LIG    1        3.439  -4.747   0.242  0.00  0.00    +0.020 A 
ENDBRANCH  18  19
ENDBRANCH   4  18
TORSDOF 5
