REMARK  Name = ZINCqH0000005eZd.2
REMARK                            x       y       z     vdW  Elec       q    Type
REMARK                         _______ _______ _______ _____ _____    ______ ____
ROOT
ATOM      1  C   LIG    1        3.646  -0.058  -0.322  0.00  0.00    +0.320 C 
ENDROOT
BRANCH   1   2
ATOM      2  C   LIG    1        2.483   0.887  -0.161  0.00  0.00    -0.100 A 
ATOM      3  C   LIG    1        1.204   0.468  -0.479  0.00  0.00    +0.020 A 
ATOM      4  C   LIG    1        0.137   1.334  -0.331  0.00  0.00    +0.010 A 
ATOM      5  C   LIG    1        0.348   2.619   0.134  0.00  0.00    +0.010 A 
ATOM      6  C   LIG    1        1.627   3.037   0.452  0.00  0.00    +0.010 A 
ATOM      7  C   LIG    1        2.695   2.171   0.303  0.00  0.00    +0.060 A 
ENDBRANCH   1   2
BRANCH   1   8
ATOM      8  C   LIG    1        4.368   0.248  -1.609  0.00  0.00    +0.200 A 
ATOM      9  N   LIG    1        4.321  -0.454  -2.713  0.00  0.00    -0.470 NA
ATOM     10  C   LIG    1        5.115   0.198  -3.592  0.00  0.00    +0.210 A 
ATOM     11  N   LIG    1        5.601   1.242  -2.973  0.00  0.00    -0.370 NA
ATOM     12  O   LIG    1        5.181   1.284  -1.836  0.00  0.00    +0.100 OA
BRANCH  10  13
ATOM     13  C   LIG    1        5.390  -0.202  -4.995  0.00  0.00    -0.030 A 
ATOM     14  C   LIG    1        4.804  -1.350  -5.523  0.00  0.00    +0.050 A 
ATOM     15  C   LIG    1        5.059  -1.714  -6.830  0.00  0.00    +0.010 A 
ATOM     16  C   LIG    1        5.903  -0.946  -7.612  0.00  0.00    +0.030 A 
ATOM     17  C   LIG    1        6.492   0.192  -7.091  0.00  0.00    +0.010 A 
ATOM     18  C   LIG    1        6.240   0.568  -5.787  0.00  0.00    +0.050 A 
ENDBRANCH  10  13
ENDBRANCH   1   8
BRANCH   1  20
ATOM     19  C   LIG    1        5.764  -0.732   0.639  0.00  0.00    +0.200 C 
ATOM     20  N   LIG    1        4.570   0.106   0.809  0.00  0.00    -0.530 NA
BRANCH  20  21
ATOM     21  C   LIG    1        3.899  -0.184   2.083  0.00  0.00    +0.200 C 
BRANCH  21  22
ATOM     22  C   LIG    1        4.715   0.405   3.235  0.00  0.00    -0.010 C 
ATOM     23  C   LIG    1        3.947   0.267   4.569  0.00  0.00    +0.010 C 
ATOM     24  C   LIG    1        4.865  -0.619   5.440  0.00  0.00    +0.190 C 
ATOM     25  O   LIG    1        6.188  -0.432   4.891  0.00  0.00    -0.380 OA
ATOM     26  C   LIG    1        6.006  -0.413   3.458  0.00  0.00    +0.200 C 
ENDBRANCH  21  22
ENDBRANCH  20  21
ENDBRANCH   1  20
TORSDOF 6
