REMARK  Name = ZINCpe00000MJMzA.0
REMARK                            x       y       z     vdW  Elec       q    Type
REMARK                         _______ _______ _______ _____ _____    ______ ____
ROOT
ATOM      1  N   LIG    1        0.927   5.375   0.998  0.00  0.00    -0.510 NA
ATOM      2  C   LIG    1        1.714   6.617   0.995  0.00  0.00    +0.150 C 
ATOM      3  C   LIG    1        1.677   7.235  -0.405  0.00  0.00    +0.240 C 
ATOM      4  O   LIG    1        2.166   6.282  -1.354  0.00  0.00    -0.370 OA
ATOM      5  C   LIG    1        1.422   5.061  -1.379  0.00  0.00    +0.180 C 
ATOM      6  C   LIG    1        1.456   4.421   0.012  0.00  0.00    +0.210 C 
ENDROOT
BRANCH   6   7
ATOM      7  C   LIG    1        0.610   3.174   0.013  0.00  0.00    +0.200 A 
ATOM      8  N   LIG    1       -0.695   3.141   0.025  0.00  0.00    -0.460 NA
ATOM      9  C   LIG    1       -1.105   1.864   0.017  0.00  0.00    +0.140 A 
ATOM     10  C   LIG    1       -0.013   1.076   0.008  0.00  0.00    +0.130 A 
ATOM     11  N   LIG    1        1.075   1.907   0.002  0.00  0.00    -0.460 N 
ATOM     12  C   LIG    1        2.482   1.497  -0.013  0.00  0.00    +0.310 C 
ENDBRANCH   6   7
BRANCH   1  14
ATOM     13  C   LIG    1        0.575   5.863   3.371  0.00  0.00    +0.040 C 
ATOM     14  C   LIG    1        0.890   4.778   2.340  0.00  0.00    +0.160 C 
ENDBRANCH   1  14
BRANCH   5  15
ATOM     15  C   LIG    1        2.045   4.104  -2.397  0.00  0.00    +0.280 C 
BRANCH  15  16
ATOM     16  N   LIG    1        2.011   4.717  -3.727  0.00  0.00    -0.720 N 
ATOM     17  H   LIG    1        1.631   5.601  -3.844  0.00  0.00    +0.410 HD
ATOM     18  C   LIG    1        2.509   4.051  -4.789  0.00  0.00    +0.520 C 
ATOM     19  O   LIG    1        2.984   2.945  -4.643  0.00  0.00    -0.530 OA
BRANCH  18  20
ATOM     20  C   LIG    1        2.475   4.682  -6.157  0.00  0.00    +0.180 C 
BRANCH  20  21
ATOM     21  C   LIG    1        3.088   3.739  -7.160  0.00  0.00    +0.020 A 
ATOM     22  N   LIG    1        4.274   3.206  -7.106  0.00  0.00    -0.340 NA
ATOM     23  O   LIG    1        4.483   2.487  -8.055  0.00  0.00    +0.100 OA
ATOM     24  C   LIG    1        3.435   2.457  -8.890  0.00  0.00    -0.030 A 
ATOM     25  C   LIG    1        3.329   1.680 -10.177  0.00  0.00    +0.180 C 
ATOM     26  C   LIG    1        2.490   3.263  -8.350  0.00  0.00    -0.060 A 
ENDBRANCH  20  21
ENDBRANCH  18  20
ENDBRANCH  15  16
ENDBRANCH   5  15
TORSDOF 6
