REMARK  Name = ZINCrD000000fObO.0
REMARK                            x       y       z     vdW  Elec       q    Type
REMARK                         _______ _______ _______ _____ _____    ______ ____
ROOT
ATOM      1  C   LIG    1        6.661   3.010   1.972  0.00  0.00    -0.180 A 
ATOM      2  C   LIG    1        7.370   3.975   1.315  0.00  0.00    +0.050 A 
ATOM      3  O   LIG    1        6.788   4.234   0.138  0.00  0.00    -0.150 OA
ATOM      4  C   LIG    1        5.693   3.478  -0.047  0.00  0.00    +0.290 A 
ATOM      5  N   LIG    1        4.800   3.378  -1.043  0.00  0.00    -0.500 NA
ATOM      6  C   LIG    1        3.800   2.545  -0.978  0.00  0.00    +0.650 A 
ATOM      7  N   LIG    1        3.600   1.733   0.090  0.00  0.00    -0.520 N 
ATOM      8  C   LIG    1        4.452   1.773   1.141  0.00  0.00    +0.570 A 
ATOM      9  O   LIG    1        4.285   1.054   2.111  0.00  0.00    -0.510 OA
ATOM     10  C   LIG    1        8.615   4.645   1.837  0.00  0.00    +0.210 C 
ATOM     11  C   LIG    1        5.540   2.668   1.078  0.00  0.00    -0.270 A 
ENDROOT
BRANCH   1  13
ATOM     12  C   LIG    1        7.922   1.289   3.411  0.00  0.00    +0.090 C 
ATOM     13  C   LIG    1        6.952   2.436   3.287  0.00  0.00    +0.430 C 
ATOM     14  O   LIG    1        6.412   2.883   4.278  0.00  0.00    -0.440 OA
ENDBRANCH   1  13
BRANCH   7  15
ATOM     15  C   LIG    1        2.458   0.816   0.108  0.00  0.00    +0.250 C 
ATOM     16  C   LIG    1        2.558  -0.148  -1.076  0.00  0.00    +0.100 C 
BRANCH  15  17
ATOM     17  C   LIG    1        1.178   1.605   0.006  0.00  0.00    +0.500 C 
ATOM     18  N   LIG    1       -0.009   0.967   0.004  0.00  0.00    -0.660 N 
ATOM     19  H   LIG    1       -0.038  -0.003  -0.015  0.00  0.00    +0.410 HD
ATOM     20  O   LIG    1        1.216   2.814  -0.074  0.00  0.00    -0.500 OA
BRANCH  18  21
ATOM     21  C   LIG    1       -1.199   1.702   0.023  0.00  0.00    +0.130 A 
ATOM     22  C   LIG    1       -1.214   2.988   0.548  0.00  0.00    +0.020 A 
ATOM     23  C   LIG    1       -2.390   3.712   0.566  0.00  0.00    +0.030 A 
ATOM     24  C   LIG    1       -3.552   3.157   0.062  0.00  0.00    -0.090 A 
ATOM     25  C   LIG    1       -3.541   1.877  -0.462  0.00  0.00    +0.030 A 
ATOM     26  C   LIG    1       -4.834   3.950   0.083  0.00  0.00    +0.090 C 
ATOM     27  C   LIG    1       -2.367   1.151  -0.487  0.00  0.00    -0.110 A 
ATOM     28  C   LIG    1       -2.354  -0.242  -1.064  0.00  0.00    +0.080 C 
ENDBRANCH  18  21
ENDBRANCH  15  17
ENDBRANCH   7  15
TORSDOF 4
