REMARK  Name = ZINCrH000004vBmE.0
REMARK                            x       y       z     vdW  Elec       q    Type
REMARK                         _______ _______ _______ _____ _____    ______ ____
ROOT
ATOM      1  O   LIG    1       -2.035   6.898  -3.579  0.00  0.00    -0.520 OA
ATOM      2  C   LIG    1       -1.832   5.700  -3.551  0.00  0.00    +0.590 C 
ATOM      3  N   LIG    1       -1.906   4.978  -4.686  0.00  0.00    -0.600 N 
ATOM      4  C   LIG    1       -1.677   3.525  -4.797  0.00  0.00    +0.280 C 
ATOM      5  C   LIG    1       -1.267   3.297  -6.271  0.00  0.00    +0.030 C 
ATOM      6  C   LIG    1       -2.165   4.324  -7.010  0.00  0.00    +0.050 C 
ATOM      7  C   LIG    1       -2.221   5.508  -6.021  0.00  0.00    +0.270 C 
ENDROOT
BRANCH   7   8
ATOM      8  C   LIG    1       -3.603   6.110  -6.020  0.00  0.00    -0.080 A 
ATOM      9  C   LIG    1       -4.620   5.500  -5.309  0.00  0.00    +0.030 A 
ATOM     10  C   LIG    1       -5.889   6.048  -5.307  0.00  0.00    +0.020 A 
ATOM     11  C   LIG    1       -6.145   7.211  -6.017  0.00  0.00    +0.050 A 
ATOM     12  O   LIG    1       -7.401   7.735  -6.011  0.00  0.00    -0.310 OA
ATOM     13  C   LIG    1       -7.531   9.099  -6.426  0.00  0.00    +0.220 C 
ATOM     14  C   LIG    1       -6.715   9.291  -7.712  0.00  0.00    +0.220 C 
ATOM     15  O   LIG    1       -5.348   8.972  -7.426  0.00  0.00    -0.310 OA
ATOM     16  C   LIG    1       -5.121   7.826  -6.729  0.00  0.00    +0.050 A 
ATOM     17  C   LIG    1       -3.849   7.273  -6.724  0.00  0.00    +0.030 A 
ENDBRANCH   7   8
BRANCH   2  18
ATOM     18  C   LIG    1       -1.503   5.034  -2.269  0.00  0.00    +0.090 A 
ATOM     19  C   LIG    1       -1.427   5.785  -1.098  0.00  0.00    +0.040 A 
ATOM     20  C   LIG    1       -1.115   5.141   0.086  0.00  0.00    +0.060 A 
ATOM     21  C   LIG    1       -0.889   3.768   0.068  0.00  0.00    -0.100 A 
ATOM     22  C   LIG    1       -0.539   3.095   1.367  0.00  0.00    +0.080 C 
ATOM     23  C   LIG    1       -0.739   1.584   1.263  0.00  0.00    +0.020 C 
ATOM     24  C   LIG    1       -0.013   1.086   0.008  0.00  0.00    +0.030 C 
ATOM     25  C   LIG    1       -0.760   1.596  -1.223  0.00  0.00    +0.110 C 
ATOM     26  C   LIG    1       -0.984   3.083  -1.127  0.00  0.00    +0.130 A 
ATOM     27  N   LIG    1       -1.282   3.729  -2.243  0.00  0.00    -0.460 NA
ENDBRANCH   2  18
TORSDOF 2
