REMARK  Name = ZINCrD00000sQzdh.0
REMARK                            x       y       z     vdW  Elec       q    Type
REMARK                         _______ _______ _______ _____ _____    ______ ____
ROOT
ATOM      1  N   LIG    1        1.136  -2.581   1.390  0.00  0.00    -0.480 N 
ATOM      2  C   LIG    1        0.988  -4.031   1.526  0.00  0.00    +0.210 C 
ATOM      3  C   LIG    1        0.895  -4.377   3.017  0.00  0.00    +0.070 C 
ATOM      4  C   LIG    1        2.258  -4.094   3.652  0.00  0.00    +0.080 C 
ATOM      5  C   LIG    1        2.748  -2.736   3.217  0.00  0.00    -0.100 A 
ATOM      6  C   LIG    1        3.790  -2.159   3.926  0.00  0.00    +0.040 A 
ATOM      7  C   LIG    1        4.282  -0.918   3.566  0.00  0.00    +0.070 A 
ATOM      8  C   LIG    1        3.731  -0.245   2.489  0.00  0.00    +0.020 A 
ATOM      9  C   LIG    1        2.693  -0.813   1.781  0.00  0.00    +0.000 A 
ATOM     10  F   LIG    1        5.297  -0.363   4.264  0.00  0.00    -0.140 F 
ATOM     11  C   LIG    1        2.192  -2.064   2.143  0.00  0.00    +0.130 A 
ENDROOT
BRANCH   4  12
ATOM     12  C   LIG    1        2.128  -4.122   5.153  0.00  0.00    +0.480 C 
ATOM     13  O   LIG    1        1.056  -4.346   5.662  0.00  0.00    -0.490 OA
BRANCH  12  14
ATOM     14  O   LIG    1        3.204  -3.899   5.925  0.00  0.00    -0.350 OA
BRANCH  14  15
ATOM     15  C   LIG    1        3.004  -3.942   7.362  0.00  0.00    +0.120 C 
ATOM     16  C   LIG    1        1.980  -2.880   7.767  0.00  0.00    +0.030 C 
ATOM     17  C   LIG    1        4.332  -3.667   8.070  0.00  0.00    +0.080 C 
ATOM     18  C   LIG    1        2.490  -5.326   7.765  0.00  0.00    +0.030 C 
ENDBRANCH  14  15
ENDBRANCH  12  14
ENDBRANCH   4  12
BRANCH   1  19
ATOM     19  C   LIG    1        1.258  -2.194  -0.022  0.00  0.00    +0.250 C 
BRANCH  19  24
ATOM     20  C   LIG    1       -3.567  -3.532  -2.786  0.00  0.00    +0.330 C 
ATOM     21  N   LIG    1       -2.333  -3.184  -2.077  0.00  0.00    -0.500 N 
ATOM     22  C   LIG    1       -1.361  -4.120  -1.923  0.00  0.00    +0.300 A 
ATOM     23  C   LIG    1       -0.212  -3.822  -1.272  0.00  0.00    -0.090 A 
ATOM     24  C   LIG    1       -0.018  -2.536  -0.749  0.00  0.00    +0.010 A 
ATOM     25  C   LIG    1       -0.995  -1.598  -0.904  0.00  0.00    -0.060 A 
ATOM     26  C   LIG    1       -2.176  -1.941  -1.586  0.00  0.00    +0.510 A 
ATOM     27  O   LIG    1       -3.058  -1.111  -1.733  0.00  0.00    -0.550 OA
ENDBRANCH  19  24
ENDBRANCH   1  19
TORSDOF 5
