REMARK  Name = ZINCrH000004pHnn.0
REMARK                            x       y       z     vdW  Elec       q    Type
REMARK                         _______ _______ _______ _____ _____    ______ ____
ROOT
ATOM      1  C   LIG    1        8.632   1.861  -4.063  0.00  0.00    +0.070 C 
ATOM      2  C   LIG    1        7.285   1.135  -4.080  0.00  0.00    +0.030 C 
ATOM      3  C   LIG    1        7.169   0.264  -2.838  0.00  0.00    +0.030 C 
ATOM      4  C   LIG    1        6.021  -0.700  -2.833  0.00  0.00    +0.300 C 
ATOM      5  N   LIG    1        4.727  -0.003  -2.758  0.00  0.00    -0.570 N 
ATOM      6  C   LIG    1        4.098   0.361  -3.956  0.00  0.00    +0.160 A 
ATOM      7  C   LIG    1        2.967  -0.330  -4.376  0.00  0.00    +0.010 A 
ATOM      8  C   LIG    1        2.374  -0.005  -5.582  0.00  0.00    +0.040 A 
ATOM      9  C   LIG    1        2.895   0.998  -6.378  0.00  0.00    +0.030 A 
ATOM     10  C   LIG    1        4.010   1.705  -5.958  0.00  0.00    +0.080 A 
ATOM     11  C   LIG    1        4.586   1.395  -4.742  0.00  0.00    -0.100 A 
ATOM     12  C   LIG    1        4.165   0.283  -1.567  0.00  0.00    +0.540 C 
ATOM     13  O   LIG    1        4.723  -0.039  -0.540  0.00  0.00    -0.520 OA
ATOM     14  S   LIG    1        5.942   2.357  -4.115  0.00  0.00    -0.140 S 
ENDROOT
BRANCH  12  15
ATOM     15  C   LIG    1        2.842   1.003  -1.512  0.00  0.00    +0.040 C 
BRANCH  15  16
ATOM     16  C   LIG    1        2.430   1.202  -0.052  0.00  0.00    +0.330 C 
BRANCH  16  17
ATOM     17  N   LIG    1        1.145   1.903   0.001  0.00  0.00    -0.550 N 
ATOM     18  C   LIG    1       -0.014   1.209   0.009  0.00  0.00    +0.490 C 
ATOM     19  C   LIG    1       -1.328   1.948   0.019  0.00  0.00    +0.300 C 
ATOM     20  O   LIG    1       -1.177   3.182   0.731  0.00  0.00    -0.300 OA
ATOM     21  C   LIG    1       -0.088   3.935   0.419  0.00  0.00    +0.080 A 
ATOM     22  C   LIG    1       -0.147   5.316   0.468  0.00  0.00    +0.030 A 
ATOM     23  C   LIG    1        0.970   6.066   0.145  0.00  0.00    +0.030 A 
ATOM     24  C   LIG    1        2.146   5.440  -0.226  0.00  0.00    +0.020 A 
ATOM     25  C   LIG    1        2.213   4.059  -0.276  0.00  0.00    +0.010 A 
ATOM     26  O   LIG    1        0.002  -0.004   0.002  0.00  0.00    -0.500 OA
ATOM     27  C   LIG    1        1.098   3.303   0.045  0.00  0.00    +0.100 A 
ENDBRANCH  16  17
ENDBRANCH  15  16
ENDBRANCH  12  15
TORSDOF 3
