REMARK  Name = ZINCpe00000MJI7S.0
REMARK                            x       y       z     vdW  Elec       q    Type
REMARK                         _______ _______ _______ _____ _____    ______ ____
ROOT
ATOM      1  N   LIG    1        0.991   3.537   0.012  0.00  0.00    -0.670 NA
ATOM      2  H   LIG    1        0.411   3.784   0.800  0.00  0.00    +0.350 HD
ENDROOT
BRANCH   1   3
ATOM      3  C   LIG    1        2.232   4.322   0.004  0.00  0.00    +0.120 C 
ATOM      4  C   LIG    1        2.724   4.543  -1.447  0.00  0.00    +0.010 C 
ATOM      5  C   LIG    1        2.187   5.963  -1.759  0.00  0.00    +0.210 C 
ATOM      6  O   LIG    1        2.340   6.664  -0.506  0.00  0.00    -0.370 OA
ATOM      7  C   LIG    1        1.974   5.744   0.537  0.00  0.00    +0.240 C 
BRANCH   7   8
ATOM      8  C   LIG    1        2.818   5.995   1.760  0.00  0.00    -0.250 A 
ATOM      9  C   LIG    1        4.032   6.591   1.781  0.00  0.00    +0.260 A 
ATOM     10  N   LIG    1        4.451   6.627   3.063  0.00  0.00    -0.380 N 
ATOM     11  N   LIG    1        3.465   6.024   3.856  0.00  0.00    -0.300 NA
ATOM     12  C   LIG    1        5.715   7.191   3.542  0.00  0.00    +0.350 C 
ATOM     13  C   LIG    1        2.487   5.646   3.073  0.00  0.00    +0.090 A 
ATOM     14  C   LIG    1        1.222   4.954   3.512  0.00  0.00    +0.160 C 
ENDBRANCH   7   8
ENDBRANCH   1   3
BRANCH   1  15
ATOM     15  C   LIG    1        1.279   2.096   0.001  0.00  0.00    +0.230 C 
BRANCH  15  16
ATOM     16  C   LIG    1       -0.016   1.325   0.009  0.00  0.00    +0.500 C 
ATOM     17  O   LIG    1       -1.077   1.918   0.018  0.00  0.00    -0.560 OA
BRANCH  16  24
ATOM     18  N   LIG    1       -1.277  -2.053   0.003  0.00  0.00    -0.380 N 
ATOM     19  N   LIG    1       -2.649  -2.337   0.015  0.00  0.00    -0.490 N 
ATOM     20  H   LIG    1       -3.046  -3.223   0.013  0.00  0.00    +0.450 HD
ATOM     21  C   LIG    1       -3.330  -1.157   0.028  0.00  0.00    +0.350 A 
ATOM     22  C   LIG    1       -2.442  -0.139   0.031  0.00  0.00    -0.110 A 
ATOM     23  C   LIG    1       -1.143  -0.686   0.009  0.00  0.00    +0.480 A 
ATOM     24  N   LIG    1        0.002  -0.004   0.002  0.00  0.00    -0.680 NA
BRANCH  18  25
ATOM     25  C   LIG    1       -0.187  -3.031  -0.013  0.00  0.00    +0.350 C 
BRANCH  25  27
ATOM     26  C   LIG    1        1.345  -4.402   1.407  0.00  0.00    +0.030 C 
ATOM     27  C   LIG    1        0.207  -3.380   1.424  0.00  0.00    -0.000 C 
ENDBRANCH  25  27
ENDBRANCH  18  25
ENDBRANCH  16  24
ENDBRANCH  15  16
ENDBRANCH   1  15
TORSDOF 7
