REMARK  Name = ZINCrD00000fM1uz.0
REMARK                            x       y       z     vdW  Elec       q    Type
REMARK                         _______ _______ _______ _____ _____    ______ ____
ROOT
ATOM      1  O   LIG    1       -0.577   5.202   1.245  0.00  0.00    -0.520 OA
ATOM      2  C   LIG    1       -0.029   4.537   2.099  0.00  0.00    +0.550 C 
ATOM      3  N   LIG    1        0.963   3.690   1.759  0.00  0.00    -0.620 N 
ATOM      4  C   LIG    1        1.643   2.873   2.776  0.00  0.00    +0.250 C 
ATOM      5  C   LIG    1        1.653   1.416   2.299  0.00  0.00    +0.220 C 
ATOM      6  O   LIG    1        2.188   1.359   0.974  0.00  0.00    -0.370 OA
ATOM      7  C   LIG    1        1.412   2.064  -0.000  0.00  0.00    +0.080 C 
ATOM      8  C   LIG    1       -0.019   1.529   0.011  0.00  0.00    +0.070 C 
ATOM      9  C   LIG    1        0.002  -0.004   0.002  0.00  0.00    -0.180 C 
ATOM     10  S   LIG    1        0.839  -0.552  -1.520  0.00  0.00    +2.260 S 
ATOM     11  C   LIG    1        2.387   0.404  -1.600  0.00  0.00    -0.310 C 
ATOM     12  N   LIG    1       -0.010  -0.149  -2.680  0.00  0.00    -1.070 NA
ATOM     13  O   LIG    1        1.029  -1.958  -1.596  0.00  0.00    -0.930 OA
ATOM     14  C   LIG    1        2.047   1.883  -1.377  0.00  0.00    +0.110 C 
ATOM     15  C   LIG    1        1.397   3.555   0.359  0.00  0.00    +0.300 C 
ENDROOT
BRANCH  12  16
ATOM     16  C   LIG    1        0.378  -0.432  -3.915  0.00  0.00    +0.240 A 
ATOM     17  C   LIG    1        1.601  -1.114  -4.143  0.00  0.00    -0.160 A 
ATOM     18  C   LIG    1        1.983  -1.403  -5.420  0.00  0.00    +0.060 A 
ATOM     19  C   LIG    1        1.187  -1.025  -6.494  0.00  0.00    -0.060 A 
ATOM     20  C   LIG    1       -0.011  -0.352  -6.287  0.00  0.00    +0.040 A 
ATOM     21  C   LIG    1       -0.423  -0.053  -5.022  0.00  0.00    -0.020 A 
ENDBRANCH  12  16
BRANCH   2  22
ATOM     22  C   LIG    1       -0.457   4.657   3.538  0.00  0.00    -0.070 C 
ATOM     23  C   LIG    1       -0.152   5.974   4.259  0.00  0.00    +0.090 C 
ATOM     24  C   LIG    1       -1.584   5.633   3.859  0.00  0.00    -0.120 C 
ATOM     25  C   LIG    1       -2.803   5.420   4.762  0.00  0.00    +0.060 C 
ATOM     26  C   LIG    1       -3.403   6.676   4.106  0.00  0.00    +0.010 C 
ATOM     27  C   LIG    1       -2.508   6.377   2.890  0.00  0.00    +0.080 C 
ENDBRANCH   2  22
TORSDOF 2
