REMARK  Name = ZINCpk00000eaBps.0
REMARK                            x       y       z     vdW  Elec       q    Type
REMARK                         _______ _______ _______ _____ _____    ______ ____
ROOT
ATOM      1  C   LIG    1        3.872  -1.411   1.964  0.00  0.00    +0.030 C 
ATOM      2  C   LIG    1        4.066  -1.532   0.451  0.00  0.00    +0.180 C 
ENDROOT
BRANCH   2   3
ATOM      3  C   LIG    1        4.375  -0.174  -0.126  0.00  0.00    +0.520 C 
ATOM      4  N   LIG    1        3.451   0.806  -0.073  0.00  0.00    -0.550 N 
ATOM      5  C   LIG    1        2.123   0.488   0.444  0.00  0.00    +0.290 C 
ATOM      6  C   LIG    1        1.077   0.922  -0.592  0.00  0.00    +0.100 C 
ATOM      7  S   LIG    1        1.136   2.733  -0.719  0.00  0.00    -0.110 S 
ATOM      8  C   LIG    1        2.866   3.052  -0.854  0.00  0.00    -0.120 A 
ATOM      9  C   LIG    1        3.286   4.297  -1.308  0.00  0.00    +0.050 A 
ATOM     10  C   LIG    1        4.633   4.580  -1.420  0.00  0.00    +0.010 A 
ATOM     11  C   LIG    1        5.569   3.621  -1.079  0.00  0.00    +0.030 A 
ATOM     12  C   LIG    1        5.161   2.382  -0.629  0.00  0.00    +0.040 A 
ATOM     13  C   LIG    1        3.805   2.083  -0.515  0.00  0.00    +0.150 A 
ATOM     14  O   LIG    1        5.454   0.036  -0.638  0.00  0.00    -0.480 OA
ENDBRANCH   2   3
BRANCH   2  15
ATOM     15  N   LIG    1        5.181  -2.447   0.172  0.00  0.00    -0.510 NA
ATOM     16  C   LIG    1        6.395  -2.031   0.887  0.00  0.00    +0.180 C 
ATOM     17  C   LIG    1        7.574  -2.898   0.432  0.00  0.00    +0.310 C 
ATOM     18  N   LIG    1        7.207  -4.312   0.600  0.00  0.00    -1.000 NA
ATOM     19  C   LIG    1        5.933  -4.773   0.027  0.00  0.00    +0.250 C 
ATOM     20  C   LIG    1        5.641  -6.197   0.505  0.00  0.00    +0.050 C 
ATOM     21  C   LIG    1        4.819  -3.833   0.498  0.00  0.00    +0.170 C 
BRANCH  18  22
ATOM     22  S   LIG    1        8.202  -5.357   1.413  0.00  0.00    +2.610 S 
ATOM     23  O   LIG    1        9.465  -4.707   1.418  0.00  0.00    -0.950 OA
ATOM     24  O   LIG    1        8.021  -6.601   0.749  0.00  0.00    -0.950 OA
ATOM     25  C   LIG    1        7.514  -5.426   3.090  0.00  0.00    -0.290 C 
ENDBRANCH  18  22
ENDBRANCH   2  15
TORSDOF 3
