REMARK  Name = ZINCkj00000vxTqu.0
REMARK                            x       y       z     vdW  Elec       q    Type
REMARK                         _______ _______ _______ _____ _____    ______ ____
ROOT
ATOM      1  C   LIG    1       -3.086  -1.109  -2.999  0.00  0.00    +0.110 A 
ATOM      2  N   LIG    1       -3.013  -0.884  -1.710  0.00  0.00    -0.450 NA
ATOM      3  C   LIG    1       -1.733  -1.120  -1.372  0.00  0.00    +0.200 A 
ATOM      4  N   LIG    1       -1.103  -1.466  -2.455  0.00  0.00    -0.340 NA
ATOM      5  O   LIG    1       -1.863  -1.470  -3.400  0.00  0.00    +0.100 OA
ENDROOT
BRANCH   3   6
ATOM      6  C   LIG    1       -1.137  -1.001   0.007  0.00  0.00    +0.160 C 
ATOM      7  C   LIG    1       -0.500  -2.340   0.433  0.00  0.00    +0.070 C 
ATOM      8  C   LIG    1        0.965  -2.170  -0.020  0.00  0.00    +0.090 C 
ATOM      9  C   LIG    1        1.210  -0.676  -0.013  0.00  0.00    -0.070 A 
ATOM     10  C   LIG    1        2.396   0.039  -0.021  0.00  0.00    +0.020 A 
ATOM     11  C   LIG    1        2.375   1.420  -0.013  0.00  0.00    +0.030 A 
ATOM     12  C   LIG    1        1.167   2.092   0.002  0.00  0.00    +0.010 A 
ATOM     13  C   LIG    1       -0.017   1.380   0.010  0.00  0.00    +0.020 A 
ATOM     14  C   LIG    1        0.002  -0.004   0.002  0.00  0.00    -0.110 A 
ENDBRANCH   3   6
BRANCH   1  15
ATOM     15  C   LIG    1       -4.313  -0.983  -3.865  0.00  0.00    +0.230 C 
ATOM     16  C   LIG    1       -3.997  -1.425  -5.312  0.00  0.00    +0.120 C 
ATOM     17  C   LIG    1       -4.786  -0.401  -6.167  0.00  0.00    +0.300 C 
ATOM     18  N   LIG    1       -4.635   0.865  -5.406  0.00  0.00    -0.510 N 
ATOM     19  H   LIG    1       -5.372   1.509  -5.652  0.00  0.00    +0.440 HD
ATOM     20  H   LIG    1       -3.734   1.279  -5.593  0.00  0.00    +0.440 HD
ATOM     21  C   LIG    1       -4.740   0.492  -3.976  0.00  0.00    +0.280 C 
BRANCH  15  22
ATOM     22  O   LIG    1       -5.380  -1.769  -3.329  0.00  0.00    -0.510 OA
ATOM     23  H   LIG    1       -5.636  -1.522  -2.429  0.00  0.00    +0.410 HD
ENDBRANCH  15  22
ENDBRANCH   1  15
TORSDOF 3
