REMARK  Name = ZINCqH0000038ShC.0
REMARK                            x       y       z     vdW  Elec       q    Type
REMARK                         _______ _______ _______ _____ _____    ______ ____
ROOT
ATOM      1  C   LIG    1       -2.997   2.075   0.195  0.00  0.00    +0.320 C 
ENDROOT
BRANCH   1   4
ATOM      2  C   LIG    1        0.061   1.422  -0.053  0.00  0.00    +0.360 C 
ATOM      3  N   LIG    1       -0.666   1.706   1.186  0.00  0.00    -0.460 N 
ATOM      4  C   LIG    1       -1.990   1.991   1.314  0.00  0.00    +0.180 A 
ATOM      5  N   LIG    1       -2.230   2.176   2.585  0.00  0.00    -0.280 NA
ATOM      6  N   LIG    1       -1.147   2.035   3.263  0.00  0.00    -0.280 NA
ATOM      7  C   LIG    1       -0.152   1.745   2.454  0.00  0.00    +0.220 A 
BRANCH   7   8
ATOM      8  C   LIG    1        1.255   1.506   2.841  0.00  0.00    -0.020 A 
ATOM      9  C   LIG    1        2.120   0.846   1.967  0.00  0.00    +0.020 A 
ATOM     10  C   LIG    1        3.433   0.630   2.333  0.00  0.00    +0.010 A 
ATOM     11  C   LIG    1        3.890   1.058   3.566  0.00  0.00    +0.030 A 
ATOM     12  C   LIG    1        3.036   1.708   4.440  0.00  0.00    +0.010 A 
ATOM     13  C   LIG    1        1.722   1.934   4.085  0.00  0.00    +0.070 A 
ENDBRANCH   7   8
ENDBRANCH   1   4
BRANCH   1  14
ATOM     14  N   LIG    1       -3.600   0.753  -0.021  0.00  0.00    -0.530 NA
ATOM     15  C   LIG    1       -3.995   0.140   1.255  0.00  0.00    +0.170 C 
ATOM     16  C   LIG    1       -4.563  -1.257   0.989  0.00  0.00    +0.230 C 
ATOM     17  O   LIG    1       -5.658  -1.155   0.074  0.00  0.00    -0.370 OA
ATOM     18  C   LIG    1       -5.308  -0.562  -1.179  0.00  0.00    +0.220 C 
ATOM     19  C   LIG    1       -4.748   0.842  -0.935  0.00  0.00    +0.170 C 
BRANCH  18  20
ATOM     20  C   LIG    1       -6.533  -0.471  -2.052  0.00  0.00    -0.080 A 
ATOM     21  C   LIG    1       -7.751  -0.125  -1.498  0.00  0.00    +0.060 A 
ATOM     22  C   LIG    1       -8.874  -0.035  -2.299  0.00  0.00    +0.030 A 
ATOM     23  C   LIG    1       -8.781  -0.303  -3.653  0.00  0.00    -0.030 A 
ATOM     24  C   LIG    1       -7.562  -0.654  -4.206  0.00  0.00    +0.030 A 
ATOM     25 CL   LIG    1      -10.192  -0.197  -4.659  0.00  0.00    -0.070 Cl
ATOM     26  C   LIG    1       -6.439  -0.738  -3.405  0.00  0.00    +0.040 A 
ENDBRANCH  18  20
ENDBRANCH   1  14
TORSDOF 4
