REMARK  Name = ZINCpe000000TVqo.0
REMARK                            x       y       z     vdW  Elec       q    Type
REMARK                         _______ _______ _______ _____ _____    ______ ____
ROOT
ATOM      1  N   LIG    1        4.006   4.623  -1.677  0.00  0.00    -0.650 N 
ATOM      2  H   LIG    1        4.205   5.278  -0.990  0.00  0.00    +0.420 HD
ATOM      3  C   LIG    1        3.265   3.537  -1.379  0.00  0.00    +0.500 C 
ATOM      4  O   LIG    1        2.948   2.760  -2.255  0.00  0.00    -0.500 OA
ENDROOT
BRANCH   1  14
ATOM      5  C   LIG    1        5.731   5.404  -3.183  0.00  0.00    +0.080 A 
ATOM      6  C   LIG    1        6.206   5.573  -4.474  0.00  0.00    +0.000 A 
ATOM      7  C   LIG    1        5.447   5.160  -5.548  0.00  0.00    -0.150 A 
ATOM      8  C   LIG    1        4.204   4.572  -5.359  0.00  0.00    +0.090 A 
ATOM      9  O   LIG    1        3.622   4.255  -6.550  0.00  0.00    -0.300 OA
ATOM     10  C   LIG    1        4.630   4.217  -7.574  0.00  0.00    +0.170 C 
ATOM     11  C   LIG    1        4.061   4.693  -8.912  0.00  0.00    +0.070 C 
ATOM     12  C   LIG    1        3.730   4.395  -4.062  0.00  0.00    +0.050 A 
ATOM     13  C   LIG    1        5.695   5.205  -7.044  0.00  0.00    +0.070 C 
ATOM     14  C   LIG    1        4.490   4.805  -2.980  0.00  0.00    +0.150 A 
BRANCH   5  15
ATOM     15  O   LIG    1        6.475   5.814  -2.120  0.00  0.00    -0.310 OA
BRANCH  15  17
ATOM     16  C   LIG    1        8.424   6.812  -1.098  0.00  0.00    +0.070 C 
ATOM     17  C   LIG    1        7.738   6.419  -2.407  0.00  0.00    +0.180 C 
ENDBRANCH  15  17
ENDBRANCH   5  15
ENDBRANCH   1  14
BRANCH   3  18
ATOM     18  C   LIG    1        2.831   3.288   0.042  0.00  0.00    +0.380 C 
BRANCH  18  19
ATOM     19  N   LIG    1        2.043   2.055   0.103  0.00  0.00    -0.520 N 
ATOM     20  C   LIG    1        0.686   2.109  -0.062  0.00  0.00    +0.360 A 
ATOM     21  C   LIG    1       -0.040   0.972  -0.005  0.00  0.00    -0.110 A 
ATOM     22  C   LIG    1        0.623  -0.259   0.220  0.00  0.00    +0.550 A 
ATOM     23  N   LIG    1        1.962  -0.269   0.383  0.00  0.00    -0.660 N 
ATOM     24  H   LIG    1        2.423  -1.107   0.542  0.00  0.00    +0.430 HD
ATOM     25  O   LIG    1       -0.010  -1.298   0.270  0.00  0.00    -0.510 OA
ATOM     26  C   LIG    1        2.661   0.880   0.322  0.00  0.00    +0.700 A 
ATOM     27  O   LIG    1        3.868   0.855   0.466  0.00  0.00    -0.540 OA
ENDBRANCH  18  19
ENDBRANCH   3  18
TORSDOF 5
