REMARK  Name = ZINCkj000005hxOl.0
REMARK                            x       y       z     vdW  Elec       q    Type
REMARK                         _______ _______ _______ _____ _____    ______ ____
ROOT
ATOM      1  C   LIG    1       -1.633   2.540  -0.750  0.00  0.00    -0.030 C 
ATOM      2  C   LIG    1       -0.118   2.455  -1.071  0.00  0.00    +0.070 C 
ATOM      3  C   LIG    1        0.450   1.686   0.141  0.00  0.00    +0.250 C 
ATOM      4  N   LIG    1       -0.501   1.850   1.250  0.00  0.00    -0.620 N 
ATOM      5  C   LIG    1       -0.374   1.312   2.479  0.00  0.00    +0.600 C 
ATOM      6  O   LIG    1       -1.179   1.586   3.349  0.00  0.00    -0.510 OA
ATOM      7  C   LIG    1       -1.616   2.703   0.790  0.00  0.00    +0.260 C 
ENDROOT
BRANCH   5   8
ATOM      8  C   LIG    1        0.738   0.391   2.769  0.00  0.00    -0.210 A 
ATOM      9  C   LIG    1        2.042   0.722   2.385  0.00  0.00    +0.130 A 
ATOM     10  C   LIG    1        3.079  -0.138   2.663  0.00  0.00    -0.110 A 
ATOM     11  C   LIG    1        2.835  -1.343   3.314  0.00  0.00    +0.200 A 
ATOM     12  C   LIG    1        1.545  -1.685   3.693  0.00  0.00    -0.100 A 
ATOM     13  C   LIG    1        0.494  -0.825   3.425  0.00  0.00    +0.220 A 
BRANCH  11  14
ATOM     14  O   LIG    1        3.863  -2.189   3.579  0.00  0.00    -0.310 OA
ATOM     15  C   LIG    1        5.166  -1.776   3.161  0.00  0.00    +0.250 C 
ENDBRANCH  11  14
BRANCH  13  16
ATOM     16  O   LIG    1       -0.768  -1.157   3.795  0.00  0.00    -0.300 OA
ATOM     17  C   LIG    1       -0.941  -2.411   4.459  0.00  0.00    +0.250 C 
ENDBRANCH  13  16
ENDBRANCH   5   8
BRANCH   1  18
ATOM     18  C   LIG    1       -2.269   3.758  -1.424  0.00  0.00    +0.280 C 
BRANCH  18  20
ATOM     19  C   LIG    1       -4.331   4.909  -1.845  0.00  0.00    +0.320 C 
ATOM     20  N   LIG    1       -3.721   3.740  -1.198  0.00  0.00    -0.510 N 
ATOM     21  H   LIG    1       -3.907   3.768  -0.207  0.00  0.00    +0.430 HD
ATOM     22  H   LIG    1       -4.112   2.896  -1.590  0.00  0.00    +0.430 HD
ENDBRANCH  18  20
ENDBRANCH   1  18
TORSDOF 5
