REMARK  Name = ZINCnE000001TAtP.0
REMARK                            x       y       z     vdW  Elec       q    Type
REMARK                         _______ _______ _______ _____ _____    ______ ____
ROOT
ATOM      1  C   LIG    1        6.511  -1.759  -1.615  0.00  0.00    +0.050 C 
ENDROOT
BRANCH   1   8
ATOM      2  C   LIG    1        8.923   1.017  -2.703  0.00  0.00    +0.130 C 
ATOM      3  C   LIG    1        8.291   2.345  -3.131  0.00  0.00    +0.020 C 
ATOM      4  C   LIG    1        7.602   2.165  -4.485  0.00  0.00    +0.000 C 
ATOM      5  C   LIG    1        6.490   1.121  -4.359  0.00  0.00    +0.010 C 
ATOM      6  C   LIG    1        7.105  -0.226  -3.947  0.00  0.00    +0.250 C 
ATOM      7  N   LIG    1        7.888  -0.026  -2.720  0.00  0.00    -0.600 N 
ATOM      8  C   LIG    1        7.664  -0.789  -1.631  0.00  0.00    +0.500 C 
ATOM      9  O   LIG    1        8.390  -0.694  -0.665  0.00  0.00    -0.470 OA
BRANCH   2  11
ATOM     10  O   LIG    1       10.664   0.902  -1.106  0.00  0.00    -0.700 OA
ATOM     11  C   LIG    1        9.487   1.147  -1.312  0.00  0.00    +0.520 C 
ATOM     12  O   LIG    1        8.767   1.496  -0.393  0.00  0.00    -0.680 OA
ENDBRANCH   2  11
ENDBRANCH   1   8
BRANCH   1  13
ATOM     13  C   LIG    1        6.481  -2.494  -0.273  0.00  0.00    +0.170 C 
BRANCH  13  14
ATOM     14  C   LIG    1        5.329  -3.464  -0.257  0.00  0.00    +0.120 A 
ATOM     15  N   LIG    1        5.406  -4.680  -0.648  0.00  0.00    -0.470 NA
ATOM     16  C   LIG    1        4.293  -5.435  -0.578  0.00  0.00    +0.090 A 
ATOM     17  C   LIG    1        4.097  -6.784  -0.935  0.00  0.00    +0.120 A 
ATOM     18  C   LIG    1        2.864  -7.369  -0.786  0.00  0.00    -0.080 A 
ATOM     19  C   LIG    1        1.796  -6.645  -0.272  0.00  0.00    +0.050 A 
ATOM     20  C   LIG    1        1.965  -5.326   0.084  0.00  0.00    +0.080 A 
ATOM     21 BR   LIG    1        2.619  -9.178  -1.278  0.00  0.00    -0.040 Br
ATOM     22  C   LIG    1        3.207  -4.715  -0.066  0.00  0.00    -0.180 A 
ATOM     23  S   LIG    1        3.757  -3.079   0.284  0.00  0.00    +0.120 S 
ENDBRANCH  13  14
ENDBRANCH   1  13
TORSDOF 4
