REMARK  Name = ZINCqH0000001N31.0
REMARK                            x       y       z     vdW  Elec       q    Type
REMARK                         _______ _______ _______ _____ _____    ______ ____
ROOT
ATOM      1  C   LIG    1        6.862   6.087  -7.655  0.00  0.00    -0.070 A 
ATOM      2  C   LIG    1        7.404   4.850  -7.935  0.00  0.00    +0.000 A 
ATOM      3  C   LIG    1        6.743   3.703  -7.538  0.00  0.00    +0.000 A 
ATOM      4  C   LIG    1        5.542   3.804  -6.867  0.00  0.00    +0.000 A 
ATOM      5  C   LIG    1        4.992   5.048  -6.590  0.00  0.00    -0.090 A 
ATOM      6  C   LIG    1        3.669   5.087  -5.875  0.00  0.00    +0.340 C 
ATOM      7  N   LIG    1        3.374   6.458  -5.445  0.00  0.00    -0.600 N 
ATOM      8  C   LIG    1        2.896   6.719  -4.212  0.00  0.00    +0.610 C 
ATOM      9  O   LIG    1        2.612   7.859  -3.899  0.00  0.00    -0.540 OA
ATOM     10  C   LIG    1        3.627   7.539  -6.413  0.00  0.00    +0.290 C 
ATOM     11  C   LIG    1        5.128   7.574  -6.696  0.00  0.00    +0.070 C 
ATOM     12  C   LIG    1        5.653   6.191  -6.977  0.00  0.00    -0.070 A 
ENDROOT
BRANCH   8  13
ATOM     13  C   LIG    1        2.718   5.621  -3.243  0.00  0.00    -0.100 A 
ATOM     14  C   LIG    1        2.370   5.764  -1.930  0.00  0.00    +0.310 A 
ATOM     15  N   LIG    1        2.318   4.524  -1.403  0.00  0.00    -0.360 N 
ATOM     16  N   LIG    1        2.637   3.631  -2.435  0.00  0.00    -0.050 NA
ATOM     17  N   LIG    1        2.867   4.311  -3.504  0.00  0.00    -0.210 NA
BRANCH  15  18
ATOM     18  C   LIG    1        1.987   4.177  -0.018  0.00  0.00    +0.440 C 
BRANCH  18  19
ATOM     19  C   LIG    1        0.842   3.197  -0.007  0.00  0.00    -0.230 A 
ATOM     20  C   LIG    1        0.966   1.869  -0.039  0.00  0.00    +0.070 A 
ATOM     21  C   LIG    1       -0.230   1.172  -0.020  0.00  0.00    +0.010 A 
ATOM     22  C   LIG    1       -1.324   1.933   0.021  0.00  0.00    -0.020 A 
ATOM     23  S   LIG    1       -0.862   3.630   0.050  0.00  0.00    +0.120 S 
ENDBRANCH  18  19
ENDBRANCH  15  18
ENDBRANCH   8  13
BRANCH   1  25
ATOM     24  C   LIG    1        8.968   7.377  -7.434  0.00  0.00    +0.030 C 
ATOM     25  C   LIG    1        7.585   7.336  -8.089  0.00  0.00    +0.010 C 
ATOM     26  C   LIG    1        7.742   7.332  -9.611  0.00  0.00    +0.040 C 
ENDBRANCH   1  25
TORSDOF 4
