REMARK  Name = ZINCpk00000eamTx.0
REMARK                            x       y       z     vdW  Elec       q    Type
REMARK                         _______ _______ _______ _____ _____    ______ ____
ROOT
ATOM      1  C   LIG    1        1.248   1.716  -0.001  0.00  0.00    +0.280 C 
ENDROOT
BRANCH   1   2
ATOM      2  C   LIG    1        2.424   0.737  -0.017  0.00  0.00    -0.010 C 
ATOM      3  C   LIG    1        3.751   1.510  -0.117  0.00  0.00    +0.060 C 
ATOM      4  C   LIG    1        4.559   1.162   1.150  0.00  0.00    +0.090 C 
ATOM      5  C   LIG    1        3.985  -0.202   1.605  0.00  0.00    +0.020 C 
ATOM      6  C   LIG    1        2.473  -0.053   1.307  0.00  0.00    +0.170 C 
BRANCH   4   7
ATOM      7  C   LIG    1        6.026   1.036   0.825  0.00  0.00    +0.180 A 
ATOM      8  N   LIG    1        6.555   0.241  -0.065  0.00  0.00    -0.290 NA
ATOM      9  N   LIG    1        7.832   0.394  -0.077  0.00  0.00    -0.300 NA
ATOM     10  C   LIG    1        8.175   1.294   0.804  0.00  0.00    +0.370 A 
ATOM     11  N   LIG    1        7.038   1.730   1.398  0.00  0.00    -0.480 N 
ATOM     12  C   LIG    1        6.927   2.744   2.449  0.00  0.00    +0.330 C 
ENDBRANCH   4   7
BRANCH   6  13
ATOM     13  O   LIG    1        1.825   0.678   2.350  0.00  0.00    -0.550 OA
ATOM     14  H   LIG    1        1.826   0.228   3.205  0.00  0.00    +0.380 HD
ENDBRANCH   6  13
ENDBRANCH   1   2
BRANCH   1  16
ATOM     15  C   LIG    1       -1.187   1.624   0.017  0.00  0.00    +0.560 C 
ATOM     16  N   LIG    1       -0.011   0.966   0.007  0.00  0.00    -0.720 N 
ATOM     17  H   LIG    1        0.002  -0.004   0.002  0.00  0.00    +0.390 HD
ATOM     18  O   LIG    1       -1.204   2.840   0.023  0.00  0.00    -0.520 OA
BRANCH  15  25
ATOM     19  C   LIG    1       -3.680   1.549   0.034  0.00  0.00    +0.190 A 
ATOM     20  C   LIG    1       -4.866   0.829   0.029  0.00  0.00    -0.090 A 
ATOM     21  C   LIG    1       -4.837  -0.551   0.022  0.00  0.00    -0.020 A 
ATOM     22  C   LIG    1       -3.628  -1.227   0.013  0.00  0.00    -0.040 A 
ATOM     23  C   LIG    1       -2.441  -0.528   0.011  0.00  0.00    +0.090 A 
ATOM     24  C   LIG    1       -6.129  -1.327   0.024  0.00  0.00    +0.100 C 
ATOM     25  C   LIG    1       -2.455   0.869   0.018  0.00  0.00    -0.180 A 
BRANCH  19  27
ATOM     26  C   LIG    1       -4.992   3.529   0.062  0.00  0.00    +0.240 C 
ATOM     27  O   LIG    1       -3.707   2.905   0.047  0.00  0.00    -0.280 OA
ENDBRANCH  19  27
ENDBRANCH  15  25
ENDBRANCH   1  16
TORSDOF 6
