REMARK  Name = ZINCqH0000005fJk.0
REMARK                            x       y       z     vdW  Elec       q    Type
REMARK                         _______ _______ _______ _____ _____    ______ ____
ROOT
ATOM      1  C   LIG    1       -1.343  10.233  -1.413  0.00  0.00    +0.270 C 
ATOM      2  N   LIG    1       -2.287   9.119  -1.292  0.00  0.00    -0.620 N 
ATOM      3  C   LIG    1       -1.833   7.850  -1.278  0.00  0.00    +0.530 C 
ATOM      4  O   LIG    1       -2.614   6.928  -1.178  0.00  0.00    -0.510 OA
ENDROOT
BRANCH   3   5
ATOM      5  C   LIG    1       -0.355   7.577  -1.388  0.00  0.00    +0.120 C 
ATOM      6  C   LIG    1        0.176   8.033  -2.764  0.00  0.00    +0.050 C 
ATOM      7  C   LIG    1        1.225   6.973  -3.159  0.00  0.00    +0.030 C 
ATOM      8  C   LIG    1        1.240   5.967  -1.989  0.00  0.00    +0.170 C 
ATOM      9  N   LIG    1       -0.094   6.115  -1.351  0.00  0.00    -0.480 NA
BRANCH   9  10
ATOM     10  C   LIG    1       -0.074   5.619   0.032  0.00  0.00    +0.230 C 
BRANCH  10  11
ATOM     11  C   LIG    1       -0.054   4.112   0.024  0.00  0.00    -0.090 A 
ATOM     12  C   LIG    1        1.153   3.438   0.009  0.00  0.00    +0.040 A 
ATOM     13  C   LIG    1        1.173   2.056   0.002  0.00  0.00    -0.030 A 
ATOM     14  C   LIG    1       -0.016   1.347   0.009  0.00  0.00    +0.100 A 
ATOM     15  C   LIG    1       -1.224   2.023   0.019  0.00  0.00    -0.010 A 
ATOM     16  F   LIG    1        0.002  -0.004   0.002  0.00  0.00    -0.140 F 
ATOM     17  C   LIG    1       -1.242   3.405   0.031  0.00  0.00    +0.080 A 
ENDBRANCH  10  11
ENDBRANCH   9  10
ENDBRANCH   3   5
BRANCH   2  18
ATOM     18  C   LIG    1       -3.724   9.384  -1.185  0.00  0.00    +0.360 C 
BRANCH  18  19
ATOM     19  C   LIG    1       -4.101   9.532   0.266  0.00  0.00    -0.050 A 
ATOM     20  C   LIG    1       -4.492   8.424   0.994  0.00  0.00    +0.010 A 
ATOM     21  C   LIG    1       -4.835   8.557   2.329  0.00  0.00    +0.130 A 
ATOM     22  C   LIG    1       -4.795   9.802   2.932  0.00  0.00    -0.040 A 
ATOM     23  C   LIG    1       -4.409  10.912   2.200  0.00  0.00    +0.130 A 
ATOM     24  F   LIG    1       -4.371  12.128   2.788  0.00  0.00    -0.130 F 
ATOM     25  F   LIG    1       -5.212   7.473   3.041  0.00  0.00    -0.130 F 
ATOM     26  C   LIG    1       -4.062  10.776   0.867  0.00  0.00    -0.010 A 
ENDBRANCH  18  19
ENDBRANCH   2  18
TORSDOF 5
