REMARK  Name = ZINCqH0000002CiW.0
REMARK                            x       y       z     vdW  Elec       q    Type
REMARK                         _______ _______ _______ _____ _____    ______ ____
ROOT
ATOM      1  N   LIG    1        2.880  -4.579  -0.151  0.00  0.00    -0.580 N 
ATOM      2  C   LIG    1        3.543  -3.455   0.187  0.00  0.00    +0.620 C 
ATOM      3  O   LIG    1        2.948  -2.397   0.265  0.00  0.00    -0.500 OA
ENDROOT
BRANCH   2   4
ATOM      4  C   LIG    1        4.987  -3.507   0.460  0.00  0.00    -0.030 A 
ATOM      5  C   LIG    1        5.779  -2.428   0.684  0.00  0.00    +0.070 A 
ATOM      6  C   LIG    1        7.126  -2.953   0.907  0.00  0.00    -0.140 A 
ATOM      7  C   LIG    1        8.365  -2.370   1.184  0.00  0.00    +0.070 A 
ATOM      8  C   LIG    1        9.466  -3.164   1.341  0.00  0.00    -0.010 A 
ATOM      9  C   LIG    1        9.361  -4.543   1.229  0.00  0.00    +0.060 A 
ATOM     10  C   LIG    1        8.148  -5.138   0.957  0.00  0.00    +0.020 A 
ATOM     11  C   LIG    1        7.014  -4.351   0.792  0.00  0.00    +0.060 A 
ATOM     12  O   LIG    1        5.724  -4.636   0.526  0.00  0.00    -0.190 OA
ENDBRANCH   2   4
BRANCH   1  13
ATOM     13  C   LIG    1        1.460  -4.513  -0.504  0.00  0.00    +0.290 C 
BRANCH  13  15
ATOM     14  C   LIG    1       -0.165  -4.094  -2.355  0.00  0.00    +0.030 C 
ATOM     15  C   LIG    1        1.319  -4.162  -1.986  0.00  0.00    -0.010 C 
ENDBRANCH  13  15
ENDBRANCH   1  13
BRANCH   1  16
ATOM     16  C   LIG    1        3.580  -5.866  -0.165  0.00  0.00    +0.410 C 
BRANCH  16  17
ATOM     17  C   LIG    1        3.615  -6.434   1.231  0.00  0.00    +0.420 A 
ATOM     18  N   LIG    1        3.065  -5.755   2.200  0.00  0.00    -0.560 NA
ATOM     19  C   LIG    1        3.065  -6.220   3.461  0.00  0.00    +0.550 A 
ATOM     20  C   LIG    1        3.685  -7.466   3.745  0.00  0.00    -0.330 A 
ATOM     21  C   LIG    1        4.271  -8.175   2.709  0.00  0.00    +0.170 A 
ATOM     22  C   LIG    1        4.840  -9.375   3.126  0.00  0.00    -0.010 A 
ATOM     23  C   LIG    1        4.734  -9.646   4.424  0.00  0.00    +0.010 A 
ATOM     24  S   LIG    1        3.874  -8.356   5.249  0.00  0.00    +0.240 S 
ATOM     25  O   LIG    1        2.541  -5.575   4.355  0.00  0.00    -0.490 OA
ATOM     26  N   LIG    1        4.216  -7.616   1.433  0.00  0.00    -0.600 N 
ATOM     27  H   LIG    1        4.616  -8.086   0.685  0.00  0.00    +0.420 HD
ENDBRANCH  16  17
ENDBRANCH   1  16
TORSDOF 5
