REMARK  Name = ZINCkj00000haOqH.1
REMARK                            x       y       z     vdW  Elec       q    Type
REMARK                         _______ _______ _______ _____ _____    ______ ____
ROOT
ATOM      1  N   LIG    1       -0.698   1.558   1.213  0.00  0.00    -1.000 NA
ATOM      2  C   LIG    1       -0.013   1.086   0.008  0.00  0.00    +0.310 C 
ENDROOT
BRANCH   1   6
ATOM      3  N   LIG    1        2.623   1.800   3.797  0.00  0.00    -0.380 N 
ATOM      4  C   LIG    1        1.605   0.795   4.124  0.00  0.00    +0.260 C 
ATOM      5  C   LIG    1        0.748   0.511   2.888  0.00  0.00    +0.060 C 
ATOM      6  C   LIG    1        0.063   1.806   2.440  0.00  0.00    +0.250 C 
ATOM      7  C   LIG    1        1.132   2.870   2.173  0.00  0.00    +0.070 C 
ATOM      8  C   LIG    1        1.975   3.067   3.435  0.00  0.00    +0.170 C 
ATOM      9  C   LIG    1        1.073   3.523   4.583  0.00  0.00    +0.080 C 
ATOM     10  H   LIG    1        3.178   1.475   3.019  0.00  0.00    +0.420 HD
BRANCH   3  12
ATOM     11  C   LIG    1        4.270   0.729   5.258  0.00  0.00    +0.080 C 
ATOM     12  C   LIG    1        3.492   2.012   4.962  0.00  0.00    +0.250 C 
ENDBRANCH   3  12
ENDBRANCH   1   6
BRANCH   1  13
ATOM     13  S   LIG    1       -2.335   1.812   1.189  0.00  0.00    +2.600 S 
ATOM     14  O   LIG    1       -2.627   2.088  -0.174  0.00  0.00    -0.930 OA
ATOM     15  O   LIG    1       -2.552   2.790   2.197  0.00  0.00    -0.950 OA
BRANCH  13  16
ATOM     16  C   LIG    1       -3.047   0.219   1.683  0.00  0.00    -0.450 C 
ATOM     17  C   LIG    1       -2.532  -0.883   0.753  0.00  0.00    +0.040 C 
ATOM     18  C   LIG    1       -3.199  -2.210   1.128  0.00  0.00    +0.220 C 
ATOM     19  O   LIG    1       -4.618  -2.069   1.041  0.00  0.00    -0.370 OA
ATOM     20  C   LIG    1       -5.162  -1.085   1.923  0.00  0.00    +0.240 C 
ATOM     21  C   LIG    1       -4.574   0.286   1.580  0.00  0.00    +0.030 C 
ENDBRANCH  13  16
ENDBRANCH   1  13
TORSDOF 4
