REMARK  Name = ZINCkj00000haOqH.0
REMARK                            x       y       z     vdW  Elec       q    Type
REMARK                         _______ _______ _______ _____ _____    ______ ____
ROOT
ATOM      1  N   LIG    1       -2.080   1.016   1.314  0.00  0.00    -1.010 NA
ATOM      2  C   LIG    1       -3.250   1.896   1.246  0.00  0.00    +0.300 C 
ENDROOT
BRANCH   1   6
ATOM      3  N   LIG    1       -0.814   3.005  -1.286  0.00  0.00    -0.380 N 
ATOM      4  C   LIG    1       -0.785   1.538  -1.259  0.00  0.00    +0.250 C 
ATOM      5  C   LIG    1       -0.026   1.062  -0.018  0.00  0.00    +0.070 C 
ATOM      6  C   LIG    1       -0.732   1.584   1.237  0.00  0.00    +0.250 C 
ATOM      7  C   LIG    1       -0.823   3.111   1.162  0.00  0.00    +0.090 C 
ATOM      8  C   LIG    1       -1.552   3.510  -0.122  0.00  0.00    +0.150 C 
ATOM      9  C   LIG    1       -1.644   5.036  -0.201  0.00  0.00    +0.090 C 
ATOM     10  H   LIG    1        0.131   3.359  -1.264  0.00  0.00    +0.420 HD
BRANCH   3  12
ATOM     11  C   LIG    1       -0.635   3.046  -3.728  0.00  0.00    +0.080 C 
ATOM     12  C   LIG    1       -1.475   3.457  -2.518  0.00  0.00    +0.240 C 
ENDBRANCH   3  12
ENDBRANCH   1   6
BRANCH   1  13
ATOM     13  S   LIG    1       -2.282  -0.619   1.476  0.00  0.00    +2.600 S 
ATOM     14  O   LIG    1       -1.046  -1.170   1.044  0.00  0.00    -0.940 OA
ATOM     15  O   LIG    1       -3.490  -0.894   0.779  0.00  0.00    -0.940 OA
BRANCH  13  16
ATOM     16  C   LIG    1       -2.504  -0.873   3.258  0.00  0.00    -0.450 C 
ATOM     17  C   LIG    1       -1.262  -0.376   4.005  0.00  0.00    +0.040 C 
ATOM     18  C   LIG    1       -1.424  -0.669   5.499  0.00  0.00    +0.230 C 
ATOM     19  O   LIG    1       -1.630  -2.070   5.691  0.00  0.00    -0.370 OA
ATOM     20  C   LIG    1       -2.804  -2.579   5.055  0.00  0.00    +0.240 C 
ATOM     21  C   LIG    1       -2.696  -2.366   3.543  0.00  0.00    +0.030 C 
ENDBRANCH  13  16
ENDBRANCH   1  13
TORSDOF 4
