REMARK  Name = ZINCqH0000000vAj.0
REMARK                            x       y       z     vdW  Elec       q    Type
REMARK                         _______ _______ _______ _____ _____    ______ ____
ROOT
ATOM      1  C   LIG    1        0.103   1.133  -0.085  0.00  0.00    +0.380 C 
ENDROOT
BRANCH   1   6
ATOM      2  C   LIG    1       -2.359   1.354  -2.953  0.00  0.00    -0.170 A 
ATOM      3  C   LIG    1       -2.099   2.640  -3.436  0.00  0.00    -0.030 A 
ATOM      4  C   LIG    1       -1.135   3.418  -2.831  0.00  0.00    +0.000 A 
ATOM      5  C   LIG    1       -0.425   2.929  -1.748  0.00  0.00    -0.030 A 
ATOM      6  C   LIG    1       -0.676   1.656  -1.264  0.00  0.00    -0.140 A 
ATOM      7  C   LIG    1        0.627   3.785  -1.093  0.00  0.00    +0.100 C 
ATOM      8  C   LIG    1       -2.870   3.175  -4.615  0.00  0.00    +0.110 C 
ATOM      9  C   LIG    1       -1.633   0.864  -1.862  0.00  0.00    -0.020 A 
ATOM     10  C   LIG    1       -1.901  -0.523  -1.338  0.00  0.00    +0.110 C 
BRANCH   2  12
ATOM     11  C   LIG    1       -4.830   0.649  -3.181  0.00  0.00    +0.080 C 
ATOM     12  C   LIG    1       -3.387   0.517  -3.594  0.00  0.00    +0.410 C 
ATOM     13  O   LIG    1       -3.072  -0.278  -4.453  0.00  0.00    -0.450 OA
ENDBRANCH   2  12
ENDBRANCH   1   6
BRANCH   1  14
ATOM     14  N   LIG    1       -0.718   1.232   1.125  0.00  0.00    -0.570 N 
ATOM     15  C   LIG    1       -1.442   0.216   1.634  0.00  0.00    +0.520 C 
ATOM     16  C   LIG    1       -2.116   0.773   2.872  0.00  0.00    +0.320 C 
ATOM     17  N   LIG    1       -1.650   2.170   2.921  0.00  0.00    -0.560 N 
ATOM     18  O   LIG    1       -1.535  -0.909   1.193  0.00  0.00    -0.450 OA
ATOM     19  C   LIG    1       -0.836   2.341   1.864  0.00  0.00    +0.700 C 
ATOM     20  O   LIG    1       -0.273   3.387   1.607  0.00  0.00    -0.510 OA
BRANCH  17  21
ATOM     21  C   LIG    1       -1.984   3.130   3.883  0.00  0.00    +0.180 A 
ATOM     22  C   LIG    1       -2.844   2.802   4.923  0.00  0.00    -0.030 A 
ATOM     23  C   LIG    1       -3.167   3.750   5.874  0.00  0.00    +0.040 A 
ATOM     24  C   LIG    1       -2.646   5.027   5.785  0.00  0.00    -0.010 A 
ATOM     25  C   LIG    1       -1.794   5.359   4.746  0.00  0.00    +0.040 A 
ATOM     26  C   LIG    1       -1.462   4.414   3.795  0.00  0.00    +0.000 A 
ENDBRANCH  17  21
ENDBRANCH   1  14
TORSDOF 4
