REMARK  Name = ZINCpe00000MJLrD.0
REMARK                            x       y       z     vdW  Elec       q    Type
REMARK                         _______ _______ _______ _____ _____    ______ ____
ROOT
ATOM      1  C   LIG    1        2.033   0.190  -0.130  0.00  0.00    +0.140 C 
ATOM      2  C   LIG    1        1.353   0.300   1.040  0.00  0.00    +0.020 C 
ATOM      3  C   LIG    1       -0.030   0.642   0.697  0.00  0.00    +0.560 C 
ATOM      4  N   LIG    1       -0.139   0.726  -0.640  0.00  0.00    -0.580 N 
ATOM      5  O   LIG    1       -0.932   0.821   1.492  0.00  0.00    -0.440 OA
ATOM      6  C   LIG    1        1.051   0.469  -1.213  0.00  0.00    +0.540 C 
ATOM      7  O   LIG    1        1.284   0.465  -2.404  0.00  0.00    -0.440 OA
ENDROOT
BRANCH   4   8
ATOM      8  C   LIG    1       -1.371   1.042  -1.367  0.00  0.00    +0.290 C 
ATOM      9  C   LIG    1       -1.937  -0.235  -1.997  0.00  0.00    +0.080 C 
ATOM     10  C   LIG    1       -0.940  -0.745  -3.044  0.00  0.00    +0.080 C 
ATOM     11  C   LIG    1       -0.664   0.351  -4.040  0.00  0.00    +0.540 C 
ATOM     12  N   LIG    1       -0.740   1.644  -3.691  0.00  0.00    -0.660 N 
ATOM     13  H   LIG    1       -0.548   2.319  -4.361  0.00  0.00    +0.420 HD
ATOM     14  O   LIG    1       -0.368   0.058  -5.178  0.00  0.00    -0.500 OA
ATOM     15  C   LIG    1       -1.072   2.041  -2.454  0.00  0.00    +0.520 C 
ATOM     16  O   LIG    1       -1.133   3.226  -2.206  0.00  0.00    -0.480 OA
ENDBRANCH   4   8
BRANCH   1  17
ATOM     17  N   LIG    1        3.366  -0.118  -0.283  0.00  0.00    -0.550 N 
BRANCH  17  18
ATOM     18  C   LIG    1        3.852  -1.352   0.151  0.00  0.00    +0.190 A 
ATOM     19  C   LIG    1        2.981  -2.295   0.685  0.00  0.00    -0.070 A 
ATOM     20  C   LIG    1        3.465  -3.515   1.114  0.00  0.00    +0.060 A 
ATOM     21  C   LIG    1        4.814  -3.800   1.012  0.00  0.00    -0.040 A 
ATOM     22  C   LIG    1        5.684  -2.864   0.481  0.00  0.00    -0.040 A 
ATOM     23  C   LIG    1        7.154  -3.180   0.371  0.00  0.00    +0.090 C 
ATOM     24  C   LIG    1        5.207  -1.644   0.045  0.00  0.00    -0.040 A 
ENDBRANCH  17  18
BRANCH  17  26
ATOM     25  C   LIG    1        4.872   1.753   0.178  0.00  0.00    +0.030 C 
ATOM     26  C   LIG    1        4.275   0.850  -0.903  0.00  0.00    +0.280 C 
ENDBRANCH  17  26
ENDBRANCH   1  17
TORSDOF 4
