REMARK  Name = ZINCpk00000y6xur.1
REMARK                            x       y       z     vdW  Elec       q    Type
REMARK                         _______ _______ _______ _____ _____    ______ ____
ROOT
ATOM      1  C   LIG    1       -2.888  -2.095  -1.407  0.00  0.00    +0.160 C 
ATOM      2  C   LIG    1       -4.216  -1.339  -1.343  0.00  0.00    +0.040 C 
ATOM      3  C   LIG    1       -5.375  -2.333  -1.443  0.00  0.00    +0.020 C 
ATOM      4  C   LIG    1       -5.283  -3.091  -2.769  0.00  0.00    +0.010 C 
ATOM      5  C   LIG    1       -3.954  -3.848  -2.833  0.00  0.00    +0.050 C 
ATOM      6  C   LIG    1       -2.796  -2.853  -2.733  0.00  0.00    +0.240 C 
ENDROOT
BRANCH   6   7
ATOM      7  N   LIG    1       -2.871  -1.903  -3.845  0.00  0.00    -0.280 N 
ATOM      8  C   LIG    1       -3.283  -2.185  -5.103  0.00  0.00    +0.130 A 
ATOM      9  C   LIG    1       -3.196  -1.026  -5.797  0.00  0.00    -0.050 A 
ATOM     10  N   LIG    1       -2.732  -0.106  -4.944  0.00  0.00    -0.260 NA
ATOM     11  N   LIG    1       -2.550  -0.657  -3.796  0.00  0.00    -0.040 NA
BRANCH   9  12
ATOM     12  C   LIG    1       -3.546  -0.816  -7.248  0.00  0.00    +0.210 C 
ATOM     13  C   LIG    1       -2.679  -1.727  -8.119  0.00  0.00    +0.030 C 
ATOM     14  C   LIG    1       -3.292   0.645  -7.627  0.00  0.00    +0.070 C 
BRANCH  12  15
ATOM     15  O   LIG    1       -4.925  -1.129  -7.455  0.00  0.00    -0.550 OA
ATOM     16  H   LIG    1       -5.158  -2.041  -7.235  0.00  0.00    +0.370 HD
ENDBRANCH  12  15
ENDBRANCH   9  12
ENDBRANCH   6   7
BRANCH   1  17
ATOM     17  N   LIG    1       -1.775  -1.141  -1.311  0.00  0.00    -0.660 NA
ATOM     18  H   LIG    1       -0.961  -1.484  -1.797  0.00  0.00    +0.350 HD
BRANCH  17  19
ATOM     19  C   LIG    1       -1.462  -0.837   0.091  0.00  0.00    +0.310 C 
BRANCH  19  23
ATOM     20  C   LIG    1        0.851   1.964   0.217  0.00  0.00    +0.180 A 
ATOM     21  N   LIG    1        1.646   0.930   0.239  0.00  0.00    -0.290 NA
ATOM     22  N   LIG    1        0.952  -0.152   0.199  0.00  0.00    -0.290 NA
ATOM     23  C   LIG    1       -0.319   0.143   0.150  0.00  0.00    +0.180 A 
ATOM     24  N   LIG    1       -0.419   1.495   0.160  0.00  0.00    -0.460 N 
ATOM     25  C   LIG    1       -1.650   2.287   0.111  0.00  0.00    +0.340 C 
BRANCH  20  27
ATOM     26  C   LIG    1        1.348   3.887   1.702  0.00  0.00    +0.030 C 
ATOM     27  C   LIG    1        1.267   3.412   0.250  0.00  0.00    +0.140 C 
ENDBRANCH  20  27
ENDBRANCH  19  23
ENDBRANCH  17  19
ENDBRANCH   1  17
TORSDOF 7
