REMARK  Name = ZINCb80000002wg2.0
REMARK                            x       y       z     vdW  Elec       q    Type
REMARK                         _______ _______ _______ _____ _____    ______ ____
ROOT
ATOM      1  C   LIG    1       -0.815   2.930   1.214  0.00  0.00    +0.420 A 
ATOM      2  N   LIG    1       -0.368   3.731   0.266  0.00  0.00    -0.520 NA
ATOM      3  C   LIG    1       -0.645   4.994   0.572  0.00  0.00    +0.290 A 
ATOM      4  C   LIG    1       -1.299   5.000   1.791  0.00  0.00    -0.160 A 
ATOM      5  N   LIG    1       -1.397   3.668   2.183  0.00  0.00    -0.430 N 
ATOM      6  C   LIG    1       -2.013   3.163   3.413  0.00  0.00    +0.340 C 
ENDROOT
BRANCH   1   8
ATOM      7  C   LIG    1       -0.013   1.086   0.008  0.00  0.00    +0.250 C 
ATOM      8  N   LIG    1       -0.700   1.560   1.217  0.00  0.00    -0.470 N 
ATOM      9  C   LIG    1       -0.016   1.091   2.429  0.00  0.00    +0.220 C 
ENDBRANCH   1   8
BRANCH   4  10
ATOM     10  C   LIG    1       -1.771   6.125   2.493  0.00  0.00    +0.530 C 
ATOM     11  O   LIG    1       -2.332   5.984   3.562  0.00  0.00    -0.490 OA
ENDBRANCH   4  10
TORSDOF 2
