REMARK  Name = ZINCrD000000fAaa.0
REMARK                            x       y       z     vdW  Elec       q    Type
REMARK                         _______ _______ _______ _____ _____    ______ ____
ROOT
ATOM      1  C   LIG    1       -4.201   4.997  -1.515  0.00  0.00    +0.500 C 
ATOM      2  N   LIG    1       -4.731   5.369  -2.697  0.00  0.00    -0.680 N 
ATOM      3  H   LIG    1       -4.267   5.162  -3.523  0.00  0.00    +0.410 HD
ATOM      4  O   LIG    1       -4.737   5.328  -0.479  0.00  0.00    -0.480 OA
ENDROOT
BRANCH   2   5
ATOM      5  C   LIG    1       -5.952   6.054  -2.732  0.00  0.00    +0.140 A 
ATOM      6  C   LIG    1       -6.268   6.962  -1.728  0.00  0.00    +0.080 A 
ATOM      7  C   LIG    1       -7.471   7.641  -1.757  0.00  0.00    +0.050 A 
ATOM      8  C   LIG    1       -8.368   7.422  -2.784  0.00  0.00    +0.000 A 
ATOM      9  C   LIG    1       -8.059   6.512  -3.798  0.00  0.00    -0.120 A 
ATOM     10 CL   LIG    1       -9.879   8.277  -2.816  0.00  0.00    -0.030 Cl
ATOM     11  C   LIG    1       -6.842   5.831  -3.771  0.00  0.00    +0.040 A 
BRANCH   9  12
ATOM     12  C   LIG    1       -9.016   6.275  -4.899  0.00  0.00    +0.560 C 
ATOM     13  O   LIG    1      -10.074   6.873  -4.924  0.00  0.00    -0.510 OA
ATOM     14  N   LIG    1       -8.716   5.396  -5.876  0.00  0.00    -0.850 N 
ATOM     15  H   LIG    1       -9.344   5.241  -6.599  0.00  0.00    +0.410 HD
ATOM     16  H   LIG    1       -7.871   4.919  -5.856  0.00  0.00    +0.400 HD
ENDBRANCH   9  12
ENDBRANCH   2   5
BRANCH   1  17
ATOM     17  C   LIG    1       -2.941   4.170  -1.481  0.00  0.00    +0.060 C 
BRANCH  17  29
ATOM     18  C   LIG    1       -5.531   2.708   2.066  0.00  0.00    +0.100 C 
ATOM     19  C   LIG    1       -4.479   3.580   1.431  0.00  0.00    +0.510 C 
ATOM     20  N   LIG    1       -3.582   3.042   0.581  0.00  0.00    -0.560 N 
ATOM     21  C   LIG    1       -3.625   1.685   0.287  0.00  0.00    +0.240 C 
ATOM     22  C   LIG    1       -2.490   1.030   0.019  0.00  0.00    -0.040 C 
ATOM     23  C   LIG    1       -1.213   1.769   0.012  0.00  0.00    -0.030 A 
ATOM     24  C   LIG    1        0.006   1.093   0.003  0.00  0.00    +0.020 A 
ATOM     25  C   LIG    1        1.186   1.809   0.002  0.00  0.00    +0.020 A 
ATOM     26  C   LIG    1        1.160   3.193   0.014  0.00  0.00    +0.010 A 
ATOM     27  C   LIG    1       -0.048   3.870   0.019  0.00  0.00    +0.030 A 
ATOM     28  C   LIG    1       -1.232   3.167   0.011  0.00  0.00    -0.110 A 
ATOM     29  C   LIG    1       -2.555   3.888  -0.028  0.00  0.00    +0.320 C 
ATOM     30  O   LIG    1       -4.438   4.765   1.685  0.00  0.00    -0.480 OA
ENDBRANCH  17  29
ENDBRANCH   1  17
TORSDOF 4
