REMARK  Name = ZINCrD000000AB71.1
REMARK                            x       y       z     vdW  Elec       q    Type
REMARK                         _______ _______ _______ _____ _____    ______ ____
ROOT
ATOM      1  O   LIG    1       -1.012  -4.122  -1.558  0.00  0.00    -0.540 OA
ATOM      2  C   LIG    1       -1.056  -3.700  -0.421  0.00  0.00    +0.540 C 
ATOM      3  N   LIG    1       -0.319  -2.627  -0.072  0.00  0.00    -0.610 N 
ATOM      4  C   LIG    1       -0.350  -2.092   1.297  0.00  0.00    +0.310 C 
ATOM      5  C   LIG    1       -0.418  -0.591   1.239  0.00  0.00    -0.040 C 
ATOM      6  C   LIG    1       -0.242   0.099   0.136  0.00  0.00    -0.030 C 
ATOM      7  C   LIG    1        0.041  -0.509  -1.206  0.00  0.00    +0.060 C 
ATOM      8  C   LIG    1        0.549  -1.944  -1.046  0.00  0.00    +0.280 C 
ENDROOT
BRANCH   6   9
ATOM      9  C   LIG    1       -0.324   1.570   0.223  0.00  0.00    -0.140 A 
ATOM     10  C   LIG    1        0.715   2.444   0.192  0.00  0.00    +0.260 A 
ATOM     11  N   LIG    1        0.245   3.721   0.298  0.00  0.00    -0.580 N 
ATOM     12  H   LIG    1        0.800   4.517   0.300  0.00  0.00    +0.420 HD
ATOM     13  C   LIG    1       -1.127   3.719   0.403  0.00  0.00    +0.280 A 
ATOM     14  N   LIG    1       -2.026   4.688   0.525  0.00  0.00    -0.500 NA
ATOM     15  C   LIG    1       -3.313   4.428   0.609  0.00  0.00    +0.300 A 
ATOM     16  C   LIG    1       -3.795   3.130   0.574  0.00  0.00    -0.060 A 
ATOM     17  C   LIG    1       -2.905   2.079   0.449  0.00  0.00    +0.120 A 
ATOM     18  C   LIG    1       -1.546   2.378   0.355  0.00  0.00    -0.140 A 
ENDBRANCH   6   9
BRANCH   2  19
ATOM     19  C   LIG    1       -1.934  -4.377   0.600  0.00  0.00    +0.120 C 
BRANCH  19  20
ATOM     20  C   LIG    1       -2.645  -5.540  -0.041  0.00  0.00    -0.000 A 
ATOM     21  C   LIG    1       -2.180  -6.827   0.155  0.00  0.00    +0.040 A 
ATOM     22  C   LIG    1       -2.833  -7.895  -0.432  0.00  0.00    +0.090 A 
ATOM     23  C   LIG    1       -3.950  -7.676  -1.216  0.00  0.00    +0.030 A 
ATOM     24  C   LIG    1       -4.415  -6.389  -1.412  0.00  0.00    +0.100 A 
ATOM     25  C   LIG    1       -3.765  -5.322  -0.821  0.00  0.00    -0.030 A 
BRANCH  25  26
ATOM     26  N   LIG    1       -4.266  -3.944  -1.027  0.00  0.00    +0.030 N 
ATOM     27  O   LIG    1       -3.635  -2.996  -0.596  0.00  0.00    -0.160 OA
ATOM     28  O   LIG    1       -5.310  -3.759  -1.626  0.00  0.00    -0.160 OA
ENDBRANCH  25  26
ENDBRANCH  19  20
ENDBRANCH   2  19
TORSDOF 4
