REMARK  Name = ZINCrD000000AB71.0
REMARK                            x       y       z     vdW  Elec       q    Type
REMARK                         _______ _______ _______ _____ _____    ______ ____
ROOT
ATOM      1  O   LIG    1       -5.821  -3.617   1.244  0.00  0.00    -0.540 OA
ATOM      2  C   LIG    1       -4.631  -3.534   1.021  0.00  0.00    +0.540 C 
ATOM      3  N   LIG    1       -4.169  -2.600   0.167  0.00  0.00    -0.610 N 
ATOM      4  C   LIG    1       -2.734  -2.473  -0.125  0.00  0.00    +0.310 C 
ATOM      5  C   LIG    1       -2.358  -1.018  -0.128  0.00  0.00    -0.060 C 
ATOM      6  C   LIG    1       -3.240  -0.043  -0.110  0.00  0.00    -0.020 C 
ATOM      7  C   LIG    1       -4.725  -0.246  -0.061  0.00  0.00    +0.070 C 
ATOM      8  C   LIG    1       -5.083  -1.666  -0.514  0.00  0.00    +0.270 C 
ENDROOT
BRANCH   6   9
ATOM      9  C   LIG    1       -2.735   1.341  -0.133  0.00  0.00    -0.190 A 
ATOM     10  C   LIG    1       -1.899   1.919  -1.077  0.00  0.00    +0.250 A 
ATOM     11  N   LIG    1       -1.669   3.186  -0.752  0.00  0.00    -0.550 NA
ATOM     12  C   LIG    1       -2.291   3.538   0.362  0.00  0.00    +0.260 A 
ATOM     13  N   LIG    1       -2.354   4.709   1.074  0.00  0.00    -0.500 N 
ATOM     14  H   LIG    1       -1.869   5.488   0.760  0.00  0.00    +0.420 HD
ATOM     15  C   LIG    1       -3.080   4.789   2.200  0.00  0.00    +0.330 A 
ATOM     16  C   LIG    1       -3.778   3.723   2.681  0.00  0.00    -0.070 A 
ATOM     17  C   LIG    1       -3.754   2.507   2.004  0.00  0.00    +0.180 A 
ATOM     18  C   LIG    1       -3.003   2.406   0.840  0.00  0.00    -0.160 A 
ENDBRANCH   6   9
BRANCH   2  19
ATOM     19  C   LIG    1       -3.670  -4.475   1.701  0.00  0.00    +0.120 C 
BRANCH  19  20
ATOM     20  C   LIG    1       -4.435  -5.413   2.598  0.00  0.00    +0.000 A 
ATOM     21  C   LIG    1       -4.712  -6.700   2.177  0.00  0.00    +0.040 A 
ATOM     22  C   LIG    1       -5.414  -7.561   3.000  0.00  0.00    +0.090 A 
ATOM     23  C   LIG    1       -5.838  -7.135   4.244  0.00  0.00    +0.030 A 
ATOM     24  C   LIG    1       -5.560  -5.848   4.666  0.00  0.00    +0.100 A 
ATOM     25  C   LIG    1       -4.855  -4.989   3.845  0.00  0.00    -0.030 A 
BRANCH  25  26
ATOM     26  N   LIG    1       -4.553  -3.612   4.298  0.00  0.00    +0.030 N 
ATOM     27  O   LIG    1       -4.030  -2.821   3.535  0.00  0.00    -0.160 OA
ATOM     28  O   LIG    1       -4.827  -3.272   5.435  0.00  0.00    -0.160 OA
ENDBRANCH  25  26
ENDBRANCH  19  20
ENDBRANCH   2  19
TORSDOF 4
