REMARK  Name = ZINCvU00000009w5.0
REMARK                            x       y       z     vdW  Elec       q    Type
REMARK                         _______ _______ _______ _____ _____    ______ ____
ROOT
ATOM      1  C   LIG    1       -0.016   1.354   0.009  0.00  0.00    +0.130 A 
ATOM      2  C   LIG    1       -1.228   2.030   0.019  0.00  0.00    -0.040 A 
ATOM      3  C   LIG    1       -1.252   3.408   0.032  0.00  0.00    +0.050 A 
ATOM      4  C   LIG    1       -0.055   4.127   0.025  0.00  0.00    -0.140 A 
ATOM      5  C   LIG    1        1.165   3.447   0.009  0.00  0.00    +0.040 A 
ATOM      6  C   LIG    1        1.183   2.066   0.002  0.00  0.00    +0.090 A 
ENDROOT
BRANCH   4   7
ATOM      7  C   LIG    1       -0.079   5.603   0.032  0.00  0.00    +0.570 C 
ATOM      8  N   LIG    1       -1.257   6.258   0.047  0.00  0.00    -0.720 N 
ATOM      9  H   LIG    1       -2.089   5.759   0.053  0.00  0.00    +0.400 HD
ATOM     10  O   LIG    1        0.964   6.228   0.025  0.00  0.00    -0.530 OA
BRANCH   8  11
ATOM     11  C   LIG    1       -1.281   7.723   0.055  0.00  0.00    +0.290 C 
ATOM     12  C   LIG    1       -1.178   8.242  -1.381  0.00  0.00    +0.040 C 
BRANCH  11  13
ATOM     13  C   LIG    1       -2.571   8.201   0.670  0.00  0.00    -0.100 A 
ATOM     14  C   LIG    1       -3.758   7.554   0.383  0.00  0.00    +0.000 A 
ATOM     15  C   LIG    1       -4.935   7.997   0.952  0.00  0.00    +0.010 A 
ATOM     16  C   LIG    1       -4.938   9.094   1.803  0.00  0.00    -0.070 A 
ATOM     17  C   LIG    1       -6.260   9.535   2.374  0.00  0.00    +0.070 C 
ATOM     18  C   LIG    1       -6.046  10.433   3.591  0.00  0.00    +0.020 C 
ATOM     19  C   LIG    1       -5.063  11.544   3.206  0.00  0.00    +0.020 C 
ATOM     20  C   LIG    1       -3.681  10.922   3.018  0.00  0.00    +0.080 C 
ATOM     21  C   LIG    1       -3.755   9.738   2.090  0.00  0.00    -0.070 A 
ATOM     22  C   LIG    1       -2.571   9.290   1.518  0.00  0.00    +0.010 A 
ENDBRANCH  11  13
ENDBRANCH   8  11
ENDBRANCH   4   7
BRANCH   1  24
ATOM     23  C   LIG    1       -1.262  -0.670   0.011  0.00  0.00    +0.240 C 
ATOM     24  O   LIG    1        0.002  -0.004   0.002  0.00  0.00    -0.300 OA
ENDBRANCH   1  24
BRANCH   6  25
ATOM     25  O   LIG    1        2.369   1.401  -0.013  0.00  0.00    -0.290 OA
BRANCH  25  26
ATOM     26  C   LIG    1        3.557   2.194  -0.021  0.00  0.00    +0.260 C 
BRANCH  26  27
ATOM     27  C   LIG    1        4.764   1.291  -0.037  0.00  0.00    -0.050 A 
ATOM     28  C   LIG    1        5.347   0.863   1.146  0.00  0.00    -0.010 A 
ATOM     29  C   LIG    1        6.450   0.032   1.091  0.00  0.00    +0.260 A 
ATOM     30  N   LIG    1        6.952  -0.346  -0.068  0.00  0.00    -0.480 NA
ATOM     31  C   LIG    1        6.427   0.044  -1.213  0.00  0.00    +0.260 A 
ATOM     32  C   LIG    1        5.320   0.872  -1.236  0.00  0.00    -0.010 A 
ENDBRANCH  26  27
ENDBRANCH  25  26
ENDBRANCH   6  25
TORSDOF 7
