REMARK  Name = ZINCpe000000UWbo.0
REMARK                            x       y       z     vdW  Elec       q    Type
REMARK                         _______ _______ _______ _____ _____    ______ ____
ROOT
ATOM      1  N   LIG    1       -0.634   1.473   1.284  0.00  0.00    -0.730 N 
ATOM      2  H   LIG    1       -0.419   2.352   1.632  0.00  0.00    +0.400 HD
ATOM      3  C   LIG    1       -1.682   0.788   1.784  0.00  0.00    +0.700 C 
ATOM      4  N   LIG    1       -2.430   1.325   2.768  0.00  0.00    -0.680 N 
ATOM      5  H   LIG    1       -2.170   2.169   3.169  0.00  0.00    +0.410 HD
ATOM      6  O   LIG    1       -1.952  -0.314   1.348  0.00  0.00    -0.560 OA
ENDROOT
BRANCH   4   7
ATOM      7  C   LIG    1       -3.582   0.665   3.211  0.00  0.00    +0.210 A 
ATOM      8  C   LIG    1       -3.963   0.751   4.544  0.00  0.00    +0.020 A 
ATOM      9  C   LIG    1       -5.099   0.101   4.982  0.00  0.00    +0.110 A 
ATOM     10  C   LIG    1       -5.863  -0.639   4.091  0.00  0.00    +0.080 A 
ATOM     11  C   LIG    1       -5.483  -0.726   2.756  0.00  0.00    +0.130 A 
ATOM     12  F   LIG    1       -6.226  -1.447   1.887  0.00  0.00    -0.120 F 
ATOM     13  C   LIG    1       -4.348  -0.071   2.317  0.00  0.00    +0.040 A 
BRANCH  10  14
ATOM     14  N   LIG    1       -7.018  -1.300   4.536  0.00  0.00    -0.330 N 
ATOM     15  C   LIG    1       -7.868  -2.050   3.803  0.00  0.00    +0.470 A 
ATOM     16  N   LIG    1       -8.804  -2.478   4.610  0.00  0.00    -0.330 NA
ATOM     17  N   LIG    1       -8.609  -2.041   5.801  0.00  0.00    -0.030 NA
ATOM     18  N   LIG    1       -7.543  -1.316   5.841  0.00  0.00    -0.080 NA
ENDBRANCH  10  14
ENDBRANCH   4   7
BRANCH   1  23
ATOM     19  C   LIG    1        1.588   1.506   0.226  0.00  0.00    -0.010 C 
ATOM     20  C   LIG    1        1.780   2.194  -1.141  0.00  0.00    +0.040 C 
ATOM     21  C   LIG    1        0.338   2.479  -1.629  0.00  0.00    +0.030 C 
ATOM     22  C   LIG    1       -0.436   1.222  -1.161  0.00  0.00    +0.030 C 
ATOM     23  C   LIG    1        0.179   0.889   0.214  0.00  0.00    +0.280 C 
BRANCH  19  27
ATOM     24  C   LIG    1        4.938  -0.302   0.632  0.00  0.00    +0.280 C 
ATOM     25  N   LIG    1        3.932   0.748   0.452  0.00  0.00    -0.730 N 
ATOM     26  H   LIG    1        4.207   1.673   0.362  0.00  0.00    +0.400 HD
ATOM     27  C   LIG    1        2.623   0.427   0.412  0.00  0.00    +0.520 C 
ATOM     28  O   LIG    1        2.279  -0.731   0.524  0.00  0.00    -0.530 OA
ENDBRANCH  19  27
ENDBRANCH   1  23
TORSDOF 4
