REMARK  Name = ZINCqH0000003xbu.0
REMARK                            x       y       z     vdW  Elec       q    Type
REMARK                         _______ _______ _______ _____ _____    ______ ____
ROOT
ATOM      1  C   LIG    1        0.002  -0.004   0.002  0.00  0.00    -0.270 A 
ATOM      2  C   LIG    1        1.265  -0.455  -0.013  0.00  0.00    +0.190 A 
ATOM      3  C   LIG    1        2.255   0.536  -0.017  0.00  0.00    -0.230 A 
ATOM      4  C   LIG    1        1.736   1.821  -0.005  0.00  0.00    +0.040 A 
ATOM      5  N   LIG    1        2.792   2.689  -0.010  0.00  0.00    -0.340 N 
ATOM      6  N   LIG    1        3.971   1.939  -0.025  0.00  0.00    -0.260 NA
ATOM      7  C   LIG    1        3.678   0.674  -0.029  0.00  0.00    +0.140 A 
ATOM      8  C   LIG    1        4.672  -0.459  -0.044  0.00  0.00    +0.170 C 
ATOM      9  S   LIG    1       -0.022   1.752   0.012  0.00  0.00    +0.180 S 
ENDROOT
BRANCH   1  12
ATOM     10  N   LIG    1       -2.417  -0.299   0.022  0.00  0.00    -0.730 N 
ATOM     11  H   LIG    1       -2.511   0.666   0.029  0.00  0.00    +0.400 HD
ATOM     12  C   LIG    1       -1.190  -0.857   0.008  0.00  0.00    +0.600 C 
ATOM     13  O   LIG    1       -1.072  -2.068   0.000  0.00  0.00    -0.530 OA
BRANCH  10  14
ATOM     14  C   LIG    1       -3.609  -1.151   0.029  0.00  0.00    +0.260 C 
BRANCH  14  15
ATOM     15  C   LIG    1       -4.863  -0.275   0.045  0.00  0.00    +0.030 C 
BRANCH  15  16
ATOM     16  C   LIG    1       -6.107  -1.165   0.051  0.00  0.00    +0.170 C 
BRANCH  16  17
ATOM     17  O   LIG    1       -7.278  -0.346   0.067  0.00  0.00    -0.390 OA
BRANCH  17  19
ATOM     18  C   LIG    1       -9.683  -0.109   0.090  0.00  0.00    +0.040 C 
ATOM     19  C   LIG    1       -8.503  -1.082   0.074  0.00  0.00    +0.160 C 
ENDBRANCH  17  19
ENDBRANCH  16  17
ENDBRANCH  15  16
ENDBRANCH  14  15
ENDBRANCH  10  14
ENDBRANCH   1  12
BRANCH   5  20
ATOM     20  C   LIG    1        2.702   4.152  -0.001  0.00  0.00    +0.390 C 
BRANCH  20  21
ATOM     21  C   LIG    1        2.686   4.645   1.423  0.00  0.00    -0.140 A 
ATOM     22  C   LIG    1        1.482   4.803   2.085  0.00  0.00    +0.060 A 
ATOM     23  C   LIG    1        1.466   5.250   3.392  0.00  0.00    -0.010 A 
ATOM     24  C   LIG    1        2.655   5.551   4.036  0.00  0.00    +0.110 A 
ATOM     25  C   LIG    1        3.859   5.397   3.370  0.00  0.00    -0.020 A 
ATOM     26  F   LIG    1        2.640   5.994   5.312  0.00  0.00    -0.130 F 
ATOM     27  C   LIG    1        3.873   4.944   2.064  0.00  0.00    +0.080 A 
ENDBRANCH  20  21
ENDBRANCH   5  20
TORSDOF 8
