REMARK  Name = ZINCrg00000YRGEB.0
REMARK                            x       y       z     vdW  Elec       q    Type
REMARK                         _______ _______ _______ _____ _____    ______ ____
ROOT
ATOM      1  C   LIG    1        1.416   2.891  -3.105  0.00  0.00    +0.570 C 
ATOM      2  N   LIG    1        1.751   3.184  -1.833  0.00  0.00    -0.580 N 
ATOM      3  C   LIG    1        0.748   3.852  -0.959  0.00  0.00    +0.280 C 
ATOM      4  C   LIG    1        0.829   3.255   0.463  0.00  0.00    +0.280 C 
ATOM      5  N   LIG    1        1.041   1.834   0.459  0.00  0.00    -0.600 N 
ATOM      6  C   LIG    1        2.419   1.289   0.475  0.00  0.00    +0.310 C 
ATOM      7  C   LIG    1        3.025   1.390  -0.862  0.00  0.00    +0.140 C 
ATOM      8  C   LIG    1       -0.015   0.996   0.434  0.00  0.00    +0.600 C 
ATOM      9  O   LIG    1        0.164  -0.208   0.423  0.00  0.00    -0.520 OA
ATOM     10  C   LIG    1        3.063   2.843  -1.364  0.00  0.00    +0.280 C 
ATOM     11  O   LIG    1        0.352   3.268  -3.555  0.00  0.00    -0.520 OA
ENDROOT
BRANCH   1  15
ATOM     12  C   LIG    1        2.454   0.588  -7.419  0.00  0.00    +0.130 C 
ATOM     13  C   LIG    1        2.834   1.009  -6.023  0.00  0.00    -0.070 A 
ATOM     14  C   LIG    1        1.954   1.734  -5.238  0.00  0.00    +0.080 A 
ATOM     15  C   LIG    1        2.344   2.110  -3.954  0.00  0.00    +0.070 A 
ATOM     16  N   LIG    1        3.538   1.770  -3.483  0.00  0.00    -0.440 NA
ATOM     17  C   LIG    1        4.392   1.077  -4.202  0.00  0.00    +0.250 A 
ATOM     18  C   LIG    1        4.073   0.674  -5.493  0.00  0.00    +0.070 A 
ATOM     19  F   LIG    1        4.959  -0.037  -6.224  0.00  0.00    -0.120 F 
ENDBRANCH   1  15
BRANCH   8  20
ATOM     20  C   LIG    1       -1.378   1.535   0.414  0.00  0.00    -0.280 A 
ATOM     21  C   LIG    1       -2.522   0.800   0.547  0.00  0.00    +0.120 A 
ATOM     22  C   LIG    1       -3.666   1.562   0.496  0.00  0.00    +0.010 A 
ATOM     23  C   LIG    1       -3.467   2.873   0.317  0.00  0.00    -0.230 A 
ATOM     24  S   LIG    1       -1.802   3.229   0.208  0.00  0.00    +0.250 S 
BRANCH  23  25
ATOM     25  C   LIG    1       -4.568   3.898   0.223  0.00  0.00    +0.270 C 
BRANCH  25  26
ATOM     26  O   LIG    1       -4.866   4.397   1.528  0.00  0.00    -0.570 OA
ATOM     27  H   LIG    1       -5.567   5.063   1.544  0.00  0.00    +0.390 HD
ENDBRANCH  25  26
ENDBRANCH  23  25
ENDBRANCH   8  20
BRANCH   7  28
ATOM     28  O   LIG    1        4.359   0.881  -0.808  0.00  0.00    -0.560 OA
ATOM     29  H   LIG    1        4.827   0.913  -1.653  0.00  0.00    +0.380 HD
ENDBRANCH   7  28
TORSDOF 5
