REMARK  Name = ZINCrD0000074zTS.0
REMARK                            x       y       z     vdW  Elec       q    Type
REMARK                         _______ _______ _______ _____ _____    ______ ____
ROOT
ATOM      1  C   LIG    1       -1.651   2.468   1.466  0.00  0.00    +0.080 C 
ENDROOT
BRANCH   1   2
ATOM      2  C   LIG    1       -2.870   3.353   1.477  0.00  0.00    +0.520 C 
ATOM      3  N   LIG    1       -3.413   3.739   2.649  0.00  0.00    -0.670 N 
ATOM      4  H   LIG    1       -3.061   3.392   3.484  0.00  0.00    +0.420 HD
ATOM      5  O   LIG    1       -3.363   3.720   0.431  0.00  0.00    -0.510 OA
BRANCH   3   6
ATOM      6  C   LIG    1       -4.487   4.639   2.661  0.00  0.00    +0.150 A 
ATOM      7  C   LIG    1       -4.601   5.570   3.685  0.00  0.00    +0.000 A 
ATOM      8  C   LIG    1       -5.657   6.460   3.696  0.00  0.00    +0.050 A 
ATOM      9  C   LIG    1       -6.612   6.420   2.691  0.00  0.00    +0.040 A 
ATOM     10  O   LIG    1       -7.652   7.300   2.724  0.00  0.00    -0.310 OA
ATOM     11  C   LIG    1       -8.382   7.478   1.505  0.00  0.00    +0.220 C 
ATOM     12  C   LIG    1       -8.676   6.093   0.914  0.00  0.00    +0.220 C 
ATOM     13  O   LIG    1       -7.428   5.436   0.669  0.00  0.00    -0.300 OA
ATOM     14  C   LIG    1       -6.503   5.487   1.667  0.00  0.00    +0.070 A 
ATOM     15  C   LIG    1       -5.440   4.597   1.653  0.00  0.00    +0.030 A 
ENDBRANCH   3   6
ENDBRANCH   1   2
BRANCH   1  16
ATOM     16  C   LIG    1       -1.241   2.182   0.020  0.00  0.00    +0.230 C 
BRANCH  16  20
ATOM     17  C   LIG    1        1.293  -0.366  -0.015  0.00  0.00    +0.220 A 
ATOM     18  N   LIG    1        1.992   0.739  -0.009  0.00  0.00    -0.370 NA
ATOM     19  O   LIG    1        1.252   1.700   0.005  0.00  0.00    +0.090 OA
ATOM     20  C   LIG    1       -0.022   1.296   0.010  0.00  0.00    +0.180 A 
ATOM     21  N   LIG    1       -0.012  -0.013  -0.003  0.00  0.00    -0.470 NA
BRANCH  17  26
ATOM     22  C   LIG    1        3.384  -5.733  -0.077  0.00  0.00    +0.100 C 
ATOM     23  C   LIG    1        2.837  -4.329  -0.061  0.00  0.00    -0.060 A 
ATOM     24  C   LIG    1        3.704  -3.251  -0.057  0.00  0.00    +0.010 A 
ATOM     25  C   LIG    1        3.209  -1.963  -0.042  0.00  0.00    +0.050 A 
ATOM     26  C   LIG    1        1.832  -1.749  -0.031  0.00  0.00    -0.030 A 
ATOM     27  C   LIG    1        0.963  -2.838  -0.029  0.00  0.00    +0.070 A 
ATOM     28  C   LIG    1        1.469  -4.122  -0.050  0.00  0.00    +0.010 A 
ENDBRANCH  17  26
ENDBRANCH  16  20
ENDBRANCH   1  16
TORSDOF 5
