REMARK  Name = ZINCpk00000xI5vX.0
REMARK                            x       y       z     vdW  Elec       q    Type
REMARK                         _______ _______ _______ _____ _____    ______ ____
ROOT
ATOM      1  N   LIG    1       -0.003  -0.231  -0.118  0.00  0.00    -0.530 NA
ATOM      2  C   LIG    1        0.084   1.210  -0.351  0.00  0.00    +0.200 C 
ATOM      3  C   LIG    1        1.538   1.601  -0.500  0.00  0.00    +0.030 C 
ATOM      4  C   LIG    1        1.932   1.567  -1.986  0.00  0.00    +0.260 C 
ATOM      5  N   LIG    1        1.329   0.409  -2.675  0.00  0.00    -0.590 N 
ATOM      6  C   LIG    1        1.265  -0.908  -2.074  0.00  0.00    +0.300 C 
ATOM      7  C   LIG    1        0.817   0.583  -3.909  0.00  0.00    +0.630 C 
ATOM      8  O   LIG    1        0.314  -0.355  -4.498  0.00  0.00    -0.520 OA
ATOM      9  C   LIG    1       -0.049  -1.051  -1.269  0.00  0.00    +0.180 C 
ENDROOT
BRANCH   7  10
ATOM     10  C   LIG    1        0.866   1.874  -4.528  0.00  0.00    -0.190 C 
ATOM     11  C   LIG    1        0.906   2.931  -5.036  0.00  0.00    -0.040 C 
BRANCH  11  12
ATOM     12  C   LIG    1        0.954   4.222  -5.655  0.00  0.00    -0.010 A 
ATOM     13  C   LIG    1        1.526   5.304  -4.980  0.00  0.00    +0.050 A 
ATOM     14  C   LIG    1        1.574   6.542  -5.585  0.00  0.00    +0.010 A 
ATOM     15  C   LIG    1        1.048   6.718  -6.853  0.00  0.00    +0.030 A 
ATOM     16  C   LIG    1        0.475   5.652  -7.526  0.00  0.00    +0.010 A 
ATOM     17  C   LIG    1        0.424   4.407  -6.936  0.00  0.00    +0.050 A 
ENDBRANCH  11  12
ENDBRANCH   7  10
BRANCH   1  18
ATOM     18  C   LIG    1       -1.103  -0.550   0.801  0.00  0.00    +0.250 C 
BRANCH  18  21
ATOM     19  N   LIG    1       -3.576  -0.492   0.772  0.00  0.00    -0.720 N 
ATOM     20  H   LIG    1       -3.566  -0.950   1.627  0.00  0.00    +0.400 HD
ATOM     21  C   LIG    1       -2.416  -0.184   0.159  0.00  0.00    +0.480 C 
ATOM     22  O   LIG    1       -2.429   0.389  -0.911  0.00  0.00    -0.530 OA
BRANCH  19  24
ATOM     23  C   LIG    1       -4.962  -0.822  -1.216  0.00  0.00    +0.030 C 
ATOM     24  C   LIG    1       -4.852  -0.136   0.147  0.00  0.00    +0.170 C 
ATOM     25  C   LIG    1       -4.924   1.381  -0.037  0.00  0.00    +0.030 C 
ATOM     26  C   LIG    1       -6.004  -0.596   1.043  0.00  0.00    +0.030 C 
ENDBRANCH  19  24
ENDBRANCH  18  21
ENDBRANCH   1  18
TORSDOF 5
