REMARK  Name = ZINCvU0000000DMX.0
REMARK                            x       y       z     vdW  Elec       q    Type
REMARK                         _______ _______ _______ _____ _____    ______ ____
ROOT
ATOM      1  C   LIG    1        1.250   1.948   0.162  0.00  0.00    -0.180 A 
ATOM      2  C   LIG    1        1.254   3.335  -0.014  0.00  0.00    +0.090 A 
ATOM      3  C   LIG    1        2.448   4.022  -0.022  0.00  0.00    -0.080 A 
ATOM      4  C   LIG    1        3.647   3.337   0.135  0.00  0.00    +0.170 A 
ATOM      5  C   LIG    1        3.647   1.958   0.306  0.00  0.00    -0.020 A 
ATOM      6  C   LIG    1        2.458   1.264   0.319  0.00  0.00    +0.140 A 
ENDROOT
BRANCH   1   8
ATOM      7  O   LIG    1       -0.029   0.002   0.324  0.00  0.00    -0.520 OA
ATOM      8  C   LIG    1       -0.027   1.208   0.175  0.00  0.00    +0.570 C 
ATOM      9  N   LIG    1       -1.191   1.870   0.018  0.00  0.00    -0.670 N 
ATOM     10  H   LIG    1       -1.196   2.839  -0.024  0.00  0.00    +0.410 HD
BRANCH   9  11
ATOM     11  C   LIG    1       -2.392   1.158  -0.086  0.00  0.00    +0.130 A 
ATOM     12  C   LIG    1       -2.411  -0.086  -0.704  0.00  0.00    +0.070 A 
ATOM     13  C   LIG    1       -3.596  -0.789  -0.802  0.00  0.00    -0.030 A 
ATOM     14  C   LIG    1       -4.768  -0.250  -0.292  0.00  0.00    +0.090 A 
ATOM     15  C   LIG    1       -4.750   0.995   0.321  0.00  0.00    +0.040 A 
ATOM     16  C   LIG    1       -3.566   1.697   0.424  0.00  0.00    +0.030 A 
BRANCH  14  17
ATOM     17  O   LIG    1       -5.934  -0.941  -0.394  0.00  0.00    -0.310 OA
BRANCH  17  18
ATOM     18  C   LIG    1       -5.879  -2.216  -1.036  0.00  0.00    +0.600 C 
ATOM     19  F   LIG    1       -5.421  -2.057  -2.349  0.00  0.00    -0.160 F 
ATOM     20  F   LIG    1       -7.157  -2.785  -1.054  0.00  0.00    -0.130 F 
ATOM     21  F   LIG    1       -5.005  -3.054  -0.336  0.00  0.00    -0.160 F 
ENDBRANCH  17  18
ENDBRANCH  14  17
ENDBRANCH   9  11
ENDBRANCH   1   8
BRANCH   4  22
ATOM     22  O   LIG    1        4.821   4.018   0.122  0.00  0.00    -0.310 OA
BRANCH  22  23
ATOM     23  C   LIG    1        4.749   5.434  -0.057  0.00  0.00    +0.330 C 
BRANCH  23  24
ATOM     24  C   LIG    1        6.140   6.014  -0.044  0.00  0.00    +0.050 A 
ATOM     25  C   LIG    1        7.284   5.313   0.112  0.00  0.00    +0.120 A 
ATOM     26  N   LIG    1        8.317   6.210   0.063  0.00  0.00    -0.360 N 
ATOM     27  C   LIG    1        9.670   6.065   0.163  0.00  0.00    +0.230 A 
ATOM     28  C   LIG    1       10.484   7.139   0.079  0.00  0.00    +0.010 A 
ATOM     29  C   LIG    1        9.946   8.422  -0.112  0.00  0.00    +0.050 A 
ATOM     30  C   LIG    1        8.599   8.580  -0.212  0.00  0.00    +0.070 A 
ATOM     31  C   LIG    1        7.763   7.449  -0.123  0.00  0.00    +0.230 A 
ATOM     32  N   LIG    1        6.447   7.305  -0.191  0.00  0.00    -0.480 NA
ENDBRANCH  23  24
ENDBRANCH  22  23
ENDBRANCH   4  22
TORSDOF 7
