REMARK  Name = ZINCqH0000006nUY.0
REMARK                            x       y       z     vdW  Elec       q    Type
REMARK                         _______ _______ _______ _____ _____    ______ ____
ROOT
ATOM      1  C   LIG    1       -0.330   1.527  -3.633  0.00  0.00    +0.590 C 
ATOM      2  N   LIG    1       -0.227   0.930  -2.429  0.00  0.00    -0.710 N 
ATOM      3  H   LIG    1        0.196   0.060  -2.354  0.00  0.00    +0.400 HD
ATOM      4  O   LIG    1       -0.861   2.618  -3.728  0.00  0.00    -0.510 OA
ENDROOT
BRANCH   1   6
ATOM      5  C   LIG    1        0.142   1.365  -6.069  0.00  0.00    -0.000 A 
ATOM      6  C   LIG    1        0.199   0.861  -4.832  0.00  0.00    -0.210 A 
ATOM      7  S   LIG    1        0.985  -0.708  -4.837  0.00  0.00    +0.150 S 
ATOM      8  C   LIG    1        1.232  -0.634  -6.578  0.00  0.00    -0.100 A 
ATOM      9  C   LIG    1        1.831  -1.548  -7.450  0.00  0.00    +0.040 A 
ATOM     10  C   LIG    1        1.914  -1.275  -8.794  0.00  0.00    +0.090 A 
ATOM     11  C   LIG    1        1.402  -0.087  -9.299  0.00  0.00    -0.010 A 
ATOM     12  C   LIG    1        0.809   0.827  -8.464  0.00  0.00    +0.150 A 
ATOM     13  F   LIG    1        0.315   1.978  -8.970  0.00  0.00    -0.120 F 
ATOM     14  C   LIG    1        0.712   0.568  -7.074  0.00  0.00    -0.110 A 
BRANCH   5  15
ATOM     15  C   LIG    1       -0.487   2.702  -6.364  0.00  0.00    +0.250 C 
BRANCH  15  17
ATOM     16  C   LIG    1        0.010   5.041  -6.530  0.00  0.00    +0.220 C 
ATOM     17  O   LIG    1        0.505   3.727  -6.267  0.00  0.00    -0.380 OA
ENDBRANCH  15  17
ENDBRANCH   5  15
ENDBRANCH   1   6
BRANCH   2  18
ATOM     18  C   LIG    1       -0.754   1.594  -1.235  0.00  0.00    +0.330 C 
ATOM     19  C   LIG    1       -0.013   1.086   0.008  0.00  0.00    +0.020 C 
ATOM     20  C   LIG    1       -0.729   1.579   1.268  0.00  0.00    +0.040 C 
ATOM     21  C   LIG    1       -2.070   0.850   1.414  0.00  0.00    +0.110 C 
ATOM     22  C   LIG    1       -2.805   0.938   0.100  0.00  0.00    +0.090 A 
ATOM     23  N   LIG    1       -4.109   0.717  -0.136  0.00  0.00    -0.370 N 
ATOM     24  C   LIG    1       -5.112   0.331   0.859  0.00  0.00    +0.360 C 
ATOM     25  N   LIG    1       -4.338   0.923  -1.505  0.00  0.00    -0.300 NA
ATOM     26  C   LIG    1       -3.202   1.255  -2.067  0.00  0.00    +0.250 A 
ATOM     27  C   LIG    1       -2.220   1.271  -1.079  0.00  0.00    -0.260 A 
ENDBRANCH   2  18
TORSDOF 4
