REMARK  Name = ZINCqH00000029Xt.0
REMARK                            x       y       z     vdW  Elec       q    Type
REMARK                         _______ _______ _______ _____ _____    ______ ____
ROOT
ATOM      1  C   LIG    1        4.664   1.096   1.070  0.00  0.00    +0.530 C 
ATOM      2  N   LIG    1        4.810  -0.242   1.129  0.00  0.00    -0.730 N 
ATOM      3  H   LIG    1        4.030  -0.811   1.221  0.00  0.00    +0.400 HD
ATOM      4  O   LIG    1        5.639   1.808   0.954  0.00  0.00    -0.520 OA
ENDROOT
BRANCH   1  10
ATOM      5  C   LIG    1       -0.014   1.209   0.009  0.00  0.00    +0.510 C 
ATOM      6  N   LIG    1        1.143   1.898   0.001  0.00  0.00    -0.610 N 
ATOM      7  C   LIG    1        1.140   3.368   0.009  0.00  0.00    +0.260 C 
ATOM      8  C   LIG    1        2.010   3.857   1.171  0.00  0.00    +0.010 C 
ATOM      9  C   LIG    1        3.402   3.232   1.059  0.00  0.00    +0.050 C 
ATOM     10  C   LIG    1        3.289   1.709   1.148  0.00  0.00    -0.020 C 
ATOM     11  C   LIG    1        2.434   1.195  -0.009  0.00  0.00    +0.290 C 
ATOM     12  O   LIG    1        0.002  -0.004   0.002  0.00  0.00    -0.540 OA
BRANCH   5  14
ATOM     13  C   LIG    1       -2.479   0.934   0.019  0.00  0.00    +0.040 C 
ATOM     14  C   LIG    1       -1.330   1.944   0.019  0.00  0.00    +0.040 C 
ENDBRANCH   5  14
ENDBRANCH   1  10
BRANCH   2  15
ATOM     15  C   LIG    1        6.146  -0.837   1.052  0.00  0.00    +0.380 C 
BRANCH  15  16
ATOM     16  C   LIG    1        6.136  -2.185   1.727  0.00  0.00    -0.110 A 
ATOM     17  C   LIG    1        5.051  -3.028   1.569  0.00  0.00    +0.050 A 
ATOM     18  C   LIG    1        5.043  -4.266   2.183  0.00  0.00    -0.010 A 
ATOM     19  C   LIG    1        6.115  -4.657   2.966  0.00  0.00    +0.110 A 
ATOM     20  C   LIG    1        7.198  -3.809   3.129  0.00  0.00    -0.010 A 
ATOM     21  F   LIG    1        6.105  -5.864   3.572  0.00  0.00    -0.140 F 
ATOM     22  C   LIG    1        7.207  -2.574   2.509  0.00  0.00    +0.070 A 
ENDBRANCH  15  16
BRANCH  15  23
ATOM     23  C   LIG    1        6.541  -1.002  -0.393  0.00  0.00    -0.190 A 
ATOM     24  C   LIG    1        7.757  -0.769  -0.889  0.00  0.00    +0.020 A 
ATOM     25  C   LIG    1        7.884  -0.993  -2.249  0.00  0.00    +0.010 A 
ATOM     26  C   LIG    1        6.769  -1.400  -2.859  0.00  0.00    -0.050 A 
ATOM     27  S   LIG    1        5.467  -1.525  -1.684  0.00  0.00    +0.110 S 
ENDBRANCH  15  23
ENDBRANCH   2  15
TORSDOF 5
