REMARK  Name = ZINCpk00000e9Td4.0
REMARK                            x       y       z     vdW  Elec       q    Type
REMARK                         _______ _______ _______ _____ _____    ______ ____
ROOT
ATOM      1  C   LIG    1       -0.923   1.732   3.681  0.00  0.00    +0.170 C 
ATOM      2  C   LIG    1       -2.315   1.089   3.754  0.00  0.00    +0.290 C 
ATOM      3  N   LIG    1       -2.948   1.540   5.005  0.00  0.00    -0.560 N 
ATOM      4  C   LIG    1       -2.151   1.581   6.162  0.00  0.00    +0.080 A 
ATOM      5  C   LIG    1       -2.741   1.720   7.407  0.00  0.00    +0.050 A 
ATOM      6  C   LIG    1       -1.953   1.767   8.543  0.00  0.00    +0.000 A 
ATOM      7  C   LIG    1       -0.578   1.675   8.434  0.00  0.00    +0.030 A 
ATOM      8  C   LIG    1        0.017   1.535   7.194  0.00  0.00    +0.020 A 
ATOM      9  C   LIG    1       -0.766   1.486   6.051  0.00  0.00    +0.090 A 
ATOM     10  C   LIG    1       -4.246   1.900   5.039  0.00  0.00    +0.520 C 
ATOM     11  O   LIG    1       -4.766   2.195   6.095  0.00  0.00    -0.480 OA
ATOM     12  O   LIG    1       -0.174   1.344   4.835  0.00  0.00    -0.280 OA
ENDROOT
BRANCH   1  16
ATOM     13  C   LIG    1        0.005   1.145   0.013  0.00  0.00    +0.300 C 
ATOM     14  N   LIG    1       -0.685   1.603   1.222  0.00  0.00    -0.730 N 
ATOM     15  H   LIG    1       -1.481   2.152   1.148  0.00  0.00    +0.400 HD
ATOM     16  C   LIG    1       -0.213   1.261   2.438  0.00  0.00    +0.520 C 
ATOM     17  O   LIG    1        0.782   0.575   2.530  0.00  0.00    -0.500 OA
ENDBRANCH   1  16
BRANCH  10  18
ATOM     18  C   LIG    1       -5.052   1.937   3.766  0.00  0.00    +0.180 C 
BRANCH  18  19
ATOM     19  C   LIG    1       -6.426   2.484   4.057  0.00  0.00    +0.050 A 
ATOM     20  C   LIG    1       -7.000   3.532   3.443  0.00  0.00    +0.140 A 
ATOM     21  N   LIG    1       -8.261   3.704   4.006  0.00  0.00    -0.420 N 
ATOM     22  C   LIG    1       -9.349   4.536   3.876  0.00  0.00    +0.220 A 
ATOM     23  C   LIG    1      -10.399   4.335   4.654  0.00  0.00    +0.010 A 
ATOM     24  S   LIG    1       -9.981   2.942   5.667  0.00  0.00    +0.160 S 
ATOM     25  C   LIG    1       -8.378   2.728   4.947  0.00  0.00    +0.160 A 
ATOM     26  N   LIG    1       -7.284   2.003   4.967  0.00  0.00    -0.420 NA
ENDBRANCH  18  19
ENDBRANCH  10  18
TORSDOF 3
