REMARK  Name = ZINCkj000005klQR.0
REMARK                            x       y       z     vdW  Elec       q    Type
REMARK                         _______ _______ _______ _____ _____    ______ ____
ROOT
ATOM      1  C   LIG    1       -0.162   1.192   4.772  0.00  0.00    +0.410 A 
ATOM      2  C   LIG    1       -0.738   1.584   3.572  0.00  0.00    -0.090 A 
ATOM      3  C   LIG    1       -0.153   1.178   2.378  0.00  0.00    +0.190 A 
ATOM      4  C   LIG    1        0.992   0.385   2.438  0.00  0.00    -0.150 A 
ATOM      5  C   LIG    1        1.510   0.041   3.668  0.00  0.00    +0.350 A 
ATOM      6  N   LIG    1        0.930   0.442   4.784  0.00  0.00    -0.490 NA
ENDROOT
BRANCH   1   8
ATOM      7  C   LIG    1       -0.246   1.131   7.144  0.00  0.00    +0.570 C 
ATOM      8  N   LIG    1       -0.738   1.591   5.976  0.00  0.00    -0.650 N 
ATOM      9  H   LIG    1       -1.493   2.200   5.975  0.00  0.00    +0.430 HD
ATOM     10  O   LIG    1        0.756   0.443   7.152  0.00  0.00    -0.450 OA
BRANCH   7  15
ATOM     11  C   LIG    1       -2.934   2.467  12.002  0.00  0.00    +0.120 C 
ATOM     12  C   LIG    1       -2.198   2.094  10.742  0.00  0.00    -0.100 A 
ATOM     13  C   LIG    1       -1.060   1.306  10.803  0.00  0.00    +0.070 A 
ATOM     14  C   LIG    1       -0.415   0.981   9.620  0.00  0.00    +0.050 A 
ATOM     15  C   LIG    1       -0.926   1.464   8.417  0.00  0.00    +0.060 A 
ATOM     16  N   LIG    1       -2.020   2.216   8.402  0.00  0.00    -0.460 NA
ATOM     17  C   LIG    1       -2.653   2.535   9.509  0.00  0.00    +0.270 A 
ENDBRANCH   7  15
ENDBRANCH   1   8
BRANCH   3  18
ATOM     18  O   LIG    1       -0.686   1.541   1.184  0.00  0.00    -0.320 OA
BRANCH  18  19
ATOM     19  C   LIG    1       -0.018   1.079   0.008  0.00  0.00    +0.220 C 
BRANCH  19  20
ATOM     20  C   LIG    1       -0.759   1.584  -1.232  0.00  0.00    +0.310 C 
BRANCH  20  21
ATOM     21  N   LIG    1       -0.676   3.050  -1.288  0.00  0.00    -0.640 N 
ATOM     22  H   LIG    1       -1.098   3.443  -0.460  0.00  0.00    +0.440 HD
ATOM     23  H   LIG    1       -1.165   3.383  -2.106  0.00  0.00    +0.440 HD
ATOM     24  H   LIG    1        0.292   3.330  -1.337  0.00  0.00    +0.440 HD
ENDBRANCH  20  21
ENDBRANCH  19  20
ENDBRANCH  18  19
ENDBRANCH   3  18
TORSDOF 6
