REMARK  Name = ZINCkj00000x71S4.0
REMARK                            x       y       z     vdW  Elec       q    Type
REMARK                         _______ _______ _______ _____ _____    ______ ____
ROOT
ATOM      1  C   LIG    1       -0.499   1.141   0.815  0.00  0.00    +0.510 C 
ATOM      2  N   LIG    1        0.361   2.058   0.331  0.00  0.00    -0.620 N 
ATOM      3  C   LIG    1        1.362   1.670  -0.667  0.00  0.00    +0.290 C 
ATOM      4  O   LIG    1       -0.486   0.009   0.379  0.00  0.00    -0.500 OA
ENDROOT
BRANCH   1  10
ATOM      5  C   LIG    1       -4.600   4.317  -0.967  0.00  0.00    +0.190 C 
ATOM      6  C   LIG    1       -4.061   3.347   0.053  0.00  0.00    +0.220 A 
ATOM      7  N   LIG    1       -4.781   2.620   0.867  0.00  0.00    -0.470 NA
ATOM      8  C   LIG    1       -3.969   1.879   1.627  0.00  0.00    +0.050 A 
ATOM      9  C   LIG    1       -2.697   2.156   1.270  0.00  0.00    -0.050 A 
ATOM     10  C   LIG    1       -1.480   1.523   1.893  0.00  0.00    +0.070 C 
ATOM     11  C   LIG    1       -1.924   0.268   2.655  0.00  0.00    +0.060 C 
ATOM     12  C   LIG    1       -3.107   0.615   3.563  0.00  0.00    +0.030 C 
ATOM     13  C   LIG    1       -4.347   0.894   2.706  0.00  0.00    +0.120 C 
ATOM     14  N   LIG    1       -2.753   3.084   0.276  0.00  0.00    -0.570 N 
ATOM     15  H   LIG    1       -1.998   3.482  -0.185  0.00  0.00    +0.410 HD
ENDBRANCH   1  10
BRANCH   2  16
ATOM     16  C   LIG    1        0.296   3.444   0.802  0.00  0.00    +0.310 C 
BRANCH  16  17
ATOM     17  C   LIG    1        1.340   3.659   1.899  0.00  0.00    -0.220 C 
ATOM     18  C   LIG    1        2.435   2.601   2.050  0.00  0.00    +0.070 C 
ATOM     19  C   LIG    1        1.319   2.701   3.092  0.00  0.00    +0.090 C 
BRANCH  17  20
ATOM     20  C   LIG    1        1.723   5.116   2.169  0.00  0.00    +0.320 C 
BRANCH  20  21
ATOM     21  N   LIG    1        2.395   5.673   0.988  0.00  0.00    -0.640 N 
ATOM     22  H   LIG    1        3.168   5.078   0.729  0.00  0.00    +0.440 HD
ATOM     23  H   LIG    1        2.738   6.597   1.200  0.00  0.00    +0.440 HD
ATOM     24  H   LIG    1        1.740   5.725   0.222  0.00  0.00    +0.430 HD
ENDBRANCH  20  21
ENDBRANCH  17  20
ENDBRANCH  16  17
ENDBRANCH   2  16
TORSDOF 5
