REMARK  Name = ZINCqH00000073fK.0
REMARK                            x       y       z     vdW  Elec       q    Type
REMARK                         _______ _______ _______ _____ _____    ______ ____
ROOT
ATOM      1  C   LIG    1       -1.215   3.191   0.095  0.00  0.00    +0.190 A 
ATOM      2  C   LIG    1       -0.031   3.835   0.428  0.00  0.00    -0.080 A 
ATOM      3  C   LIG    1        1.164   3.152   0.393  0.00  0.00    +0.090 A 
ATOM      4  C   LIG    1        1.192   1.804   0.021  0.00  0.00    -0.170 A 
ATOM      5  C   LIG    1        0.007   1.150  -0.316  0.00  0.00    +0.130 A 
ATOM      6  C   LIG    1       -1.197   1.843  -0.285  0.00  0.00    -0.090 A 
ENDROOT
BRANCH   4   7
ATOM      7  C   LIG    1        2.475   1.074  -0.015  0.00  0.00    +0.570 C 
ATOM      8  N   LIG    1        3.522   1.586  -0.692  0.00  0.00    -0.610 N 
ATOM      9  C   LIG    1        3.436   2.905  -1.336  0.00  0.00    +0.290 C 
ATOM     10  C   LIG    1        4.438   3.857  -0.663  0.00  0.00    +0.270 C 
ATOM     11  N   LIG    1        5.732   3.178  -0.526  0.00  0.00    -0.450 N 
ATOM     12  C   LIG    1        6.943   3.761  -0.318  0.00  0.00    +0.150 A 
ATOM     13  C   LIG    1        7.874   2.787  -0.237  0.00  0.00    -0.060 A 
ATOM     14  C   LIG    1        7.211   1.554  -0.406  0.00  0.00    -0.040 A 
ATOM     15  C   LIG    1        5.908   1.822  -0.584  0.00  0.00    +0.000 A 
ATOM     16  C   LIG    1        4.786   0.836  -0.814  0.00  0.00    +0.330 C 
ATOM     17  C   LIG    1        4.902   0.231  -2.215  0.00  0.00    +0.060 C 
ATOM     18  O   LIG    1        2.586   0.012   0.565  0.00  0.00    -0.520 OA
ENDBRANCH   4   7
BRANCH   6  19
ATOM     19  C   LIG    1       -2.459   1.155  -0.648  0.00  0.00    +0.170 A 
ATOM     20  C   LIG    1       -2.434  -0.187  -1.019  0.00  0.00    -0.030 A 
ATOM     21  C   LIG    1       -3.620  -0.816  -1.354  0.00  0.00    +0.070 A 
ATOM     22  C   LIG    1       -4.796  -0.079  -1.307  0.00  0.00    -0.040 A 
ATOM     23  C   LIG    1       -4.749   1.250  -0.930  0.00  0.00    +0.260 A 
ATOM     24  N   LIG    1       -3.606   1.823  -0.611  0.00  0.00    -0.450 NA
ENDBRANCH   6  19
BRANCH   1  26
ATOM     25  C   LIG    1       -2.333   5.242   0.522  0.00  0.00    +0.240 C 
ATOM     26  O   LIG    1       -2.389   3.869   0.132  0.00  0.00    -0.270 OA
ENDBRANCH   1  26
TORSDOF 3
