REMARK  Name = ZINCrD00000F5LkK.0
REMARK                            x       y       z     vdW  Elec       q    Type
REMARK                         _______ _______ _______ _____ _____    ______ ____
ROOT
ATOM      1  N   LIG    1       -1.372  -0.511   0.012  0.00  0.00    -0.600 N 
ATOM      2  C   LIG    1       -1.993  -0.751   1.184  0.00  0.00    +0.550 C 
ATOM      3  O   LIG    1       -3.131  -1.171   1.193  0.00  0.00    -0.520 OA
ENDROOT
BRANCH   2   4
ATOM      4  C   LIG    1       -1.274  -0.497   2.484  0.00  0.00    -0.080 C 
ATOM      5  C   LIG    1       -2.033  -0.788   3.780  0.00  0.00    +0.100 C 
ATOM      6  C   LIG    1       -0.899  -1.713   3.333  0.00  0.00    +0.190 C 
ATOM      7  F   LIG    1        0.302  -1.656   4.049  0.00  0.00    -0.170 F 
ENDBRANCH   2   4
BRANCH   1   8
ATOM      8  C   LIG    1       -2.072  -0.758  -1.251  0.00  0.00    +0.350 C 
BRANCH   8  13
ATOM      9  C   LIG    1       -1.235  -6.195  -2.869  0.00  0.00    +0.140 C 
ATOM     10  C   LIG    1       -1.433  -4.759  -2.458  0.00  0.00    +0.150 A 
ATOM     11  N   LIG    1       -2.452  -4.437  -1.685  0.00  0.00    -0.470 NA
ATOM     12  C   LIG    1       -2.665  -3.194  -1.300  0.00  0.00    +0.300 A 
ATOM     13  C   LIG    1       -1.820  -2.175  -1.696  0.00  0.00    -0.160 A 
ATOM     14  C   LIG    1       -0.740  -2.473  -2.513  0.00  0.00    +0.090 A 
ATOM     15  C   LIG    1       -0.544  -3.793  -2.894  0.00  0.00    -0.090 A 
ATOM     16 CL   LIG    1        0.795  -4.226  -3.911  0.00  0.00    -0.050 Cl
ENDBRANCH   8  13
ENDBRANCH   1   8
BRANCH   1  17
ATOM     17  C   LIG    1        0.002  -0.004   0.002  0.00  0.00    +0.300 C 
BRANCH  17  18
ATOM     18  C   LIG    1       -0.019   1.526   0.010  0.00  0.00    +0.040 C 
BRANCH  18  19
ATOM     19  C   LIG    1        1.395   2.047  -0.000  0.00  0.00    +0.520 C 
ATOM     20  N   LIG    1        1.623   3.376   0.005  0.00  0.00    -0.610 N 
ATOM     21  C   LIG    1        0.504   4.327   0.021  0.00  0.00    +0.260 C 
ATOM     22  C   LIG    1        0.697   5.296   1.192  0.00  0.00    +0.010 C 
ATOM     23  C   LIG    1        2.077   5.950   1.086  0.00  0.00    +0.020 C 
ATOM     24  C   LIG    1        3.161   4.872   1.167  0.00  0.00    -0.040 C 
ATOM     25  C   LIG    1        4.540   5.530   1.094  0.00  0.00    +0.030 C 
ATOM     26  C   LIG    1        2.996   3.899   0.001  0.00  0.00    +0.270 C 
ATOM     27  O   LIG    1        2.328   1.272  -0.013  0.00  0.00    -0.540 OA
ENDBRANCH  18  19
ENDBRANCH  17  18
ENDBRANCH   1  17
TORSDOF 6
