REMARK  Name = ZINCrD0000075LKK.0
REMARK                            x       y       z     vdW  Elec       q    Type
REMARK                         _______ _______ _______ _____ _____    ______ ____
ROOT
ATOM      1  O   LIG    1       -1.482   2.684  -0.382  0.00  0.00    -0.570 OA
ATOM      2  C   LIG    1       -1.309   1.502  -0.158  0.00  0.00    +0.710 C 
ATOM      3  N   LIG    1       -2.368   0.672  -0.066  0.00  0.00    -0.630 N 
ATOM      4  C   LIG    1       -2.190  -0.738   0.311  0.00  0.00    +0.290 C 
ATOM      5  C   LIG    1       -3.156  -1.054   1.465  0.00  0.00    +0.190 C 
ATOM      6  N   LIG    1       -4.521  -0.685   1.068  0.00  0.00    -0.490 N 
ATOM      7  C   LIG    1       -4.634   0.760   0.828  0.00  0.00    +0.190 C 
ATOM      8  C   LIG    1       -3.729   1.152  -0.345  0.00  0.00    +0.320 C 
ATOM      9  N   LIG    1       -0.060   1.021  -0.002  0.00  0.00    -0.680 N 
ATOM     10  H   LIG    1        0.083   0.066   0.097  0.00  0.00    +0.410 HD
ENDROOT
BRANCH   6  11
ATOM     11  C   LIG    1       -5.452  -1.108   2.022  0.00  0.00    +0.100 A 
ATOM     12  C   LIG    1       -6.316  -0.191   2.605  0.00  0.00    +0.000 A 
ATOM     13  C   LIG    1       -7.238  -0.613   3.543  0.00  0.00    +0.010 A 
ATOM     14  C   LIG    1       -7.293  -1.946   3.911  0.00  0.00    +0.070 A 
ATOM     15  C   LIG    1       -6.428  -2.861   3.335  0.00  0.00    +0.010 A 
ATOM     16  F   LIG    1       -8.192  -2.356   4.832  0.00  0.00    -0.140 F 
ATOM     17  C   LIG    1       -5.509  -2.446   2.392  0.00  0.00    +0.030 A 
ENDBRANCH   6  11
BRANCH   9  18
ATOM     18  C   LIG    1        1.031   1.897   0.011  0.00  0.00    +0.190 A 
ATOM     19  C   LIG    1        0.891   3.173   0.543  0.00  0.00    +0.010 A 
ATOM     20  C   LIG    1        1.968   4.038   0.556  0.00  0.00    +0.070 A 
ATOM     21  C   LIG    1        3.186   3.639   0.042  0.00  0.00    -0.030 A 
ATOM     22  C   LIG    1        3.332   2.364  -0.491  0.00  0.00    +0.180 A 
ATOM     23  C   LIG    1        2.255   1.491  -0.502  0.00  0.00    -0.010 A 
BRANCH  22  24
ATOM     24  N   LIG    1        4.568   1.959  -1.013  0.00  0.00    -0.320 N 
ATOM     25  C   LIG    1        5.719   2.669  -0.976  0.00  0.00    +0.230 A 
ATOM     26  C   LIG    1        6.677   1.932  -1.585  0.00  0.00    -0.100 A 
ATOM     27  C   LIG    1        6.094   0.733  -2.008  0.00  0.00    +0.250 A 
ATOM     28  N   LIG    1        4.832   0.745  -1.661  0.00  0.00    -0.290 NA
ENDBRANCH  22  24
ENDBRANCH   9  18
TORSDOF 3
