REMARK  Name = ZINCnE000001Gz6w.2
REMARK                            x       y       z     vdW  Elec       q    Type
REMARK                         _______ _______ _______ _____ _____    ______ ____
ROOT
ATOM      1  C   UNK    1       -1.003  -1.685  -0.789  0.00  0.00    +0.140 C 
ATOM      2  C   UNK    1       -0.058  -0.629  -1.387  0.00  0.00    -0.020 C 
ATOM      3  C   UNK    1        0.008  -0.004   0.018  0.00  0.00    +0.180 C 
ATOM      4  C   UNK    1       -1.364  -0.642   0.276  0.00  0.00    -0.060 C 
ATOM      5  C   UNK    1       -2.536   0.254  -0.119  0.00  0.00    +0.030 C 
ATOM      6  C   UNK    1       -2.691   1.369   0.919  0.00  0.00    +0.030 C 
ATOM      7  C   UNK    1       -2.903   0.751   2.302  0.00  0.00    +0.000 C 
ATOM      8  C   UNK    1       -1.681  -0.086   2.686  0.00  0.00    +0.000 C 
ATOM      9  C   UNK    1       -1.508  -1.226   1.679  0.00  0.00    +0.030 C 
ENDROOT
BRANCH   3  10
ATOM     10  N   UNK    1       -0.018   1.465   0.010  0.00  0.00    -0.510 NA
ATOM     11  C   UNK    1       -0.325   1.979  -1.331  0.00  0.00    +0.180 C 
BRANCH  10  12
ATOM     12  C   UNK    1        1.250   2.016   0.507  0.00  0.00    +0.290 C 
BRANCH  12  13
ATOM     13  C   UNK    1        1.104   3.501   0.718  0.00  0.00    +0.020 A 
ATOM     14  N   UNK    1        0.718   4.048   1.815  0.00  0.00    -0.400 NA
ATOM     15  C   UNK    1        0.651   5.383   1.809  0.00  0.00    +0.020 A 
ATOM     16  C   UNK    1        1.012   5.938   0.616  0.00  0.00    -0.070 A 
ATOM     17  S   UNK    1        1.436   4.685  -0.466  0.00  0.00    +0.100 S 
BRANCH  15  18
ATOM     18  C   UNK    1        0.231   6.174   2.972  0.00  0.00    +0.550 C 
ATOM     19  O   UNK    1        0.192   7.396   2.900  0.00  0.00    -0.680 OA
ATOM     20  O   UNK    1       -0.080   5.613   4.014  0.00  0.00    -0.660 OA
ENDBRANCH  15  18
ENDBRANCH  12  13
ENDBRANCH  10  12
ENDBRANCH   3  10
BRANCH   1  21
ATOM     21  O   UNK    1       -0.326  -2.829  -0.264  0.00  0.00    -0.360 OA
BRANCH  21  23
ATOM     22  C   UNK    1        0.202  -5.186  -0.346  0.00  0.00    +0.040 C 
ATOM     23  C   UNK    1       -0.569  -4.033  -0.994  0.00  0.00    +0.160 C 
ENDBRANCH  21  23
ENDBRANCH   1  21
TORSDOF 6
