REMARK  Name = ZINCpk000000o0yk.0
REMARK                            x       y       z     vdW  Elec       q    Type
REMARK                         _______ _______ _______ _____ _____    ______ ____
ROOT
ATOM      1  O   LIG    1       -0.084   1.132  -2.407  0.00  0.00    -0.240 OA
ENDROOT
BRANCH   1   2
ATOM      2  N   LIG    1       -0.692   1.548  -3.616  0.00  0.00    -0.400 NA
ATOM      3  C   LIG    1       -0.179   1.194  -4.758  0.00  0.00    +0.410 C 
BRANCH   3   4
ATOM      4  C   LIG    1       -0.814   1.629  -6.022  0.00  0.00    +0.000 A 
ATOM      5  C   LIG    1       -1.967   2.414  -5.991  0.00  0.00    +0.080 A 
ATOM      6  C   LIG    1       -2.555   2.822  -7.173  0.00  0.00    +0.100 A 
ATOM      7  C   LIG    1       -2.006   2.443  -8.389  0.00  0.00    +0.050 A 
ATOM      8  C   LIG    1       -0.862   1.659  -8.425  0.00  0.00    +0.100 A 
ATOM      9  F   LIG    1       -0.331   1.293  -9.612  0.00  0.00    -0.110 F 
ATOM     10  F   LIG    1       -2.587   2.839  -9.543  0.00  0.00    -0.110 F 
ATOM     11  F   LIG    1       -3.668   3.586  -7.144  0.00  0.00    -0.110 F 
ATOM     12  C   LIG    1       -0.265   1.251  -7.247  0.00  0.00    +0.050 A 
ENDBRANCH   3   4
BRANCH   3  13
ATOM     13  N   LIG    1        0.962   0.410  -4.791  0.00  0.00    -0.870 N 
ATOM     14  H   LIG    1        1.345   0.146  -5.642  0.00  0.00    +0.400 HD
ATOM     15  H   LIG    1        1.379   0.125  -3.963  0.00  0.00    +0.410 HD
ENDBRANCH   3  13
ENDBRANCH   1   2
BRANCH   1  16
ATOM     16  C   LIG    1       -0.753   1.593  -1.232  0.00  0.00    +0.210 C 
BRANCH  16  17
ATOM     17  C   LIG    1       -0.013   1.086   0.008  0.00  0.00    +0.030 C 
BRANCH  17  18
ATOM     18  C   LIG    1       -0.729   1.579   1.267  0.00  0.00    +0.320 C 
BRANCH  18  24
ATOM     19  C   LIG    1        2.862   0.465   4.083  0.00  0.00    +0.090 C 
ATOM     20  C   LIG    1        1.400   0.890   4.232  0.00  0.00    +0.120 C 
ATOM     21  N   LIG    1        0.507  -0.278   4.131  0.00  0.00    -0.720 N 
ATOM     22  H   LIG    1        0.494  -1.049   4.720  0.00  0.00    +0.440 HD
ATOM     23  C   LIG    1       -0.287  -0.065   3.067  0.00  0.00    +0.700 C 
ATOM     24  N   LIG    1       -0.020   1.094   2.454  0.00  0.00    -0.580 N 
ATOM     25  O   LIG    1       -1.149  -0.840   2.702  0.00  0.00    -0.540 OA
ATOM     26  C   LIG    1        1.185   1.623   5.558  0.00  0.00    +0.090 C 
ATOM     27  C   LIG    1        0.977   1.762   3.066  0.00  0.00    +0.530 C 
ATOM     28  O   LIG    1        1.441   2.837   2.750  0.00  0.00    -0.460 OA
ENDBRANCH  18  24
ENDBRANCH  17  18
ENDBRANCH  16  17
ENDBRANCH   1  16
TORSDOF 7
