REMARK  Name = ZINCrH000004vAYT.0
REMARK                            x       y       z     vdW  Elec       q    Type
REMARK                         _______ _______ _______ _____ _____    ______ ____
ROOT
ATOM      1  S   LIG    1       -3.667   3.228  -0.955  0.00  0.00    +2.690 S 
ATOM      2  O   LIG    1       -3.011   2.998  -2.194  0.00  0.00    -0.940 OA
ATOM      3  O   LIG    1       -4.819   4.049  -0.826  0.00  0.00    -0.940 OA
ENDROOT
BRANCH   1   7
ATOM      4  C   LIG    1       -4.811  -0.847   0.663  0.00  0.00    -0.070 A 
ATOM      5  C   LIG    1       -5.573   0.276   0.990  0.00  0.00    +0.070 A 
ATOM      6  C   LIG    1       -5.219   1.514   0.494  0.00  0.00    +0.130 A 
ATOM      7  C   LIG    1       -4.112   1.644  -0.325  0.00  0.00    -0.660 A 
ATOM      8  C   LIG    1       -3.356   0.533  -0.657  0.00  0.00    +0.130 A 
ATOM      9  C   LIG    1       -3.695  -0.709  -0.163  0.00  0.00    +0.020 A 
BRANCH   4  11
ATOM     10  O   LIG    1       -6.064  -2.274   2.025  0.00  0.00    -0.520 OA
ATOM     11  C   LIG    1       -5.185  -2.176   1.192  0.00  0.00    +0.570 C 
ATOM     12  N   LIG    1       -4.551  -3.280   0.748  0.00  0.00    -0.610 N 
ATOM     13  C   LIG    1       -3.407  -3.298  -0.175  0.00  0.00    +0.240 C 
ATOM     14  C   LIG    1       -3.035  -4.776  -0.415  0.00  0.00    +0.030 C 
ATOM     15  C   LIG    1       -4.350  -5.524  -0.068  0.00  0.00    +0.040 C 
ATOM     16  C   LIG    1       -4.894  -4.669   1.104  0.00  0.00    +0.250 C 
ENDBRANCH   4  11
ENDBRANCH   1   7
BRANCH   1  17
ATOM     17  N   LIG    1       -2.526   3.859   0.067  0.00  0.00    -1.050 N 
ATOM     18  H   LIG    1       -1.638   4.063  -0.265  0.00  0.00    +0.430 HD
BRANCH  17  19
ATOM     19  C   LIG    1       -2.844   4.096   1.406  0.00  0.00    +0.140 A 
ATOM     20  C   LIG    1       -4.038   4.723   1.738  0.00  0.00    +0.050 A 
ATOM     21  C   LIG    1       -4.346   4.962   3.063  0.00  0.00    +0.060 A 
ATOM     22  C   LIG    1       -3.472   4.568   4.059  0.00  0.00    +0.060 A 
ATOM     23  C   LIG    1       -2.285   3.938   3.733  0.00  0.00    -0.160 A 
ATOM     24  C   LIG    1       -1.968   3.701   2.410  0.00  0.00    +0.060 A 
BRANCH  23  25
ATOM     25  C   LIG    1       -1.337   3.509   4.823  0.00  0.00    +0.510 C 
ATOM     26  F   LIG    1       -0.106   4.151   4.649  0.00  0.00    -0.170 F 
ATOM     27  F   LIG    1       -1.152   2.123   4.761  0.00  0.00    -0.180 F 
ATOM     28  F   LIG    1       -1.871   3.853   6.069  0.00  0.00    -0.170 F 
ENDBRANCH  23  25
ENDBRANCH  17  19
ENDBRANCH   1  17
TORSDOF 5
