REMARK  Name = ZINCqH0000038KQf.0
REMARK                            x       y       z     vdW  Elec       q    Type
REMARK                         _______ _______ _______ _____ _____    ______ ____
ROOT
ATOM      1  N   LIG    1       -1.372  -0.511   0.012  0.00  0.00    -0.480 N 
ATOM      2  C   LIG    1       -2.127  -0.806   1.130  0.00  0.00    +0.060 A 
ATOM      3  C   LIG    1       -1.901  -0.728   2.497  0.00  0.00    +0.010 A 
ATOM      4  C   LIG    1       -2.896  -1.103   3.376  0.00  0.00    +0.030 A 
ATOM      5  C   LIG    1       -4.120  -1.551   2.903  0.00  0.00    +0.000 A 
ATOM      6  C   LIG    1       -4.363  -1.628   1.560  0.00  0.00    +0.070 A 
ATOM      7  C   LIG    1       -3.370  -1.254   0.651  0.00  0.00    +0.050 A 
ATOM      8  N   LIG    1       -3.308  -1.219  -0.705  0.00  0.00    -0.480 NA
ATOM      9  C   LIG    1       -2.139  -0.784  -1.077  0.00  0.00    +0.300 A 
ENDROOT
BRANCH   9  10
ATOM     10  C   LIG    1       -1.699  -0.609  -2.508  0.00  0.00    +0.070 C 
ATOM     11  C   LIG    1       -2.626   0.387  -3.208  0.00  0.00    +0.030 C 
ATOM     12  C   LIG    1       -2.179   0.564  -4.661  0.00  0.00    +0.010 C 
ATOM     13  C   LIG    1       -2.241  -0.784  -5.382  0.00  0.00    +0.010 C 
ATOM     14  C   LIG    1       -1.315  -1.780  -4.682  0.00  0.00    +0.010 C 
ATOM     15  C   LIG    1       -1.761  -1.957  -3.229  0.00  0.00    +0.030 C 
ENDBRANCH   9  10
BRANCH   1  16
ATOM     16  C   LIG    1        0.002  -0.004   0.002  0.00  0.00    +0.350 C 
BRANCH  16  19
ATOM     17  N   LIG    1        1.139   2.192   0.003  0.00  0.00    -0.630 N 
ATOM     18  H   LIG    1        1.986   1.719  -0.008  0.00  0.00    +0.410 HD
ATOM     19  C   LIG    1       -0.018   1.503   0.010  0.00  0.00    +0.490 C 
ATOM     20  O   LIG    1       -1.077   2.095   0.018  0.00  0.00    -0.510 OA
BRANCH  17  27
ATOM     21  C   LIG    1        3.681   3.993  -0.011  0.00  0.00    +0.150 C 
ATOM     22  C   LIG    1        2.243   4.441   0.004  0.00  0.00    +0.060 A 
ATOM     23  N   LIG    1        1.827   5.682   0.014  0.00  0.00    -0.280 NA
ATOM     24  N   LIG    1        0.426   5.678   0.027  0.00  0.00    -0.370 N 
ATOM     25  C   LIG    1        0.013   4.384   0.019  0.00  0.00    +0.250 A 
ATOM     26  C   LIG    1       -0.439   6.860   0.041  0.00  0.00    +0.370 C 
ATOM     27  C   LIG    1        1.120   3.600   0.011  0.00  0.00    -0.020 A 
ENDBRANCH  17  27
ENDBRANCH  16  19
ENDBRANCH   1  16
TORSDOF 4
