REMARK  Name = ZINCnE000001MahS.0
REMARK                            x       y       z     vdW  Elec       q    Type
REMARK                         _______ _______ _______ _____ _____    ______ ____
ROOT
ATOM      1  C   LIG    1        3.726   6.237  -0.181  0.00  0.00    -0.120 A 
ATOM      2  C   LIG    1        3.799   7.620  -0.270  0.00  0.00    +0.000 A 
ATOM      3  C   LIG    1        2.642   8.376  -0.248  0.00  0.00    -0.010 A 
ATOM      4  C   LIG    1        1.409   7.758  -0.144  0.00  0.00    +0.030 A 
ATOM      5  C   LIG    1        1.326   6.380  -0.061  0.00  0.00    +0.040 A 
ATOM      6  C   LIG    1        2.481   5.613  -0.082  0.00  0.00    +0.180 A 
ENDROOT
BRANCH   6   7
ATOM      7  N   LIG    1        2.399   4.218   0.002  0.00  0.00    -0.660 N 
ATOM      8  H   LIG    1        3.086   3.720   0.471  0.00  0.00    +0.420 HD
ATOM      9  C   LIG    1        1.366   3.568  -0.570  0.00  0.00    +0.570 C 
ATOM     10  O   LIG    1        0.465   4.197  -1.088  0.00  0.00    -0.490 OA
BRANCH   9  11
ATOM     11  C   LIG    1        1.331   2.085  -0.568  0.00  0.00    +0.140 A 
ATOM     12  C   LIG    1        0.275   1.414  -1.153  0.00  0.00    -0.260 A 
ATOM     13  C   LIG    1        0.282  -0.003  -1.128  0.00  0.00    +0.500 A 
ATOM     14  N   LIG    1        1.319  -0.632  -0.534  0.00  0.00    -0.640 NA
ATOM     15  C   LIG    1        2.320   0.081   0.019  0.00  0.00    +0.500 A 
ATOM     16  O   LIG    1       -0.628  -0.639  -1.630  0.00  0.00    -0.580 OA
ATOM     17 BR   LIG    1       -1.141   2.362  -1.973  0.00  0.00    -0.040 Br
ATOM     18  N   LIG    1        2.326   1.385   0.003  0.00  0.00    -0.610 NA
ENDBRANCH   9  11
ENDBRANCH   6   7
BRANCH   1  19
ATOM     19  S   LIG    1        5.199   5.271  -0.200  0.00  0.00    -0.080 S 
BRANCH  19  20
ATOM     20  C   LIG    1        6.506   6.522  -0.338  0.00  0.00    +0.090 C 
BRANCH  20  22
ATOM     21  C   LIG    1        7.987   4.985  -1.637  0.00  0.00    +0.080 C 
ATOM     22  C   LIG    1        7.871   5.832  -0.368  0.00  0.00    +0.150 C 
BRANCH  22  23
ATOM     23  C   LIG    1        8.935   6.850  -0.359  0.00  0.00    +0.210 C 
ATOM     24  N   LIG    1        9.756   7.635  -0.352  0.00  0.00    -0.430 NA
ENDBRANCH  22  23
ENDBRANCH  20  22
ENDBRANCH  19  20
ENDBRANCH   1  19
TORSDOF 6
