REMARK  Name = ZINCrH000004joGU.0
REMARK                            x       y       z     vdW  Elec       q    Type
REMARK                         _______ _______ _______ _____ _____    ______ ____
ROOT
ATOM      1  N   LIG    1       -2.221  -3.925   1.625  0.00  0.00    -0.700 N 
ATOM      2  H   LIG    1       -2.568  -3.947   0.720  0.00  0.00    +0.420 HD
ATOM      3  C   LIG    1       -1.457  -2.892   2.030  0.00  0.00    +0.600 C 
ATOM      4  O   LIG    1       -1.023  -2.865   3.165  0.00  0.00    -0.510 OA
ENDROOT
BRANCH   3   5
ATOM      5  C   LIG    1       -1.148  -1.792   1.096  0.00  0.00    +0.050 C 
ATOM      6  N   LIG    1       -1.547  -1.705  -0.128  0.00  0.00    -0.240 NA
ATOM      7  O   LIG    1       -1.095  -0.531  -0.772  0.00  0.00    -0.170 OA
ATOM      8  C   LIG    1        0.002  -0.004   0.002  0.00  0.00    +0.190 C 
ATOM      9  C   LIG    1       -0.304  -0.570   1.409  0.00  0.00    +0.110 C 
BRANCH   8  10
ATOM     10  C   LIG    1       -0.018   1.503   0.010  0.00  0.00    -0.100 A 
ATOM     11  C   LIG    1       -1.225   2.178   0.020  0.00  0.00    +0.030 A 
ATOM     12  C   LIG    1       -1.244   3.560   0.032  0.00  0.00    +0.010 A 
ATOM     13  C   LIG    1       -0.056   4.267   0.025  0.00  0.00    +0.020 A 
ATOM     14  C   LIG    1        1.151   3.592   0.010  0.00  0.00    +0.010 A 
ATOM     15  C   LIG    1        1.169   2.210   0.003  0.00  0.00    +0.030 A 
ENDBRANCH   8  10
ENDBRANCH   3   5
BRANCH   1  16
ATOM     16  C   LIG    1       -2.528  -5.017   2.553  0.00  0.00    +0.340 C 
ATOM     17  C   LIG    1       -1.391  -6.040   2.532  0.00  0.00    +0.060 C 
BRANCH  16  26
ATOM     18  N   LIG    1       -4.822  -6.030   2.979  0.00  0.00    -0.480 N 
ATOM     19  C   LIG    1       -5.814  -6.614   2.216  0.00  0.00    +0.050 A 
ATOM     20  C   LIG    1       -7.060  -7.156   2.501  0.00  0.00    +0.010 A 
ATOM     21  C   LIG    1       -7.828  -7.674   1.480  0.00  0.00    +0.030 A 
ATOM     22  C   LIG    1       -7.365  -7.657   0.173  0.00  0.00    +0.000 A 
ATOM     23  C   LIG    1       -6.141  -7.128  -0.126  0.00  0.00    +0.070 A 
ATOM     24  C   LIG    1       -5.345  -6.597   0.892  0.00  0.00    +0.050 A 
ATOM     25  N   LIG    1       -4.120  -6.011   0.914  0.00  0.00    -0.480 NA
ATOM     26  C   LIG    1       -3.813  -5.685   2.135  0.00  0.00    +0.270 A 
BRANCH  18  28
ATOM     27  C   LIG    1       -5.469  -4.456   4.736  0.00  0.00    +0.030 C 
ATOM     28  C   LIG    1       -4.851  -5.821   4.429  0.00  0.00    +0.300 C 
ENDBRANCH  18  28
ENDBRANCH  16  26
ENDBRANCH   1  16
TORSDOF 5
