REMARK  Name = ZINCvU0000000DS2.0
REMARK                            x       y       z     vdW  Elec       q    Type
REMARK                         _______ _______ _______ _____ _____    ______ ____
ROOT
ATOM      1  C   LIG    1        5.261  12.352  -6.981  0.00  0.00    +0.180 C 
ATOM      2  C   LIG    1        4.010  12.222  -6.152  0.00  0.00    +0.150 A 
ATOM      3  N   LIG    1        3.076  13.119  -6.043  0.00  0.00    -0.250 NA
ATOM      4  N   LIG    1        2.074  12.646  -5.190  0.00  0.00    -0.300 N 
ATOM      5  C   LIG    1        2.432  11.394  -4.767  0.00  0.00    +0.020 A 
ATOM      6  S   LIG    1        1.907  10.052  -3.759  0.00  0.00    +0.260 S 
ATOM      7  C   LIG    1        3.344   9.127  -4.162  0.00  0.00    -0.270 A 
ATOM      8  C   LIG    1        4.132   9.827  -4.994  0.00  0.00    +0.200 A 
ATOM      9  C   LIG    1        3.650  11.091  -5.354  0.00  0.00    -0.220 A 
ENDROOT
BRANCH   4  10
ATOM     10  C   LIG    1        0.907  13.334  -4.832  0.00  0.00    +0.160 A 
ATOM     11  C   LIG    1       -0.279  12.638  -4.639  0.00  0.00    +0.020 A 
ATOM     12  C   LIG    1       -1.426  13.318  -4.280  0.00  0.00    +0.070 A 
ATOM     13  C   LIG    1       -1.398  14.692  -4.124  0.00  0.00    -0.040 A 
ATOM     14  C   LIG    1       -0.218  15.389  -4.320  0.00  0.00    +0.060 A 
ATOM     15 CL   LIG    1       -2.844  15.544  -3.680  0.00  0.00    -0.050 Cl
ATOM     16  C   LIG    1        0.934  14.713  -4.673  0.00  0.00    +0.060 A 
ENDBRANCH   4  10
BRANCH   7  17
ATOM     17  C   LIG    1        3.643   7.786  -3.657  0.00  0.00    +0.550 C 
ATOM     18  O   LIG    1        4.668   7.225  -3.994  0.00  0.00    -0.490 OA
BRANCH  17  19
ATOM     19  O   LIG    1        2.783   7.173  -2.819  0.00  0.00    -0.330 OA
BRANCH  19  20
ATOM     20  C   LIG    1        3.144   5.845  -2.358  0.00  0.00    +0.270 C 
BRANCH  20  21
ATOM     21  C   LIG    1        2.071   5.323  -1.437  0.00  0.00    +0.520 C 
ATOM     22  N   LIG    1        2.193   4.100  -0.885  0.00  0.00    -0.720 N 
ATOM     23  H   LIG    1        2.972   3.555  -1.080  0.00  0.00    +0.400 HD
ATOM     24  O   LIG    1        1.098   6.004  -1.193  0.00  0.00    -0.510 OA
BRANCH  22  25
ATOM     25  C   LIG    1        1.151   3.592   0.010  0.00  0.00    +0.290 C 
ATOM     26  C   LIG    1        1.407   4.098   1.431  0.00  0.00    +0.040 C 
BRANCH  25  27
ATOM     27  C   LIG    1        1.171   2.086   0.002  0.00  0.00    -0.100 A 
ATOM     28  C   LIG    1       -0.017   1.378   0.010  0.00  0.00    +0.020 A 
ATOM     29  C   LIG    1        0.002  -0.004   0.002  0.00  0.00    +0.020 A 
ATOM     30  C   LIG    1        1.208  -0.679  -0.013  0.00  0.00    +0.000 A 
ATOM     31  C   LIG    1        2.396   0.029  -0.021  0.00  0.00    +0.010 A 
ATOM     32  C   LIG    1        2.377   1.411  -0.015  0.00  0.00    +0.000 A 
ENDBRANCH  25  27
ENDBRANCH  22  25
ENDBRANCH  20  21
ENDBRANCH  19  20
ENDBRANCH  17  19
ENDBRANCH   7  17
TORSDOF 7
