REMARK  Name = ZINCpk00000l5Hew.0
REMARK                            x       y       z     vdW  Elec       q    Type
REMARK                         _______ _______ _______ _____ _____    ______ ____
ROOT
ATOM      1  O   LIG    1       -2.227  -3.563   0.006  0.00  0.00    -0.510 OA
ATOM      2  C   LIG    1       -1.013  -3.503  -0.006  0.00  0.00    +0.600 C 
ATOM      3  N   LIG    1       -0.282  -4.635  -0.019  0.00  0.00    -0.700 N 
ATOM      4  H   LIG    1        0.686  -4.587  -0.028  0.00  0.00    +0.420 HD
ENDROOT
BRANCH   2   5
ATOM      5  C   LIG    1       -0.338  -2.186  -0.006  0.00  0.00    +0.240 A 
ATOM      6  N   LIG    1        0.958  -2.005  -0.017  0.00  0.00    -0.450 NA
ATOM      7  C   LIG    1        1.234  -0.689  -0.013  0.00  0.00    +0.070 A 
ATOM      8  C   LIG    1        2.428   0.045  -0.021  0.00  0.00    +0.050 A 
ATOM      9  C   LIG    1        2.387   1.411  -0.013  0.00  0.00    +0.100 A 
ATOM     10  C   LIG    1        1.170   2.085   0.002  0.00  0.00    +0.030 A 
ATOM     11  C   LIG    1       -0.017   1.385   0.010  0.00  0.00    +0.060 A 
ATOM     12  F   LIG    1        3.540   2.114  -0.021  0.00  0.00    -0.130 F 
ATOM     13  C   LIG    1        0.002  -0.004   0.002  0.00  0.00    +0.050 A 
ATOM     14  N   LIG    1       -0.975  -0.974   0.007  0.00  0.00    -0.560 N 
ATOM     15  H   LIG    1       -1.934  -0.826   0.017  0.00  0.00    +0.440 HD
ENDBRANCH   2   5
BRANCH   3  16
ATOM     16  C   LIG    1       -0.951  -5.939  -0.019  0.00  0.00    +0.260 C 
ATOM     17  C   LIG    1       -0.018  -7.011   0.579  0.00  0.00    +0.060 C 
ATOM     18  C   LIG    1        0.656  -7.660  -0.656  0.00  0.00    -0.020 C 
ATOM     19  C   LIG    1       -0.494  -7.698  -1.692  0.00  0.00    +0.000 C 
ATOM     20  C   LIG    1       -1.254  -6.375  -1.463  0.00  0.00    +0.150 C 
BRANCH  20  21
ATOM     21  O   LIG    1       -2.659  -6.582  -1.627  0.00  0.00    -0.560 OA
ATOM     22  H   LIG    1       -2.914  -6.860  -2.517  0.00  0.00    +0.380 HD
ENDBRANCH  20  21
BRANCH  18  23
ATOM     23  C   LIG    1        1.139  -9.074  -0.329  0.00  0.00    +0.310 C 
BRANCH  23  24
ATOM     24  N   LIG    1        1.875  -9.615  -1.475  0.00  0.00    -0.460 N 
ATOM     25  C   LIG    1        3.220  -9.502  -1.703  0.00  0.00    +0.110 A 
ATOM     26  C   LIG    1        3.474 -10.140  -2.862  0.00  0.00    +0.140 A 
ATOM     27  N   LIG    1        2.315 -10.630  -3.328  0.00  0.00    -0.500 NA
ATOM     28  C   LIG    1        1.355 -10.325  -2.499  0.00  0.00    +0.380 A 
ENDBRANCH  23  24
ENDBRANCH  18  23
ENDBRANCH   3  16
TORSDOF 5
