REMARK  Name = ZINCpk00000l5Hew.1
REMARK                            x       y       z     vdW  Elec       q    Type
REMARK                         _______ _______ _______ _____ _____    ______ ____
ROOT
ATOM      1  O   LIG    1        0.002  -0.004   0.002  0.00  0.00    -0.510 OA
ATOM      2  C   LIG    1       -0.014   1.211   0.009  0.00  0.00    +0.600 C 
ATOM      3  N   LIG    1        1.143   1.901   0.001  0.00  0.00    -0.700 N 
ATOM      4  H   LIG    1        1.130   2.871   0.007  0.00  0.00    +0.420 HD
ENDROOT
BRANCH   2   5
ATOM      5  C   LIG    1       -1.305   1.933   0.019  0.00  0.00    +0.240 A 
ATOM      6  N   LIG    1       -1.440   3.235   0.026  0.00  0.00    -0.440 NA
ATOM      7  C   LIG    1       -2.745   3.558   0.034  0.00  0.00    +0.030 A 
ATOM      8  C   LIG    1       -3.435   4.778   0.044  0.00  0.00    +0.130 A 
ATOM      9  C   LIG    1       -4.799   4.788   0.051  0.00  0.00    -0.010 A 
ATOM     10  C   LIG    1       -5.519   3.597   0.048  0.00  0.00    +0.130 A 
ATOM     11  C   LIG    1       -4.862   2.383   0.038  0.00  0.00    -0.010 A 
ATOM     12  F   LIG    1       -6.869   3.629   0.054  0.00  0.00    -0.130 F 
ATOM     13  C   LIG    1       -3.474   2.351   0.032  0.00  0.00    +0.090 A 
ATOM     14  N   LIG    1       -2.541   1.340   0.016  0.00  0.00    -0.560 N 
ATOM     15  H   LIG    1       -2.723   0.387   0.007  0.00  0.00    +0.440 HD
ENDBRANCH   2   5
BRANCH   3  16
ATOM     16  C   LIG    1        2.422   1.186  -0.015  0.00  0.00    +0.260 C 
ATOM     17  C   LIG    1        3.530   2.071   0.592  0.00  0.00    +0.060 C 
ATOM     18  C   LIG    1        4.197   2.739  -0.636  0.00  0.00    -0.020 C 
ATOM     19  C   LIG    1        4.190   1.603  -1.689  0.00  0.00    +0.000 C 
ATOM     20  C   LIG    1        2.841   0.889  -1.465  0.00  0.00    +0.150 C 
BRANCH  20  21
ATOM     21  O   LIG    1        2.997  -0.520  -1.651  0.00  0.00    -0.560 OA
ATOM     22  H   LIG    1        3.261  -0.772  -2.546  0.00  0.00    +0.380 HD
ENDBRANCH  20  21
BRANCH  18  23
ATOM     23  C   LIG    1        5.630   3.166  -0.309  0.00  0.00    +0.310 C 
BRANCH  23  24
ATOM     24  N   LIG    1        6.192   3.899  -1.446  0.00  0.00    -0.460 N 
ATOM     25  C   LIG    1        6.126   5.250  -1.654  0.00  0.00    +0.110 A 
ATOM     26  C   LIG    1        6.768   5.498  -2.812  0.00  0.00    +0.140 A 
ATOM     27  N   LIG    1        7.214   4.330  -3.297  0.00  0.00    -0.500 NA
ATOM     28  C   LIG    1        6.878   3.368  -2.481  0.00  0.00    +0.380 A 
ENDBRANCH  23  24
ENDBRANCH  18  23
ENDBRANCH   3  16
TORSDOF 5
