REMARK  Name = ZINCrH00000ktMeW.0
REMARK                            x       y       z     vdW  Elec       q    Type
REMARK                         _______ _______ _______ _____ _____    ______ ____
ROOT
ATOM      1  C   LIG    1        6.530  -5.513  -0.088  0.00  0.00    +0.270 C 
ENDROOT
BRANCH   1   2
ATOM      2  N   LIG    1        5.086  -5.270  -0.073  0.00  0.00    -0.730 N 
ATOM      3  H   LIG    1        4.468  -6.018  -0.070  0.00  0.00    +0.400 HD
ATOM      4  C   LIG    1        4.615  -4.007  -0.062  0.00  0.00    +0.520 C 
ATOM      5  O   LIG    1        5.387  -3.072  -0.065  0.00  0.00    -0.510 OA
BRANCH   4   6
ATOM      6  C   LIG    1        3.129  -3.757  -0.047  0.00  0.00    +0.250 C 
BRANCH   6   7
ATOM      7  O   LIG    1        2.882  -2.350  -0.037  0.00  0.00    -0.330 OA
BRANCH   7   8
ATOM      8  C   LIG    1        1.593  -1.954  -0.023  0.00  0.00    +0.550 C 
ATOM      9  O   LIG    1        0.702  -2.782  -0.018  0.00  0.00    -0.490 OA
BRANCH   8  10
ATOM     10  C   LIG    1        1.266  -0.528  -0.013  0.00  0.00    -0.270 A 
ATOM     11  C   LIG    1        0.002  -0.004   0.002  0.00  0.00    +0.140 A 
ATOM     12  C   LIG    1       -0.017   1.369   0.010  0.00  0.00    +0.020 A 
ATOM     13  C   LIG    1        1.190   1.954   0.001  0.00  0.00    -0.170 A 
ATOM     14 CL   LIG    1        1.451   3.670   0.007  0.00  0.00    +0.000 Cl
ATOM     15  S   LIG    1        2.433   0.786  -0.017  0.00  0.00    +0.320 S 
ENDBRANCH   8  10
ENDBRANCH   7   8
ENDBRANCH   6   7
ENDBRANCH   4   6
ENDBRANCH   1   2
BRANCH   1  16
ATOM     16  C   LIG    1        6.794  -7.020  -0.098  0.00  0.00    +0.070 C 
BRANCH  16  20
ATOM     17  C   LIG    1       11.011  -7.730  -0.149  0.00  0.00    +0.100 A 
ATOM     18  C   LIG    1       10.312  -7.609  -1.339  0.00  0.00    -0.030 A 
ATOM     19  C   LIG    1        8.947  -7.384  -1.319  0.00  0.00    +0.020 A 
ATOM     20  C   LIG    1        8.280  -7.270  -0.114  0.00  0.00    -0.080 A 
ATOM     21  C   LIG    1        8.972  -7.390   1.077  0.00  0.00    -0.030 A 
ATOM     22  C   LIG    1       10.338  -7.620   1.065  0.00  0.00    +0.110 A 
BRANCH  17  23
ATOM     23  O   LIG    1       12.352  -7.957  -0.167  0.00  0.00    -0.300 OA
BRANCH  23  25
ATOM     24  C   LIG    1       14.474  -8.311  -1.267  0.00  0.00    +0.070 C 
ATOM     25  C   LIG    1       12.976  -8.058  -1.448  0.00  0.00    +0.170 C 
ENDBRANCH  23  25
ENDBRANCH  17  23
BRANCH  22  26
ATOM     26  O   LIG    1       11.020  -7.738   2.235  0.00  0.00    -0.300 OA
BRANCH  26  27
ATOM     27  C   LIG    1       10.264  -7.614   3.442  0.00  0.00    +0.170 C 
ATOM     28  C   LIG    1       11.195  -7.774   4.645  0.00  0.00    +0.070 C 
ENDBRANCH  26  27
ENDBRANCH  22  26
ENDBRANCH  16  20
ENDBRANCH   1  16
TORSDOF 11
