REMARK  Name = ZINCqH0000003JUw.0
REMARK                            x       y       z     vdW  Elec       q    Type
REMARK                         _______ _______ _______ _____ _____    ______ ____
ROOT
ATOM      1  N   LIG    1        2.432   5.668   0.054  0.00  0.00    -0.610 N 
ATOM      2  C   LIG    1        2.639   4.339  -0.034  0.00  0.00    +0.560 C 
ATOM      3  O   LIG    1        3.767   3.906  -0.167  0.00  0.00    -0.530 OA
ATOM      4  C   LIG    1        1.083   6.186   0.294  0.00  0.00    +0.280 C 
ENDROOT
BRANCH   2   5
ATOM      5  C   LIG    1        1.494   3.409   0.030  0.00  0.00    -0.150 A 
ATOM      6  C   LIG    1        1.536   2.197  -0.665  0.00  0.00    +0.100 A 
ATOM      7  C   LIG    1        0.467   1.332  -0.603  0.00  0.00    -0.020 A 
ATOM      8  C   LIG    1       -0.656   1.665   0.147  0.00  0.00    +0.170 A 
ATOM      9  C   LIG    1       -0.700   2.868   0.845  0.00  0.00    +0.010 A 
ATOM     10  C   LIG    1        0.366   3.738   0.787  0.00  0.00    +0.070 A 
BRANCH   8  11
ATOM     11  N   LIG    1       -1.740   0.789   0.203  0.00  0.00    -0.670 N 
ATOM     12  H   LIG    1       -1.591  -0.169   0.173  0.00  0.00    +0.420 HD
ATOM     13  C   LIG    1       -2.994   1.274   0.300  0.00  0.00    +0.540 C 
ATOM     14  O   LIG    1       -3.188   2.469   0.243  0.00  0.00    -0.510 OA
BRANCH  13  15
ATOM     15  C   LIG    1       -4.155   0.329   0.479  0.00  0.00    -0.070 C 
ATOM     16  C   LIG    1       -5.138   0.190  -0.685  0.00  0.00    +0.060 C 
ATOM     17  C   LIG    1       -5.553   0.941   0.582  0.00  0.00    +0.080 C 
ENDBRANCH  13  15
ENDBRANCH   8  11
ENDBRANCH   2   5
BRANCH   1  18
ATOM     18  C   LIG    1        3.558   6.595  -0.091  0.00  0.00    +0.340 C 
BRANCH  18  22
ATOM     19  C   LIG    1        4.008   7.659  -4.205  0.00  0.00    +0.140 A 
ATOM     20  C   LIG    1        3.190   8.415  -3.377  0.00  0.00    -0.030 A 
ATOM     21  C   LIG    1        3.046   8.068  -2.048  0.00  0.00    +0.060 A 
ATOM     22  C   LIG    1        3.716   6.970  -1.542  0.00  0.00    -0.150 A 
ATOM     23  C   LIG    1        4.536   6.218  -2.363  0.00  0.00    +0.080 A 
ATOM     24  C   LIG    1        4.679   6.557  -3.695  0.00  0.00    -0.080 A 
BRANCH  19  25
ATOM     25  O   LIG    1        4.151   7.998  -5.513  0.00  0.00    -0.320 OA
BRANCH  25  27
ATOM     26  C   LIG    1        5.045   7.708  -7.740  0.00  0.00    +0.070 C 
ATOM     27  C   LIG    1        5.009   7.175  -6.306  0.00  0.00    +0.170 C 
ENDBRANCH  25  27
ENDBRANCH  19  25
ENDBRANCH  18  22
ENDBRANCH   1  18
TORSDOF 7
