REMARK  Name = ZINCqH00000073fO.0
REMARK                            x       y       z     vdW  Elec       q    Type
REMARK                         _______ _______ _______ _____ _____    ______ ____
ROOT
ATOM      1  C   LIG    1       -3.568   2.382  -5.286  0.00  0.00    +0.190 A 
ATOM      2  C   LIG    1       -2.685   3.180  -4.572  0.00  0.00    -0.080 A 
ATOM      3  C   LIG    1       -2.003   2.665  -3.492  0.00  0.00    +0.100 A 
ATOM      4  C   LIG    1       -2.188   1.331  -3.116  0.00  0.00    -0.180 A 
ATOM      5  C   LIG    1       -3.074   0.523  -3.828  0.00  0.00    +0.130 A 
ATOM      6  C   LIG    1       -3.765   1.046  -4.913  0.00  0.00    -0.090 A 
ENDROOT
BRANCH   4   7
ATOM      7  C   LIG    1       -1.450   0.781  -1.962  0.00  0.00    +0.580 C 
ATOM      8  N   LIG    1       -1.407   1.465  -0.801  0.00  0.00    -0.610 N 
ATOM      9  C   LIG    1       -0.769   0.890   0.393  0.00  0.00    +0.300 C 
ATOM     10  C   LIG    1       -1.825   0.685   1.483  0.00  0.00    +0.270 C 
ATOM     11  N   LIG    1       -2.651   1.893   1.590  0.00  0.00    -0.440 N 
ATOM     12  C   LIG    1       -3.444   2.252   2.636  0.00  0.00    +0.150 A 
ATOM     13  C   LIG    1       -4.041   3.424   2.333  0.00  0.00    -0.060 A 
ATOM     14  C   LIG    1       -3.596   3.805   1.049  0.00  0.00    -0.040 A 
ATOM     15  C   LIG    1       -2.748   2.856   0.623  0.00  0.00    -0.000 A 
ATOM     16  C   LIG    1       -2.001   2.810  -0.690  0.00  0.00    +0.320 C 
ATOM     17  C   LIG    1       -0.898   3.871  -0.700  0.00  0.00    +0.060 C 
ATOM     18  O   LIG    1       -0.881  -0.289  -2.058  0.00  0.00    -0.530 OA
ENDBRANCH   4   7
BRANCH   6  19
ATOM     19  C   LIG    1       -4.708   0.193  -5.675  0.00  0.00    +0.170 A 
ATOM     20  C   LIG    1       -4.899  -1.135  -5.297  0.00  0.00    -0.030 A 
ATOM     21  C   LIG    1       -5.783  -1.919  -6.018  0.00  0.00    +0.070 A 
ATOM     22  C   LIG    1       -6.449  -1.349  -7.093  0.00  0.00    -0.040 A 
ATOM     23  C   LIG    1       -6.213  -0.024  -7.412  0.00  0.00    +0.260 A 
ATOM     24  N   LIG    1       -5.369   0.702  -6.707  0.00  0.00    -0.450 NA
ENDBRANCH   6  19
BRANCH   1  26
ATOM     25  C   LIG    1       -3.994   4.266  -6.670  0.00  0.00    +0.240 C 
ATOM     26  O   LIG    1       -4.242   2.896  -6.345  0.00  0.00    -0.270 OA
ENDBRANCH   1  26
TORSDOF 3
