REMARK  Name = ZINCqH00000373fo.0
REMARK                            x       y       z     vdW  Elec       q    Type
REMARK                         _______ _______ _______ _____ _____    ______ ____
ROOT
ATOM      1  C   LIG    1       -2.554  -2.059   1.295  0.00  0.00    +0.500 C 
ATOM      2  N   LIG    1       -3.192  -3.235   1.460  0.00  0.00    -0.710 N 
ATOM      3  H   LIG    1       -3.120  -3.925   0.782  0.00  0.00    +0.410 HD
ATOM      4  O   LIG    1       -2.645  -1.196   2.143  0.00  0.00    -0.520 OA
ENDROOT
BRANCH   2   5
ATOM      5  C   LIG    1       -3.994  -3.471   2.663  0.00  0.00    +0.300 C 
ATOM      6  C   LIG    1       -3.095  -3.990   3.785  0.00  0.00    +0.030 C 
ATOM      7  C   LIG    1       -2.019  -4.914   3.229  0.00  0.00    +0.000 C 
ATOM      8  C   LIG    1       -2.565  -6.214   2.675  0.00  0.00    +0.230 C 
ATOM      9  O   LIG    1       -3.387  -5.976   1.528  0.00  0.00    -0.320 OA
ATOM     10  C   LIG    1       -4.697  -5.706   1.787  0.00  0.00    +0.070 A 
ATOM     11  C   LIG    1       -5.670  -6.654   1.489  0.00  0.00    +0.090 A 
ATOM     12  C   LIG    1       -6.994  -6.394   1.796  0.00  0.00    +0.000 A 
ATOM     13  C   LIG    1       -7.348  -5.198   2.394  0.00  0.00    +0.050 A 
ATOM     14  C   LIG    1       -6.379  -4.253   2.681  0.00  0.00    +0.040 A 
ATOM     15  F   LIG    1       -5.324  -7.822   0.905  0.00  0.00    -0.130 F 
ATOM     16  C   LIG    1       -5.059  -4.510   2.369  0.00  0.00    -0.100 A 
ENDBRANCH   2   5
BRANCH   1  18
ATOM     17  C   LIG    1       -2.622  -1.930  -1.180  0.00  0.00    +0.070 C 
ATOM     18  C   LIG    1       -1.730  -1.816   0.058  0.00  0.00    +0.240 C 
BRANCH  18  19
ATOM     19  N   LIG    1       -1.144  -0.475   0.116  0.00  0.00    -0.480 N 
ATOM     20  C   LIG    1       -1.826   0.700   0.193  0.00  0.00    +0.500 A 
ATOM     21  N   LIG    1       -0.993   1.699   0.232  0.00  0.00    -0.500 NA
ATOM     22  C   LIG    1        0.281   1.233   0.175  0.00  0.00    +0.050 A 
ATOM     23  C   LIG    1        1.534   1.852   0.181  0.00  0.00    +0.070 A 
ATOM     24  C   LIG    1        2.668   1.093   0.116  0.00  0.00    +0.000 A 
ATOM     25  C   LIG    1        2.590  -0.291   0.045  0.00  0.00    +0.030 A 
ATOM     26  C   LIG    1        1.365  -0.923   0.038  0.00  0.00    +0.010 A 
ATOM     27  C   LIG    1        0.202  -0.168   0.103  0.00  0.00    +0.050 A 
ENDBRANCH  18  19
ENDBRANCH   1  18
TORSDOF 3
