REMARK  Name = ZINCpe000000V8BT.0
REMARK                            x       y       z     vdW  Elec       q    Type
REMARK                         _______ _______ _______ _____ _____    ______ ____
ROOT
ATOM      1  N   LIG    1       -2.432   1.041   0.054  0.00  0.00    -0.740 N 
ATOM      2  H   LIG    1       -2.421   0.071   0.050  0.00  0.00    +0.410 HD
ENDROOT
BRANCH   1   6
ATOM      3  C   LIG    1        1.151   3.163   0.057  0.00  0.00    -0.140 A 
ATOM      4  C   LIG    1        1.168   1.780   0.051  0.00  0.00    +0.060 A 
ATOM      5  C   LIG    1       -0.018   1.073   0.054  0.00  0.00    -0.070 A 
ATOM      6  C   LIG    1       -1.230   1.752   0.057  0.00  0.00    +0.220 A 
ATOM      7  C   LIG    1       -1.244   3.142   0.069  0.00  0.00    -0.080 A 
ATOM      8  C   LIG    1       -0.054   3.842   0.066  0.00  0.00    +0.060 A 
BRANCH   3   9
ATOM      9  C   LIG    1        2.447   3.931   0.054  0.00  0.00    +0.100 C 
BRANCH   9  10
ATOM     10  C   LIG    1        2.879   4.197  -1.390  0.00  0.00    +0.110 C 
BRANCH  10  11
ATOM     11  C   LIG    1        4.175   4.965  -1.393  0.00  0.00    +0.460 C 
ATOM     12  O   LIG    1        4.700   5.268  -0.348  0.00  0.00    -0.510 OA
BRANCH  11  14
ATOM     13  C   LIG    1        5.995   6.050  -2.484  0.00  0.00    +0.250 C 
ATOM     14  O   LIG    1        4.747   5.312  -2.557  0.00  0.00    -0.360 OA
ENDBRANCH  11  14
ENDBRANCH  10  11
ENDBRANCH   9  10
ENDBRANCH   3   9
ENDBRANCH   1   6
BRANCH   1  15
ATOM     15  C   LIG    1       -3.709   1.759   0.058  0.00  0.00    +0.290 C 
BRANCH  15  16
ATOM     16  C   LIG    1       -4.843   0.767   0.053  0.00  0.00    +0.510 C 
ATOM     17  N   LIG    1       -6.119   1.202   0.056  0.00  0.00    -0.610 N 
ATOM     18  C   LIG    1       -6.418   2.641   0.068  0.00  0.00    +0.270 C 
ATOM     19  C   LIG    1       -7.330   2.957  -1.130  0.00  0.00    +0.280 C 
ATOM     20  N   LIG    1       -8.446   2.001  -1.134  0.00  0.00    -0.620 N 
ATOM     21  C   LIG    1       -8.147   0.562  -1.140  0.00  0.00    +0.280 C 
ATOM     22  C   LIG    1       -9.722   2.436  -1.131  0.00  0.00    +0.510 C 
ATOM     23  O   LIG    1      -10.634   1.642  -1.228  0.00  0.00    -0.540 OA
ATOM     24  C   LIG    1      -10.016   3.909  -1.007  0.00  0.00    +0.100 C 
ATOM     25  C   LIG    1       -7.235   0.246   0.052  0.00  0.00    +0.290 C 
ATOM     26  O   LIG    1       -4.608  -0.423   0.049  0.00  0.00    -0.530 OA
ENDBRANCH  15  16
ENDBRANCH   1  15
TORSDOF 7
