REMARK  Name = ZINCrD00000l769S.0
REMARK                            x       y       z     vdW  Elec       q    Type
REMARK                         _______ _______ _______ _____ _____    ______ ____
ROOT
ATOM      1  C   LIG    1        3.527   0.654  -0.028  0.00  0.00    +0.430 C 
ATOM      2  O   LIG    1        4.156   1.692  -0.028  0.00  0.00    -0.420 OA
ENDROOT
BRANCH   1   7
ATOM      3  C   LIG    1       -0.017   1.380   0.010  0.00  0.00    -0.220 A 
ATOM      4  C   LIG    1        0.002  -0.004   0.002  0.00  0.00    +0.140 A 
ATOM      5  N   LIG    1        1.278  -0.416  -0.012  0.00  0.00    -0.520 N 
ATOM      6  H   LIG    1        1.569  -1.342  -0.020  0.00  0.00    +0.430 HD
ATOM      7  C   LIG    1        2.112   0.683  -0.014  0.00  0.00    -0.100 A 
ATOM      8  C   LIG    1       -1.210  -0.899   0.009  0.00  0.00    +0.150 C 
ATOM      9  C   LIG    1        1.326   1.815  -0.001  0.00  0.00    +0.000 A 
ATOM     10  C   LIG    1        1.807   3.243   0.002  0.00  0.00    +0.140 C 
BRANCH   3  11
ATOM     11  C   LIG    1       -1.214   2.238   0.020  0.00  0.00    +0.550 C 
ATOM     12  O   LIG    1       -1.702   2.587   1.077  0.00  0.00    -0.490 OA
BRANCH  11  14
ATOM     13  C   LIG    1       -2.946   3.481  -1.056  0.00  0.00    +0.260 C 
ATOM     14  O   LIG    1       -1.768   2.636  -1.142  0.00  0.00    -0.350 OA
ENDBRANCH  11  14
ENDBRANCH   3  11
ENDBRANCH   1   7
BRANCH   1  15
ATOM     15  C   LIG    1        4.253  -0.667  -0.043  0.00  0.00    +0.150 C 
ATOM     16  C   LIG    1        4.266  -1.226  -1.467  0.00  0.00    +0.070 C 
BRANCH  15  17
ATOM     17  O   LIG    1        5.618  -0.473   0.414  0.00  0.00    -0.330 OA
BRANCH  17  18
ATOM     18  C   LIG    1        6.202  -1.506   1.042  0.00  0.00    +0.470 C 
ATOM     19  O   LIG    1        5.593  -2.536   1.206  0.00  0.00    -0.480 OA
BRANCH  18  20
ATOM     20  C   LIG    1        7.617  -1.379   1.544  0.00  0.00    +0.290 C 
BRANCH  20  21
ATOM     21  O   LIG    1        8.011  -2.600   2.173  0.00  0.00    -0.290 OA
BRANCH  21  22
ATOM     22  C   LIG    1        9.269  -2.654   2.683  0.00  0.00    +0.130 A 
ATOM     23  C   LIG    1       10.110  -1.555   2.577  0.00  0.00    -0.050 A 
ATOM     24  C   LIG    1       11.386  -1.609   3.103  0.00  0.00    +0.070 A 
ATOM     25  C   LIG    1       11.831  -2.761   3.723  0.00  0.00    +0.020 A 
ATOM     26  C   LIG    1       10.998  -3.861   3.826  0.00  0.00    -0.050 A 
ATOM     27 BR   LIG    1       11.610  -5.435   4.676  0.00  0.00    -0.040 Br
ATOM     28  C   LIG    1        9.717  -3.809   3.307  0.00  0.00    +0.020 A 
ENDBRANCH  21  22
ENDBRANCH  20  21
ENDBRANCH  18  20
ENDBRANCH  17  18
ENDBRANCH  15  17
ENDBRANCH   1  15
TORSDOF 9
