REMARK  Name = ZINCrD0000071L1Q.0
REMARK                            x       y       z     vdW  Elec       q    Type
REMARK                         _______ _______ _______ _____ _____    ______ ____
ROOT
ATOM      1  N   LIG    1        5.978   2.042  -0.018  0.00  0.00    -0.500 NA
ENDROOT
BRANCH   1   3
ATOM      2  C   LIG    1        6.958   1.532   2.168  0.00  0.00    -0.020 C 
ATOM      3  C   LIG    1        6.387   2.628   1.266  0.00  0.00    +0.230 C 
ENDBRANCH   1   3
BRANCH   1   4
ATOM      4  C   LIG    1        4.879   1.084   0.167  0.00  0.00    +0.210 C 
BRANCH   4   5
ATOM      5  C   LIG    1        3.648   1.816   0.637  0.00  0.00    +0.510 C 
ATOM      6  N   LIG    1        2.509   1.135   0.874  0.00  0.00    -0.680 N 
ATOM      7  H   LIG    1        2.502   0.167   0.815  0.00  0.00    +0.410 HD
ATOM      8  O   LIG    1        3.682   3.017   0.801  0.00  0.00    -0.490 OA
BRANCH   6   9
ATOM      9  C   LIG    1        1.338   1.825   1.206  0.00  0.00    +0.170 A 
ATOM     10  C   LIG    1        0.419   1.257   2.078  0.00  0.00    -0.020 A 
ATOM     11  C   LIG    1       -0.739   1.937   2.400  0.00  0.00    +0.070 A 
ATOM     12  C   LIG    1       -0.980   3.189   1.864  0.00  0.00    -0.130 A 
ATOM     13  C   LIG    1       -0.065   3.760   0.994  0.00  0.00    +0.120 A 
ATOM     14  F   LIG    1       -0.306   4.980   0.467  0.00  0.00    -0.130 F 
ATOM     15  C   LIG    1       -2.241   3.930   2.223  0.00  0.00    +0.100 C 
ATOM     16  C   LIG    1        1.093   3.080   0.663  0.00  0.00    +0.000 A 
ENDBRANCH   6   9
ENDBRANCH   4   5
ENDBRANCH   1   4
BRANCH   1  17
ATOM     17  C   LIG    1        7.118   1.411  -0.696  0.00  0.00    +0.210 C 
BRANCH  17  18
ATOM     18  C   LIG    1        8.044   2.479  -1.219  0.00  0.00    +0.510 C 
ATOM     19  N   LIG    1        9.223   2.135  -1.775  0.00  0.00    -0.730 N 
ATOM     20  H   LIG    1        9.475   1.200  -1.839  0.00  0.00    +0.400 HD
ATOM     21  O   LIG    1        7.730   3.647  -1.139  0.00  0.00    -0.510 OA
BRANCH  19  22
ATOM     22  C   LIG    1       10.124   3.172  -2.283  0.00  0.00    +0.320 C 
BRANCH  22  23
ATOM     23  C   LIG    1       11.363   2.528  -2.849  0.00  0.00    -0.110 A 
ATOM     24  C   LIG    1       12.460   2.307  -2.037  0.00  0.00    +0.040 A 
ATOM     25  C   LIG    1       13.594   1.712  -2.555  0.00  0.00    +0.030 A 
ATOM     26  C   LIG    1       13.637   1.348  -3.889  0.00  0.00    -0.030 A 
ATOM     27  C   LIG    1       12.541   1.575  -4.703  0.00  0.00    +0.030 A 
ATOM     28 CL   LIG    1       15.065   0.608  -4.542  0.00  0.00    -0.060 Cl
ATOM     29  C   LIG    1       11.405   2.165  -4.182  0.00  0.00    +0.050 A 
ENDBRANCH  22  23
ENDBRANCH  19  22
ENDBRANCH  17  18
ENDBRANCH   1  17
TORSDOF 8
