REMARK  Name = ZINCvU0000000Igd.0
REMARK                            x       y       z     vdW  Elec       q    Type
REMARK                         _______ _______ _______ _____ _____    ______ ____
ROOT
ATOM      1  C   LIG    1       -3.767   3.461  -0.628  0.00  0.00    -0.240 A 
ATOM      2  C   LIG    1       -4.706   4.437  -0.334  0.00  0.00    +0.350 A 
ATOM      3  N   LIG    1       -4.108   5.364   0.435  0.00  0.00    -0.310 N 
ATOM      4  N   LIG    1       -2.776   5.004   0.658  0.00  0.00    -0.270 NA
ATOM      5  C   LIG    1       -2.526   3.869   0.045  0.00  0.00    +0.170 A 
ENDROOT
BRANCH   1  12
ATOM      6  O   LIG    1       -4.877  -0.054  -3.203  0.00  0.00    -0.430 OA
ATOM      7  C   LIG    1       -5.583   0.875  -2.857  0.00  0.00    +0.490 C 
ATOM      8  O   LIG    1       -6.883   1.075  -3.165  0.00  0.00    -0.290 OA
ATOM      9  C   LIG    1       -7.290   2.223  -2.589  0.00  0.00    +0.330 C 
ATOM     10  N   LIG    1       -6.328   2.787  -1.913  0.00  0.00    -0.480 NA
ATOM     11  C   LIG    1       -5.205   2.018  -2.011  0.00  0.00    -0.130 C 
ATOM     12  C   LIG    1       -3.970   2.264  -1.441  0.00  0.00    +0.290 C 
BRANCH   9  13
ATOM     13  C   LIG    1       -8.656   2.773  -2.708  0.00  0.00    -0.040 A 
ATOM     14  C   LIG    1       -8.988   3.969  -2.068  0.00  0.00    +0.080 A 
ATOM     15  C   LIG    1      -10.264   4.480  -2.187  0.00  0.00    +0.010 A 
ATOM     16  C   LIG    1      -11.216   3.804  -2.929  0.00  0.00    +0.040 A 
ATOM     17  C   LIG    1      -10.895   2.616  -3.562  0.00  0.00    +0.010 A 
ATOM     18  C   LIG    1       -9.622   2.097  -3.455  0.00  0.00    +0.060 A 
ENDBRANCH   9  13
ENDBRANCH   1  12
BRANCH   5  19
ATOM     19  C   LIG    1       -1.235   3.143   0.030  0.00  0.00    -0.040 A 
ATOM     20  C   LIG    1       -1.217   1.748   0.017  0.00  0.00    +0.070 A 
ATOM     21  C   LIG    1       -0.013   1.076   0.008  0.00  0.00    +0.000 A 
ATOM     22  C   LIG    1        1.179   1.784   0.000  0.00  0.00    +0.120 A 
ATOM     23  C   LIG    1        1.166   3.170   0.007  0.00  0.00    -0.010 A 
ATOM     24  F   LIG    1        2.356   1.121  -0.013  0.00  0.00    -0.130 F 
ATOM     25  C   LIG    1       -0.033   3.851   0.022  0.00  0.00    +0.090 A 
ENDBRANCH   5  19
BRANCH   3  26
ATOM     26  C   LIG    1       -4.726   6.516   0.936  0.00  0.00    +0.140 A 
ATOM     27  C   LIG    1       -6.059   6.774   0.643  0.00  0.00    +0.000 A 
ATOM     28  C   LIG    1       -6.668   7.908   1.144  0.00  0.00    +0.050 A 
ATOM     29  C   LIG    1       -5.948   8.793   1.927  0.00  0.00    +0.010 A 
ATOM     30  C   LIG    1       -4.619   8.542   2.215  0.00  0.00    +0.040 A 
ATOM     31  C   LIG    1       -4.006   7.406   1.722  0.00  0.00    +0.030 A 
ENDBRANCH   3  26
TORSDOF 4
