REMARK  Name = ZINCrH000004rnkv.0
REMARK                            x       y       z     vdW  Elec       q    Type
REMARK                         _______ _______ _______ _____ _____    ______ ____
ROOT
ATOM      1  N   LIG    1       -1.696   9.063  -3.054  0.00  0.00    -0.740 N 
ATOM      2  H   LIG    1       -0.875   9.496  -2.771  0.00  0.00    +0.410 HD
ENDROOT
BRANCH   1   9
ATOM      3  C   LIG    1       -1.171  11.802  -3.611  0.00  0.00    +0.090 C 
ATOM      4  C   LIG    1       -2.443  11.128  -4.056  0.00  0.00    -0.170 A 
ATOM      5  C   LIG    1       -3.392  11.843  -4.761  0.00  0.00    +0.080 A 
ATOM      6  C   LIG    1       -4.562  11.230  -5.167  0.00  0.00    -0.040 A 
ATOM      7  C   LIG    1       -4.786   9.891  -4.871  0.00  0.00    +0.190 A 
ATOM      8  C   LIG    1       -3.832   9.169  -4.168  0.00  0.00    -0.100 A 
ATOM      9  C   LIG    1       -2.658   9.787  -3.763  0.00  0.00    +0.240 A 
BRANCH   7  10
ATOM     10  N   LIG    1       -5.971   9.271  -5.283  0.00  0.00    -0.670 N 
ATOM     11  H   LIG    1       -6.370   8.576  -4.736  0.00  0.00    +0.410 HD
ATOM     12  C   LIG    1       -6.558   9.640  -6.438  0.00  0.00    +0.540 C 
ATOM     13  O   LIG    1       -6.012  10.440  -7.168  0.00  0.00    -0.510 OA
BRANCH  12  14
ATOM     14  C   LIG    1       -7.895   9.060  -6.823  0.00  0.00    -0.070 C 
ATOM     15  C   LIG    1       -7.932   8.107  -8.020  0.00  0.00    +0.060 C 
ATOM     16  C   LIG    1       -8.509   9.518  -8.147  0.00  0.00    +0.080 C 
ENDBRANCH  12  14
ENDBRANCH   7  10
ENDBRANCH   1   9
BRANCH   1  17
ATOM     17  C   LIG    1       -1.925   7.651  -2.740  0.00  0.00    +0.290 C 
BRANCH  17  18
ATOM     18  C   LIG    1       -0.745   7.108  -1.976  0.00  0.00    +0.510 C 
ATOM     19  N   LIG    1       -0.735   5.821  -1.578  0.00  0.00    -0.720 N 
ATOM     20  H   LIG    1       -1.487   5.244  -1.783  0.00  0.00    +0.400 HD
ATOM     21  O   LIG    1        0.196   7.830  -1.720  0.00  0.00    -0.530 OA
BRANCH  19  22
ATOM     22  C   LIG    1        0.413   5.292  -0.836  0.00  0.00    +0.290 C 
ATOM     23  C   LIG    1        0.242   5.599   0.653  0.00  0.00    +0.040 C 
BRANCH  22  24
ATOM     24  C   LIG    1        0.497   3.801  -1.036  0.00  0.00    -0.110 A 
ATOM     25  C   LIG    1        1.728   3.196  -1.208  0.00  0.00    +0.060 A 
ATOM     26  C   LIG    1        1.806   1.828  -1.391  0.00  0.00    -0.010 A 
ATOM     27  C   LIG    1        0.651   1.064  -1.402  0.00  0.00    +0.100 A 
ATOM     28  C   LIG    1       -0.581   1.673  -1.235  0.00  0.00    -0.010 A 
ATOM     29  F   LIG    1        0.727  -0.273  -1.582  0.00  0.00    -0.140 F 
ATOM     30  C   LIG    1       -0.657   3.040  -1.047  0.00  0.00    +0.040 A 
ENDBRANCH  22  24
ENDBRANCH  19  22
ENDBRANCH  17  18
ENDBRANCH   1  17
TORSDOF 7
