REMARK  Name = ZINCrH000004vFKd.0
REMARK                            x       y       z     vdW  Elec       q    Type
REMARK                         _______ _______ _______ _____ _____    ______ ____
ROOT
ATOM      1  O   LIG    1       -0.950  -2.710  -0.122  0.00  0.00    -0.540 OA
ATOM      2  C   LIG    1       -1.757  -1.808   0.009  0.00  0.00    +0.620 C 
ATOM      3  N   LIG    1       -3.070  -2.089   0.123  0.00  0.00    -0.590 N 
ATOM      4  C   LIG    1       -4.068  -1.011   0.140  0.00  0.00    +0.280 C 
ATOM      5  C   LIG    1       -4.945  -1.171   1.387  0.00  0.00    +0.040 C 
ATOM      6  C   LIG    1       -5.541  -2.580   1.408  0.00  0.00    +0.030 C 
ATOM      7  C   LIG    1       -4.413  -3.612   1.475  0.00  0.00    +0.260 C 
ATOM      8  C   LIG    1       -3.531  -3.480   0.225  0.00  0.00    +0.310 C 
ENDROOT
BRANCH   2   9
ATOM      9  C   LIG    1       -1.301  -0.418   0.044  0.00  0.00    +0.100 A 
ATOM     10  N   LIG    1       -2.064   0.637   0.296  0.00  0.00    -0.370 NA
ATOM     11  C   LIG    1       -1.335   1.737   0.254  0.00  0.00    -0.000 A 
ATOM     12  C   LIG    1       -0.024   1.372  -0.051  0.00  0.00    +0.070 A 
ATOM     13  C   LIG    1        1.165   2.099  -0.225  0.00  0.00    +0.070 A 
ATOM     14  C   LIG    1        2.316   1.430  -0.519  0.00  0.00    +0.060 A 
ATOM     15  C   LIG    1        2.293   0.032  -0.643  0.00  0.00    +0.040 A 
ATOM     16  C   LIG    1        1.140  -0.651  -0.472  0.00  0.00    +0.240 A 
ATOM     17 BR   LIG    1       -1.960   3.498   0.544  0.00  0.00    +0.040 Br
ATOM     18  N   LIG    1       -0.017   0.005  -0.177  0.00  0.00    -0.310 N 
ENDBRANCH   2   9
BRANCH   7  19
ATOM     19  N   LIG    1       -4.986  -4.960   1.528  0.00  0.00    -0.350 N 
ATOM     20  C   LIG    1       -5.371  -5.701   0.468  0.00  0.00    +0.250 A 
ATOM     21  C   LIG    1       -5.841  -6.879   0.937  0.00  0.00    -0.070 A 
ATOM     22  C   LIG    1       -5.750  -6.854   2.333  0.00  0.00    -0.020 A 
ATOM     23  N   LIG    1       -5.237  -5.704   2.688  0.00  0.00    -0.230 NA
BRANCH  22  24
ATOM     24  C   LIG    1       -6.169  -7.960   3.266  0.00  0.00    +0.560 C 
ATOM     25  F   LIG    1       -5.359  -9.081   3.055  0.00  0.00    -0.170 F 
ATOM     26  F   LIG    1       -7.505  -8.297   3.019  0.00  0.00    -0.170 F 
ATOM     27  F   LIG    1       -6.034  -7.530   4.590  0.00  0.00    -0.170 F 
ENDBRANCH  22  24
ENDBRANCH   7  19
TORSDOF 3
