REMARK  Name = ZINCvU0000000F4J.0
REMARK                            x       y       z     vdW  Elec       q    Type
REMARK                         _______ _______ _______ _____ _____    ______ ____
ROOT
ATOM      1  C   LIG    1        1.429   6.165   1.881  0.00  0.00    +0.340 C 
ENDROOT
BRANCH   1   6
ATOM      2  C   LIG    1       -0.063   5.631   0.032  0.00  0.00    +0.200 C 
ATOM      3  C   LIG    1       -0.297   6.175  -1.394  0.00  0.00    +0.040 C 
ATOM      4  C   LIG    1        0.588   7.434  -1.493  0.00  0.00    +0.020 C 
ATOM      5  C   LIG    1        1.283   7.546  -0.119  0.00  0.00    +0.170 C 
ATOM      6  N   LIG    1        1.269   6.162   0.421  0.00  0.00    -0.510 NA
BRANCH   2  10
ATOM      7  C   LIG    1       -0.016   1.355   0.009  0.00  0.00    +0.170 A 
ATOM      8  C   LIG    1        1.175   2.065   0.002  0.00  0.00    -0.120 A 
ATOM      9  C   LIG    1        1.157   3.447   0.010  0.00  0.00    +0.120 A 
ATOM     10  C   LIG    1       -0.047   4.125   0.024  0.00  0.00    -0.150 A 
ATOM     11  C   LIG    1       -1.242   3.418   0.032  0.00  0.00    +0.170 A 
ATOM     12  C   LIG    1       -1.226   2.032   0.019  0.00  0.00    -0.110 A 
BRANCH   7  14
ATOM     13  C   LIG    1        1.284  -0.635  -0.014  0.00  0.00    +0.250 C 
ATOM     14  O   LIG    1        0.002  -0.004   0.002  0.00  0.00    -0.320 OA
ENDBRANCH   7  14
BRANCH  11  15
ATOM     15  O   LIG    1       -2.426   4.085   0.047  0.00  0.00    -0.310 OA
ATOM     16  C   LIG    1       -3.616   3.294   0.054  0.00  0.00    +0.240 C 
ENDBRANCH  11  15
ENDBRANCH   2  10
ENDBRANCH   1   6
BRANCH   1  17
ATOM     17  C   LIG    1        2.863   6.472   2.229  0.00  0.00    +0.200 A 
ATOM     18  N   LIG    1        3.377   7.659   2.431  0.00  0.00    -0.470 NA
ATOM     19  C   LIG    1        4.683   7.446   2.713  0.00  0.00    +0.210 A 
ATOM     20  N   LIG    1        4.882   6.155   2.666  0.00  0.00    -0.370 NA
ATOM     21  O   LIG    1        3.848   5.583   2.394  0.00  0.00    +0.100 OA
BRANCH  19  22
ATOM     22  C   LIG    1        5.699   8.484   3.018  0.00  0.00    -0.020 A 
ATOM     23  C   LIG    1        5.340   9.830   3.033  0.00  0.00    +0.110 A 
ATOM     24  C   LIG    1        6.289  10.791   3.319  0.00  0.00    +0.030 A 
ATOM     25  C   LIG    1        7.593  10.420   3.590  0.00  0.00    +0.100 A 
ATOM     26  C   LIG    1        7.955   9.085   3.576  0.00  0.00    -0.180 A 
ATOM     27  C   LIG    1        7.013   8.115   3.297  0.00  0.00    +0.110 A 
BRANCH  26  28
ATOM     28  C   LIG    1        9.378   8.688   3.872  0.00  0.00    +0.510 C 
ATOM     29  F   LIG    1        9.912   8.010   2.771  0.00  0.00    -0.170 F 
ATOM     30  F   LIG    1        9.405   7.851   4.993  0.00  0.00    -0.170 F 
ATOM     31  F   LIG    1       10.138   9.834   4.128  0.00  0.00    -0.170 F 
ENDBRANCH  26  28
ENDBRANCH  19  22
ENDBRANCH   1  17
TORSDOF 7
