REMARK  Name = ZINCrg00001Jdv5k.0
REMARK                            x       y       z     vdW  Elec       q    Type
REMARK                         _______ _______ _______ _____ _____    ______ ____
ROOT
ATOM      1  C   LIG    1       -0.199  -0.155  -0.088  0.00  0.00    +0.340 C 
ATOM      2  C   LIG    1        1.199  -0.803   0.001  0.00  0.00    +0.040 C 
ATOM      3  C   LIG    1        2.086   0.357   0.527  0.00  0.00    +0.070 C 
ATOM      4  C   LIG    1        1.445   1.581  -0.173  0.00  0.00    +0.260 C 
ATOM      5  N   LIG    1       -0.002   1.299  -0.177  0.00  0.00    -0.610 N 
ATOM      6  C   LIG    1       -0.982   2.221  -0.256  0.00  0.00    +0.520 C 
ATOM      7  O   LIG    1       -2.139   1.869  -0.351  0.00  0.00    -0.510 OA
ENDROOT
BRANCH   1  14
ATOM      8  N   LIG    1       -2.140  -1.280  -1.327  0.00  0.00    -0.540 N 
ATOM      9  C   LIG    1       -2.456  -1.570  -2.605  0.00  0.00    +0.650 A 
ATOM     10  N   LIG    1       -1.441  -1.136  -3.380  0.00  0.00    -0.550 N 
ATOM     11  H   LIG    1       -1.383  -1.208  -4.346  0.00  0.00    +0.460 HD
ATOM     12  N   LIG    1       -0.485  -0.560  -2.531  0.00  0.00    -0.270 NA
ATOM     13  O   LIG    1       -3.470  -2.127  -2.988  0.00  0.00    -0.550 OA
ATOM     14  C   LIG    1       -0.919  -0.651  -1.316  0.00  0.00    +0.280 A 
BRANCH   8  16
ATOM     15  C   LIG    1       -4.000  -0.475   0.042  0.00  0.00    +0.030 C 
ATOM     16  C   LIG    1       -2.960  -1.581  -0.151  0.00  0.00    +0.310 C 
ENDBRANCH   8  16
ENDBRANCH   1  14
BRANCH   2  17
ATOM     17  C   LIG    1        1.193  -1.970   0.990  0.00  0.00    -0.030 C 
ATOM     18  C   LIG    1        1.758  -3.308   0.507  0.00  0.00    +0.030 C 
ATOM     19  C   LIG    1        0.249  -3.138   0.698  0.00  0.00    +0.010 C 
ENDBRANCH   2  17
BRANCH   6  20
ATOM     20  C   LIG    1       -0.640   3.688  -0.225  0.00  0.00    +0.330 C 
BRANCH  20  21
ATOM     21  N   LIG    1       -1.869   4.478  -0.325  0.00  0.00    -0.480 N 
ATOM     22  C   LIG    1       -2.529   4.838   0.806  0.00  0.00    +0.290 A 
ATOM     23  C   LIG    1       -3.667   5.567   0.740  0.00  0.00    -0.070 A 
ATOM     24  C   LIG    1       -4.176   5.959  -0.506  0.00  0.00    +0.120 A 
ATOM     25  C   LIG    1       -3.511   5.597  -1.641  0.00  0.00    -0.200 A 
ATOM     26  C   LIG    1       -4.036   6.006  -2.994  0.00  0.00    +0.120 C 
ATOM     27  C   LIG    1       -2.330   4.844  -1.536  0.00  0.00    +0.520 A 
ATOM     28  O   LIG    1       -1.723   4.517  -2.543  0.00  0.00    -0.540 OA
ENDBRANCH  20  21
ENDBRANCH   6  20
TORSDOF 5
