REMARK  Name = ZINCrg00000xVDvc.0
REMARK                            x       y       z     vdW  Elec       q    Type
REMARK                         _______ _______ _______ _____ _____    ______ ____
ROOT
ATOM      1  N   LIG    1       -1.084  -2.092   0.327  0.00  0.00    -0.540 N 
ATOM      2  C   LIG    1        0.092  -2.729   0.214  0.00  0.00    +0.720 A 
ATOM      3  N   LIG    1        1.228  -2.090  -0.112  0.00  0.00    -0.660 N 
ATOM      4  H   LIG    1        2.055  -2.591  -0.182  0.00  0.00    +0.440 HD
ATOM      5  C   LIG    1        1.232  -0.761  -0.343  0.00  0.00    +0.580 A 
ATOM      6  C   LIG    1       -0.032  -0.023  -0.230  0.00  0.00    -0.450 A 
ATOM      7  O   LIG    1        2.264  -0.186  -0.638  0.00  0.00    -0.510 OA
ATOM      8  O   LIG    1        0.131  -3.927   0.414  0.00  0.00    -0.520 OA
ATOM      9  C   LIG    1       -1.186  -0.746   0.120  0.00  0.00    +0.560 A 
ENDROOT
BRANCH   9  10
ATOM     10  N   LIG    1       -2.385  -0.116   0.245  0.00  0.00    -0.800 N 
ATOM     11  H   LIG    1       -3.081  -0.503   0.799  0.00  0.00    +0.410 HD
ATOM     12  H   LIG    1       -2.544   0.720  -0.219  0.00  0.00    +0.440 HD
ENDBRANCH   9  10
BRANCH   6  13
ATOM     13  C   LIG    1       -0.086   1.368  -0.460  0.00  0.00    +0.430 C 
ATOM     14  O   LIG    1       -1.117   1.977  -0.256  0.00  0.00    -0.470 OA
BRANCH  13  15
ATOM     15  C   LIG    1        1.133   2.096  -0.964  0.00  0.00    +0.360 C 
BRANCH  15  16
ATOM     16  N   LIG    1        0.821   3.519  -1.121  0.00  0.00    -0.280 N 
ATOM     17  C   LIG    1        1.500   4.546  -0.558  0.00  0.00    +0.140 A 
ATOM     18  C   LIG    1        0.877   5.677  -0.963  0.00  0.00    -0.010 A 
ATOM     19  N   LIG    1       -0.140   5.292  -1.744  0.00  0.00    -0.270 NA
ATOM     20  N   LIG    1       -0.142   4.008  -1.821  0.00  0.00    -0.060 NA
BRANCH  18  21
ATOM     21  C   LIG    1        1.254   7.092  -0.606  0.00  0.00    +0.090 C 
ATOM     22  C   LIG    1        2.657   7.217   0.014  0.00  0.00    +0.050 C 
ATOM     23  C   LIG    1        2.042   8.231   0.983  0.00  0.00    -0.110 C 
ATOM     24  C   LIG    1        2.599   8.416   2.394  0.00  0.00    +0.020 C 
ATOM     25  C   LIG    1        3.314   9.668   1.855  0.00  0.00    +0.010 C 
ATOM     26  C   LIG    1        2.222   9.734   0.771  0.00  0.00    +0.030 C 
ATOM     27  C   LIG    1        0.690   7.556   0.749  0.00  0.00    +0.040 C 
ENDBRANCH  18  21
ENDBRANCH  15  16
ENDBRANCH  13  15
ENDBRANCH   6  13
BRANCH   1  28
ATOM     28  C   LIG    1       -2.282  -2.856   0.686  0.00  0.00    +0.310 C 
BRANCH  28  30
ATOM     29  C   LIG    1       -3.685  -3.679   2.582  0.00  0.00    +0.040 C 
ATOM     30  C   LIG    1       -2.434  -2.881   2.208  0.00  0.00    +0.000 C 
ENDBRANCH  28  30
ENDBRANCH   1  28
TORSDOF 7
