REMARK  Name = ZINCah0000003Z4O.0
REMARK                            x       y       z     vdW  Elec       q    Type
REMARK                         _______ _______ _______ _____ _____    ______ ____
ROOT
ATOM      1  C   LIG    1       -0.818   1.635   1.232  0.00  0.00    +0.000 C 
ATOM      2  C   LIG    1       -1.612   2.815   0.624  0.00  0.00    +0.250 C 
ATOM      3  N   LIG    1       -1.764   2.494  -0.800  0.00  0.00    -0.730 N 
ATOM      4  H   LIG    1       -2.407   2.916  -1.391  0.00  0.00    +0.410 HD
ATOM      5  C   LIG    1       -0.898   1.538  -1.181  0.00  0.00    +0.520 C 
ATOM      6  O   LIG    1       -0.806   1.091  -2.304  0.00  0.00    -0.530 OA
ATOM      7  C   LIG    1       -0.055   1.102  -0.003  0.00  0.00    +0.060 C 
ENDROOT
BRANCH   1   8
ATOM      8  C   LIG    1        0.155   2.123   2.308  0.00  0.00    +0.030 C 
BRANCH   8  10
ATOM      9  C   LIG    1       -1.281   1.272   4.167  0.00  0.00    +0.020 C 
ATOM     10  C   LIG    1       -0.628   2.516   3.562  0.00  0.00    -0.030 C 
ATOM     11  C   LIG    1        0.325   3.140   4.583  0.00  0.00    +0.020 C 
ENDBRANCH   8  10
ENDBRANCH   1   8
TORSDOF 2
