REMARK  Name = ZINCkj000005kZGd.2
REMARK                            x       y       z     vdW  Elec       q    Type
REMARK                         _______ _______ _______ _____ _____    ______ ____
ROOT
ATOM      1  N   LIG    1        0.085  -1.539   1.771  0.00  0.00    -0.510 N 
ATOM      2  C   LIG    1       -1.165  -1.816   1.054  0.00  0.00    +0.320 C 
ATOM      3  C   LIG    1       -1.427  -0.566   0.185  0.00  0.00    +0.100 C 
ATOM      4  C   LIG    1        0.002  -0.004   0.002  0.00  0.00    +0.170 C 
ATOM      5  C   LIG    1        0.766  -0.530   1.197  0.00  0.00    +0.500 C 
ATOM      6  O   LIG    1        1.835  -0.103   1.581  0.00  0.00    -0.460 OA
ENDROOT
BRANCH   4   7
ATOM      7  N   LIG    1       -0.018   1.465   0.010  0.00  0.00    -0.380 N 
ATOM      8  C   LIG    1        1.321   1.965  -0.307  0.00  0.00    +0.280 C 
ATOM      9  C   LIG    1        1.417   3.455   0.041  0.00  0.00    +0.150 C 
ATOM     10  S   LIG    1        0.233   4.365  -0.997  0.00  0.00    -0.180 S 
ATOM     11  C   LIG    1       -1.300   3.422  -0.729  0.00  0.00    -0.060 C 
ATOM     12  C   LIG    1       -2.373   3.894  -1.712  0.00  0.00    +0.130 C 
ATOM     13  C   LIG    1       -1.785   3.627   0.707  0.00  0.00    +0.080 C 
ATOM     14  C   LIG    1       -1.002   1.937  -0.965  0.00  0.00    +0.290 C 
ATOM     15  H   LIG    1       -0.282   1.787   0.929  0.00  0.00    +0.420 HD
ENDBRANCH   4   7
BRANCH   1  20
ATOM     16  C   LIG    1        2.692  -2.941   5.704  0.00  0.00    +0.370 C 
ATOM     17  N   LIG    1        1.656  -2.892   4.669  0.00  0.00    -0.360 N 
ATOM     18  C   LIG    1        0.610  -3.736   4.554  0.00  0.00    +0.280 A 
ATOM     19  C   LIG    1       -0.113  -3.357   3.475  0.00  0.00    -0.120 A 
ATOM     20  C   LIG    1        0.516  -2.238   2.908  0.00  0.00    +0.290 A 
ATOM     21  N   LIG    1        1.581  -1.963   3.623  0.00  0.00    -0.280 NA
ENDBRANCH   1  20
TORSDOF 2
