REMARK  Name = ZINCkj000005kZGd.1
REMARK                            x       y       z     vdW  Elec       q    Type
REMARK                         _______ _______ _______ _____ _____    ______ ____
ROOT
ATOM      1  N   LIG    1        0.145  -0.059   0.096  0.00  0.00    -0.510 N 
ATOM      2  C   LIG    1        1.313  -0.947   0.067  0.00  0.00    +0.320 C 
ATOM      3  C   LIG    1        0.767  -2.354   0.404  0.00  0.00    +0.090 C 
ATOM      4  C   LIG    1       -0.704  -2.238  -0.058  0.00  0.00    +0.170 C 
ATOM      5  C   LIG    1       -1.001  -0.757   0.018  0.00  0.00    +0.510 C 
ATOM      6  O   LIG    1       -2.112  -0.270   0.009  0.00  0.00    -0.470 OA
ENDROOT
BRANCH   4   7
ATOM      7  N   LIG    1       -1.588  -2.987   0.846  0.00  0.00    -0.380 N 
ATOM      8  C   LIG    1       -1.387  -2.511   2.216  0.00  0.00    +0.270 C 
ATOM      9  C   LIG    1       -2.527  -3.008   3.112  0.00  0.00    +0.140 C 
ATOM     10  S   LIG    1       -2.478  -4.826   3.151  0.00  0.00    -0.180 S 
ATOM     11  C   LIG    1       -2.412  -5.235   1.379  0.00  0.00    -0.060 C 
ATOM     12  C   LIG    1       -3.750  -4.890   0.722  0.00  0.00    +0.070 C 
ATOM     13  C   LIG    1       -2.125  -6.728   1.207  0.00  0.00    +0.130 C 
ATOM     14  C   LIG    1       -1.289  -4.416   0.734  0.00  0.00    +0.290 C 
ATOM     15  H   LIG    1       -2.547  -2.828   0.577  0.00  0.00    +0.430 HD
ENDBRANCH   4   7
BRANCH   1  20
ATOM     16  C   LIG    1        1.877   4.543   0.309  0.00  0.00    +0.380 C 
ATOM     17  N   LIG    1        0.954   3.405   0.286  0.00  0.00    -0.350 N 
ATOM     18  C   LIG    1       -0.391   3.474   0.370  0.00  0.00    +0.270 A 
ATOM     19  C   LIG    1       -0.875   2.213   0.306  0.00  0.00    -0.110 A 
ATOM     20  C   LIG    1        0.216   1.338   0.188  0.00  0.00    +0.290 A 
ATOM     21  N   LIG    1        1.314   2.057   0.173  0.00  0.00    -0.300 NA
ENDBRANCH   1  20
TORSDOF 2
