REMARK  Name = ZINCrD000000f3h8.0
REMARK                            x       y       z     vdW  Elec       q    Type
REMARK                         _______ _______ _______ _____ _____    ______ ____
ROOT
ATOM      1  N   LIG    1       -3.725   9.204  -2.295  0.00  0.00    -0.620 N 
ATOM      2  C   LIG    1       -3.973   8.133  -1.515  0.00  0.00    +0.710 C 
ATOM      3  N   LIG    1       -3.124   7.086  -1.519  0.00  0.00    -0.740 N 
ATOM      4  H   LIG    1       -2.336   7.103  -2.083  0.00  0.00    +0.400 HD
ATOM      5  O   LIG    1       -4.961   8.112  -0.807  0.00  0.00    -0.570 OA
ENDROOT
BRANCH   3   6
ATOM      6  C   LIG    1       -3.393   5.922  -0.670  0.00  0.00    +0.270 C 
ATOM      7  C   LIG    1       -2.814   6.128   0.755  0.00  0.00    +0.010 C 
ATOM      8  C   LIG    1       -2.568   4.684   1.242  0.00  0.00    +0.200 C 
ATOM      9  N   LIG    1       -2.456   3.832   0.043  0.00  0.00    -0.470 N 
ATOM     10  C   LIG    1       -2.597   4.686  -1.156  0.00  0.00    +0.190 C 
BRANCH   9  11
ATOM     11  C   LIG    1       -1.237   3.145   0.029  0.00  0.00    +0.060 A 
ATOM     12  C   LIG    1       -0.042   3.849   0.021  0.00  0.00    +0.040 A 
ATOM     13  C   LIG    1        1.162   3.166   0.007  0.00  0.00    -0.070 A 
ATOM     14  C   LIG    1        1.176   1.783   0.000  0.00  0.00    +0.070 A 
ATOM     15  C   LIG    1       -0.013   1.076   0.008  0.00  0.00    -0.050 A 
ATOM     16 CL   LIG    1        2.657   4.048  -0.003  0.00  0.00    -0.070 Cl
ATOM     17  C   LIG    1       -1.221   1.751   0.017  0.00  0.00    +0.160 A 
BRANCH  17  18
ATOM     18  O   LIG    1       -2.390   1.056   0.019  0.00  0.00    -0.290 OA
ATOM     19  C   LIG    1       -2.298  -0.370   0.011  0.00  0.00    +0.240 C 
ENDBRANCH  17  18
ENDBRANCH   9  11
ENDBRANCH   3   6
BRANCH   1  20
ATOM     20  C   LIG    1       -2.534   9.229  -3.148  0.00  0.00    +0.430 C 
BRANCH  20  22
ATOM     21  C   LIG    1       -3.121   8.195  -5.512  0.00  0.00    +0.060 C 
ATOM     22  C   LIG    1       -2.860   8.654  -4.463  0.00  0.00    -0.230 C 
ENDBRANCH  20  22
ENDBRANCH   1  20
BRANCH   1  23
ATOM     23  C   LIG    1       -4.647  10.342  -2.291  0.00  0.00    +0.430 C 
BRANCH  23  24
ATOM     24  C   LIG    1       -4.221  11.330  -1.235  0.00  0.00    -0.030 A 
ATOM     25  C   LIG    1       -3.371  12.356  -1.416  0.00  0.00    -0.050 A 
ATOM     26  C   LIG    1       -3.257  13.018  -0.171  0.00  0.00    -0.070 A 
ATOM     27  C   LIG    1       -4.044  12.355   0.695  0.00  0.00    +0.170 A 
ATOM     28  O   LIG    1       -4.630  11.337   0.044  0.00  0.00    -0.160 OA
ENDBRANCH  23  24
ENDBRANCH   1  23
TORSDOF 7
