REMARK  Name = ZINCrH00000tj1px.0
REMARK                            x       y       z     vdW  Elec       q    Type
REMARK                         _______ _______ _______ _____ _____    ______ ____
ROOT
ATOM      1  C   LIG    1        2.248   0.432   0.436  0.00  0.00    +0.250 C 
ATOM      2  C   LIG    1        1.633   1.782  -0.039  0.00  0.00    +0.150 C 
ATOM      3  S   LIG    1       -0.159   1.370  -0.011  0.00  0.00    -0.210 S 
ATOM      4  C   LIG    1        0.059  -0.446  -0.057  0.00  0.00    +0.200 C 
ATOM      5  C   LIG    1       -0.639  -1.040  -1.292  0.00  0.00    +0.090 C 
ATOM      6  C   LIG    1        0.395  -2.143  -1.695  0.00  0.00    +0.090 C 
ATOM      7  C   LIG    1        1.713  -1.657  -1.133  0.00  0.00    +0.550 C 
ATOM      8  O   LIG    1        2.797  -2.128  -1.406  0.00  0.00    -0.510 OA
ATOM      9  N   LIG    1        1.512  -0.627  -0.288  0.00  0.00    -0.610 N 
ENDROOT
BRANCH   4  10
ATOM     10  C   LIG    1       -0.399  -1.102   1.220  0.00  0.00    -0.030 A 
ATOM     11  C   LIG    1        0.275  -2.205   1.711  0.00  0.00    +0.020 A 
ATOM     12  C   LIG    1       -0.142  -2.803   2.885  0.00  0.00    +0.050 A 
ATOM     13  C   LIG    1       -1.240  -2.305   3.563  0.00  0.00    -0.090 A 
ATOM     14  C   LIG    1       -1.917  -1.204   3.069  0.00  0.00    +0.050 A 
ATOM     15 BR   LIG    1       -1.815  -3.128   5.165  0.00  0.00    -0.050 Br
ATOM     16  C   LIG    1       -1.496  -0.603   1.897  0.00  0.00    +0.060 A 
ENDBRANCH   4  10
BRANCH   1  18
ATOM     17  O   LIG    1        0.963   0.411   2.416  0.00  0.00    -0.480 OA
ATOM     18  C   LIG    1        2.062   0.270   1.923  0.00  0.00    +0.500 C 
ATOM     19  N   LIG    1        3.117  -0.033   2.705  0.00  0.00    -0.720 N 
ATOM     20  H   LIG    1        3.996  -0.146   2.312  0.00  0.00    +0.400 HD
BRANCH  19  21
ATOM     21  C   LIG    1        2.936  -0.190   4.151  0.00  0.00    +0.330 C 
BRANCH  21  22
ATOM     22  C   LIG    1        4.260  -0.524   4.789  0.00  0.00    -0.150 A 
ATOM     23  C   LIG    1        4.942   0.438   5.509  0.00  0.00    +0.070 A 
ATOM     24  C   LIG    1        6.157   0.132   6.095  0.00  0.00    +0.000 A 
ATOM     25  C   LIG    1        6.690  -1.136   5.961  0.00  0.00    +0.060 A 
ATOM     26  C   LIG    1        6.009  -2.100   5.242  0.00  0.00    -0.020 A 
ATOM     27  C   LIG    1        4.790  -1.797   4.660  0.00  0.00    +0.120 A 
ATOM     28  F   LIG    1        4.121  -2.740   3.961  0.00  0.00    -0.130 F 
ENDBRANCH  21  22
ENDBRANCH  19  21
ENDBRANCH   1  18
TORSDOF 4
