REMARK  Name = ZINCpk000004ANP2.0
REMARK                            x       y       z     vdW  Elec       q    Type
REMARK                         _______ _______ _______ _____ _____    ______ ____
ROOT
ATOM      1  C   LIG    1        6.981  -1.669   2.431  0.00  0.00    +0.550 C 
ATOM      2  N   LIG    1        6.002  -1.680   1.504  0.00  0.00    -0.610 N 
ATOM      3  C   LIG    1        6.173  -0.974   0.227  0.00  0.00    +0.290 C 
ATOM      4  C   LIG    1        4.988  -0.024   0.026  0.00  0.00    +0.070 C 
ATOM      5  C   LIG    1        3.682  -0.814   0.138  0.00  0.00    -0.020 C 
ATOM      6  C   LIG    1        3.575  -1.432   1.534  0.00  0.00    +0.040 C 
ATOM      7  C   LIG    1        4.744  -2.397   1.752  0.00  0.00    +0.270 C 
ATOM      8  O   LIG    1        6.867  -2.334   3.443  0.00  0.00    -0.540 OA
ENDROOT
BRANCH   5   9
ATOM      9  C   LIG    1        2.515   0.111  -0.093  0.00  0.00    -0.090 A 
ATOM     10  C   LIG    1        2.440   0.852  -1.258  0.00  0.00    +0.020 A 
ATOM     11  C   LIG    1        1.369   1.700  -1.470  0.00  0.00    +0.020 A 
ATOM     12  C   LIG    1        0.373   1.807  -0.517  0.00  0.00    +0.020 A 
ATOM     13  C   LIG    1        0.447   1.065   0.647  0.00  0.00    +0.010 A 
ATOM     14  C   LIG    1        1.518   0.217   0.859  0.00  0.00    +0.010 A 
ENDBRANCH   5   9
BRANCH   5  15
ATOM     15  C   LIG    1        3.668  -1.909  -0.898  0.00  0.00    +0.540 C 
ATOM     16  N   LIG    1        2.686  -2.832  -0.889  0.00  0.00    -0.640 N 
ATOM     17  H   LIG    1        1.942  -2.743  -0.273  0.00  0.00    +0.410 HD
ATOM     18  O   LIG    1        4.540  -1.960  -1.739  0.00  0.00    -0.490 OA
BRANCH  16  19
ATOM     19  C   LIG    1        2.738  -3.915  -1.767  0.00  0.00    +0.280 A 
ATOM     20  C   LIG    1        3.706  -4.168  -2.686  0.00  0.00    +0.130 A 
ATOM     21  N   LIG    1        3.405  -5.295  -3.330  0.00  0.00    -0.220 NA
ATOM     22  N   LIG    1        2.296  -5.774  -2.884  0.00  0.00    -0.070 NA
ATOM     23  N   LIG    1        1.825  -4.921  -1.874  0.00  0.00    -0.390 N 
ATOM     24  C   LIG    1        0.598  -5.080  -1.091  0.00  0.00    +0.380 C 
ENDBRANCH  16  19
ENDBRANCH   5  15
BRANCH   1  26
ATOM     25  C   LIG    1        9.099  -0.754   3.180  0.00  0.00    +0.140 C 
ATOM     26  C   LIG    1        8.186  -0.854   2.219  0.00  0.00    -0.090 C 
ENDBRANCH   1  26
TORSDOF 4
