REMARK  Name = ZINCrD000000fg35.0
REMARK                            x       y       z     vdW  Elec       q    Type
REMARK                         _______ _______ _______ _____ _____    ______ ____
ROOT
ATOM      1  C   LIG    1        5.403   5.602   2.824  0.00  0.00    +0.560 C 
ATOM      2  N   LIG    1        6.055   4.951   1.840  0.00  0.00    -0.550 N 
ATOM      3  C   LIG    1        7.488   5.184   1.613  0.00  0.00    +0.280 C 
ATOM      4  C   LIG    1        7.704   5.339   0.102  0.00  0.00    +0.020 C 
ATOM      5  C   LIG    1        7.327   4.028  -0.587  0.00  0.00    +0.090 C 
ATOM      6  C   LIG    1        5.956   3.580  -0.154  0.00  0.00    -0.150 A 
ATOM      7  C   LIG    1        5.262   2.685  -0.950  0.00  0.00    +0.070 A 
ATOM      8  C   LIG    1        4.004   2.251  -0.580  0.00  0.00    -0.100 A 
ATOM      9  C   LIG    1        3.426   2.709   0.596  0.00  0.00    +0.140 A 
ATOM     10  C   LIG    1        4.112   3.609   1.394  0.00  0.00    +0.000 A 
ATOM     11  C   LIG    1        5.380   4.043   1.022  0.00  0.00    +0.200 A 
ATOM     12  O   LIG    1        4.227   5.362   3.038  0.00  0.00    -0.520 OA
ENDROOT
BRANCH   1  15
ATOM     13  C   LIG    1        4.759   7.976   5.352  0.00  0.00    +0.180 C 
ATOM     14  C   LIG    1        5.417   7.265   4.475  0.00  0.00    -0.070 C 
ATOM     15  C   LIG    1        6.075   6.554   3.597  0.00  0.00    -0.040 C 
ENDBRANCH   1  15
BRANCH   9  16
ATOM     16  O   LIG    1        2.189   2.280   0.960  0.00  0.00    -0.290 OA
BRANCH  16  17
ATOM     17  C   LIG    1        1.571   1.300   0.124  0.00  0.00    +0.160 C 
ATOM     18  C   LIG    1        0.041   1.247   0.243  0.00  0.00    +0.340 C 
ATOM     19  N   LIG    1        0.139  -0.219   0.179  0.00  0.00    -0.630 N 
ATOM     20  C   LIG    1       -0.658  -1.228  -0.224  0.00  0.00    +0.690 C 
ATOM     21  O   LIG    1       -1.764  -0.989  -0.667  0.00  0.00    -0.560 OA
ATOM     22  C   LIG    1        1.489  -0.099   0.750  0.00  0.00    +0.280 C 
BRANCH  20  23
ATOM     23  O   LIG    1       -0.229  -2.501  -0.137  0.00  0.00    -0.360 OA
BRANCH  23  24
ATOM     24  C   LIG    1       -1.141  -3.537  -0.589  0.00  0.00    +0.140 C 
ATOM     25  C   LIG    1       -2.428  -3.479   0.235  0.00  0.00    +0.040 C 
ATOM     26  C   LIG    1       -0.483  -4.907  -0.414  0.00  0.00    +0.080 C 
ATOM     27  C   LIG    1       -1.471  -3.315  -2.067  0.00  0.00    +0.040 C 
ENDBRANCH  23  24
ENDBRANCH  20  23
ENDBRANCH  16  17
ENDBRANCH   9  16
TORSDOF 5
