REMARK  Name = ZINCpk000005J6s4.0
REMARK                            x       y       z     vdW  Elec       q    Type
REMARK                         _______ _______ _______ _____ _____    ______ ____
ROOT
ATOM      1  N   LIG    1        2.312   5.051   1.450  0.00  0.00    -0.570 N 
ATOM      2  C   LIG    1        3.626   5.330   1.444  0.00  0.00    +0.710 C 
ATOM      3  N   LIG    1        4.084   6.569   1.680  0.00  0.00    -0.720 N 
ATOM      4  H   LIG    1        5.031   6.756   1.584  0.00  0.00    +0.430 HD
ATOM      5  C   LIG    1        3.174   7.642   2.086  0.00  0.00    +0.300 C 
ATOM      6  C   LIG    1        1.833   7.474   1.367  0.00  0.00    +0.000 C 
ATOM      7  O   LIG    1        4.421   4.439   1.215  0.00  0.00    -0.540 OA
ATOM      8  C   LIG    1        1.395   6.035   1.464  0.00  0.00    +0.520 C 
ATOM      9  O   LIG    1        0.217   5.765   1.555  0.00  0.00    -0.480 OA
ENDROOT
BRANCH   6  10
ATOM     10  C   LIG    1        0.784   8.374   2.023  0.00  0.00    +0.000 C 
ATOM     11  C   LIG    1       -0.569   8.279   1.277  0.00  0.00    +0.030 C 
ATOM     12  C   LIG    1       -1.082   9.732   1.239  0.00  0.00    +0.190 C 
ATOM     13  O   LIG    1       -0.126  10.541   1.944  0.00  0.00    -0.370 OA
ATOM     14  C   LIG    1        1.149   9.870   1.847  0.00  0.00    +0.220 C 
ENDBRANCH   6  10
BRANCH   1  15
ATOM     15  C   LIG    1        1.871   3.653   1.446  0.00  0.00    +0.320 C 
BRANCH  15  16
ATOM     16  C   LIG    1        1.704   3.175   0.003  0.00  0.00    +0.330 C 
BRANCH  16  22
ATOM     17  C   LIG    1       -1.245   2.221   0.020  0.00  0.00    +0.160 C 
ATOM     18  C   LIG    1       -0.016   1.349   0.009  0.00  0.00    +0.100 A 
ATOM     19  C   LIG    1        0.002  -0.004   0.002  0.00  0.00    -0.070 A 
ATOM     20  C   LIG    1        1.339  -0.416  -0.013  0.00  0.00    -0.010 A 
ATOM     21  N   LIG    1        2.095   0.651  -0.015  0.00  0.00    -0.230 NA
ATOM     22  N   LIG    1        1.263   1.778  -0.001  0.00  0.00    -0.350 N 
BRANCH  20  23
ATOM     23  C   LIG    1        1.823  -1.843  -0.025  0.00  0.00    +0.560 C 
ATOM     24  F   LIG    1        0.898  -2.655   0.640  0.00  0.00    -0.160 F 
ATOM     25  F   LIG    1        3.061  -1.921   0.623  0.00  0.00    -0.170 F 
ATOM     26  F   LIG    1        1.960  -2.279  -1.347  0.00  0.00    -0.170 F 
ENDBRANCH  20  23
ENDBRANCH  16  22
ENDBRANCH  15  16
ENDBRANCH   1  15
TORSDOF 5
