REMARK  Name = ZINCrg00000fAkTv.0
REMARK                            x       y       z     vdW  Elec       q    Type
REMARK                         _______ _______ _______ _____ _____    ______ ____
ROOT
ATOM      1  N   LIG    1       -0.716   1.562  -1.185  0.00  0.00    -0.530 NA
ATOM      2  C   LIG    1       -2.053   0.961  -1.278  0.00  0.00    +0.170 C 
ATOM      3  C   LIG    1       -2.830   1.629  -2.418  0.00  0.00    +0.280 C 
ATOM      4  N   LIG    1       -2.024   1.546  -3.645  0.00  0.00    -0.610 N 
ATOM      5  C   LIG    1       -0.627   2.002  -3.592  0.00  0.00    +0.300 C 
ATOM      6  C   LIG    1       -2.551   1.063  -4.788  0.00  0.00    +0.520 C 
ATOM      7  O   LIG    1       -1.900   1.082  -5.811  0.00  0.00    -0.540 OA
ATOM      8  C   LIG    1        0.064   1.320  -2.406  0.00  0.00    +0.170 C 
ENDROOT
BRANCH   6   9
ATOM      9  C   LIG    1       -3.949   0.501  -4.794  0.00  0.00    -0.010 C 
ATOM     10  C   LIG    1       -3.910  -0.966  -4.358  0.00  0.00    +0.030 C 
ATOM     11  C   LIG    1       -5.337  -1.524  -4.332  0.00  0.00    +0.300 C 
ATOM     12  N   LIG    1       -5.956  -1.301  -5.646  0.00  0.00    -1.000 NA
ATOM     13  C   LIG    1       -5.965   0.059  -6.201  0.00  0.00    +0.300 C 
ATOM     14  C   LIG    1       -4.532   0.600  -6.205  0.00  0.00    +0.040 C 
BRANCH  12  15
ATOM     15  S   LIG    1       -6.629  -2.560  -6.486  0.00  0.00    +2.610 S 
ATOM     16  O   LIG    1       -7.611  -1.946  -7.309  0.00  0.00    -0.950 OA
ATOM     17  O   LIG    1       -6.996  -3.495  -5.481  0.00  0.00    -0.950 OA
ATOM     18  C   LIG    1       -5.269  -3.210  -7.495  0.00  0.00    -0.280 C 
ENDBRANCH  12  15
ENDBRANCH   6   9
BRANCH   1  19
ATOM     19  C   LIG    1       -0.000   1.072   0.002  0.00  0.00    +0.230 C 
BRANCH  19  23
ATOM     20  C   LIG    1       -1.996   2.428   3.529  0.00  0.00    +0.130 A 
ATOM     21  C   LIG    1       -2.348   1.215   2.954  0.00  0.00    -0.020 A 
ATOM     22  C   LIG    1       -1.702   0.779   1.813  0.00  0.00    +0.050 A 
ATOM     23  C   LIG    1       -0.704   1.550   1.245  0.00  0.00    -0.120 A 
ATOM     24  C   LIG    1       -0.347   2.756   1.820  0.00  0.00    +0.070 A 
ATOM     25  C   LIG    1       -0.995   3.199   2.957  0.00  0.00    -0.080 A 
BRANCH  20  27
ATOM     26  C   LIG    1       -2.216   4.117   5.188  0.00  0.00    +0.250 C 
ATOM     27  O   LIG    1       -2.631   2.859   4.650  0.00  0.00    -0.320 OA
ENDBRANCH  20  27
ENDBRANCH  19  23
ENDBRANCH   1  19
TORSDOF 5
