REMARK  Name = ZINCrH000004uGYo.0
REMARK                            x       y       z     vdW  Elec       q    Type
REMARK                         _______ _______ _______ _____ _____    ______ ____
ROOT
ATOM      1  O   LIG    1        9.625   0.171  -0.032  0.00  0.00    -0.580 OA
ATOM      2  C   LIG    1        9.009   0.514   0.959  0.00  0.00    +0.710 C 
ATOM      3  N   LIG    1        9.536   0.314   2.183  0.00  0.00    -0.710 N 
ATOM      4  H   LIG    1        9.045   0.587   2.973  0.00  0.00    +0.400 HD
ATOM      5  N   LIG    1        7.800   1.095   0.833  0.00  0.00    -0.740 N 
ATOM      6  H   LIG    1        7.308   1.369   1.623  0.00  0.00    +0.400 HD
ENDROOT
BRANCH   3   7
ATOM      7  C   LIG    1       10.851  -0.318   2.320  0.00  0.00    +0.120 C 
ATOM      8  C   LIG    1       11.893  -0.021   1.240  0.00  0.00    +0.040 C 
ATOM      9  C   LIG    1       11.226  -1.397   1.302  0.00  0.00    +0.050 C 
BRANCH   7  10
ATOM     10  C   LIG    1       11.351  -0.496   3.755  0.00  0.00    +0.210 C 
ATOM     11  C   LIG    1       10.875   0.680   4.611  0.00  0.00    +0.000 C 
ATOM     12  C   LIG    1       11.328   0.464   6.058  0.00  0.00    +0.020 C 
ATOM     13  C   LIG    1       10.783  -0.878   6.558  0.00  0.00    -0.010 C 
ATOM     14  C   LIG    1       11.263  -1.993   5.626  0.00  0.00    +0.210 C 
ATOM     15  O   LIG    1       10.834  -1.716   4.292  0.00  0.00    -0.370 OA
ENDBRANCH   7  10
ENDBRANCH   3   7
BRANCH   5  16
ATOM     16  C   LIG    1        7.227   1.313  -0.498  0.00  0.00    +0.350 C 
BRANCH  16  17
ATOM     17  C   LIG    1        5.879   1.973  -0.362  0.00  0.00    -0.030 A 
ATOM     18  C   LIG    1        5.764   3.356  -0.347  0.00  0.00    -0.050 A 
ATOM     19  C   LIG    1        4.514   3.929  -0.221  0.00  0.00    +0.300 A 
ATOM     20  N   LIG    1        3.434   3.179  -0.116  0.00  0.00    -0.520 NA
ATOM     21  C   LIG    1        3.502   1.858  -0.126  0.00  0.00    +0.320 A 
ATOM     22  C   LIG    1        4.727   1.214  -0.245  0.00  0.00    -0.020 A 
BRANCH  21  23
ATOM     23  O   LIG    1        2.366   1.125  -0.015  0.00  0.00    -0.250 OA
BRANCH  23  24
ATOM     24  C   LIG    1        1.178   1.785  -0.021  0.00  0.00    +0.090 A 
ATOM     25  C   LIG    1        0.711   2.364  -1.192  0.00  0.00    +0.000 A 
ATOM     26  C   LIG    1       -0.494   3.039  -1.194  0.00  0.00    +0.020 A 
ATOM     27  C   LIG    1       -1.240   3.129  -0.033  0.00  0.00    +0.010 A 
ATOM     28  C   LIG    1       -0.776   2.553   1.135  0.00  0.00    +0.020 A 
ATOM     29  C   LIG    1        0.431   1.881   1.144  0.00  0.00    +0.010 A 
ENDBRANCH  23  24
ENDBRANCH  21  23
ENDBRANCH  16  17
ENDBRANCH   5  16
TORSDOF 6
