REMARK  Name = ZINCrD000000fRcr.0
REMARK                            x       y       z     vdW  Elec       q    Type
REMARK                         _______ _______ _______ _____ _____    ______ ____
ROOT
ATOM      1  C   LIG    1       -2.448   0.768   0.132  0.00  0.00    -0.160 A 
ATOM      2  C   LIG    1       -2.371  -0.622   0.228  0.00  0.00    +0.110 A 
ATOM      3  C   LIG    1       -3.527  -1.368   0.335  0.00  0.00    +0.000 A 
ATOM      4  C   LIG    1       -4.760  -0.741   0.345  0.00  0.00    +0.160 A 
ATOM      5  C   LIG    1       -4.843   0.637   0.249  0.00  0.00    -0.680 A 
ATOM      6  C   LIG    1       -3.695   1.395   0.148  0.00  0.00    +0.190 A 
ENDROOT
BRANCH   1   9
ATOM      7  N   LIG    1       -0.011   0.966   0.007  0.00  0.00    -0.670 N 
ATOM      8  H   LIG    1        0.043  -0.003   0.007  0.00  0.00    +0.410 HD
ATOM      9  C   LIG    1       -1.214   1.574   0.018  0.00  0.00    +0.560 C 
ATOM     10  O   LIG    1       -1.284   2.784  -0.066  0.00  0.00    -0.500 OA
BRANCH   7  15
ATOM     11  C   LIG    1        2.366   3.691  -0.716  0.00  0.00    -0.150 A 
ATOM     12  C   LIG    1        3.495   3.237  -0.026  0.00  0.00    +0.060 A 
ATOM     13  C   LIG    1        3.448   2.043   0.663  0.00  0.00    +0.030 A 
ATOM     14  C   LIG    1        2.286   1.293   0.679  0.00  0.00    +0.020 A 
ATOM     15  C   LIG    1        1.159   1.732  -0.008  0.00  0.00    +0.130 A 
ATOM     16  C   LIG    1        1.194   2.929  -0.704  0.00  0.00    +0.090 A 
BRANCH  11  18
ATOM     17  C   LIG    1        3.678   5.783  -1.463  0.00  0.00    +0.070 C 
ATOM     18  C   LIG    1        2.413   4.964  -1.452  0.00  0.00    +0.390 C 
ATOM     19  O   LIG    1        1.433   5.355  -2.050  0.00  0.00    -0.450 OA
ENDBRANCH  11  18
ENDBRANCH   7  15
ENDBRANCH   1   9
BRANCH   5  20
ATOM     20  S   LIG    1       -6.419   1.426   0.264  0.00  0.00    +2.690 S 
ATOM     21  O   LIG    1       -7.359   0.453  -0.169  0.00  0.00    -0.950 OA
ATOM     22  O   LIG    1       -6.246   2.680  -0.381  0.00  0.00    -0.950 OA
BRANCH  20  23
ATOM     23  N   LIG    1       -6.785   1.760   1.844  0.00  0.00    -0.990 NA
ATOM     24  C   LIG    1       -7.519   0.786   2.664  0.00  0.00    +0.290 C 
ATOM     25  C   LIG    1       -6.715   0.522   3.946  0.00  0.00    +0.010 C 
ATOM     26  C   LIG    1       -6.436   1.852   4.650  0.00  0.00    +0.020 C 
ATOM     27  C   LIG    1       -5.601   2.750   3.734  0.00  0.00    +0.010 C 
ATOM     28  C   LIG    1       -6.388   3.037   2.451  0.00  0.00    +0.290 C 
ENDBRANCH  20  23
ENDBRANCH   5  20
TORSDOF 5
