REMARK  Name = ZINCqH0000005Idl.0
REMARK                            x       y       z     vdW  Elec       q    Type
REMARK                         _______ _______ _______ _____ _____    ______ ____
ROOT
ATOM      1  C   LIG    1        3.848   5.969   1.083  0.00  0.00    -0.000 A 
ATOM      2  C   LIG    1        3.602   5.194  -0.004  0.00  0.00    -0.070 A 
ATOM      3  C   LIG    1        3.850   6.040  -1.171  0.00  0.00    -0.130 A 
ATOM      4  C   LIG    1        3.781   5.840  -2.551  0.00  0.00    +0.070 A 
ATOM      5  C   LIG    1        4.086   6.866  -3.401  0.00  0.00    +0.010 A 
ATOM      6  C   LIG    1        4.464   8.105  -2.900  0.00  0.00    +0.060 A 
ATOM      7  C   LIG    1        4.530   8.325  -1.541  0.00  0.00    +0.030 A 
ATOM      8  C   LIG    1        4.229   7.295  -0.658  0.00  0.00    +0.080 A 
ATOM      9  O   LIG    1        4.217   7.205   0.686  0.00  0.00    -0.180 OA
ENDROOT
BRANCH   1  12
ATOM     10  N   LIG    1        4.002   6.388   3.482  0.00  0.00    -0.710 N 
ATOM     11  H   LIG    1        4.274   7.298   3.281  0.00  0.00    +0.420 HD
ATOM     12  C   LIG    1        3.731   5.529   2.480  0.00  0.00    +0.610 C 
ATOM     13  O   LIG    1        3.389   4.389   2.732  0.00  0.00    -0.500 OA
BRANCH  10  14
ATOM     14  C   LIG    1        3.885   5.950   4.875  0.00  0.00    +0.290 C 
ATOM     15  C   LIG    1        5.184   5.267   5.306  0.00  0.00    +0.080 C 
BRANCH  14  16
ATOM     16  C   LIG    1        3.628   7.144   5.758  0.00  0.00    +0.460 C 
ATOM     17  O   LIG    1        3.551   8.248   5.274  0.00  0.00    -0.500 OA
BRANCH  16  19
ATOM     18  C   LIG    1        3.240   8.175   7.871  0.00  0.00    +0.280 C 
ATOM     19  O   LIG    1        3.485   6.981   7.083  0.00  0.00    -0.350 OA
ENDBRANCH  16  19
ENDBRANCH  14  16
ENDBRANCH  10  14
ENDBRANCH   1  12
BRANCH   2  20
ATOM     20  C   LIG    1        3.166   3.751  -0.008  0.00  0.00    +0.170 C 
BRANCH  20  21
ATOM     21  S   LIG    1        1.358   3.666   0.009  0.00  0.00    +0.040 S 
BRANCH  21  22
ATOM     22  C   LIG    1        1.134   1.919   0.002  0.00  0.00    +0.020 A 
ATOM     23  N   LIG    1       -0.016   1.317   0.009  0.00  0.00    -0.450 NA
ATOM     24  C   LIG    1        0.002  -0.004   0.002  0.00  0.00    +0.080 A 
ATOM     25  C   LIG    1        1.222  -0.542  -0.013  0.00  0.00    -0.080 A 
ATOM     26  C   LIG    1       -1.255  -0.836   0.009  0.00  0.00    +0.160 C 
ATOM     27  S   LIG    1        2.399   0.769  -0.017  0.00  0.00    +0.130 S 
ENDBRANCH  21  22
ENDBRANCH  20  21
ENDBRANCH   2  20
TORSDOF 7
