REMARK  Name = ZINCrD0000072TOd.0
REMARK                            x       y       z     vdW  Elec       q    Type
REMARK                         _______ _______ _______ _____ _____    ______ ____
ROOT
ATOM      1  N   LIG    1        1.595  -4.498  -2.915  0.00  0.00    -0.690 N 
ATOM      2  H   LIG    1        1.140  -4.051  -3.646  0.00  0.00    +0.420 HD
ENDROOT
BRANCH   1   3
ATOM      3  C   LIG    1        1.819  -3.821  -1.711  0.00  0.00    +0.230 A 
ATOM      4  C   LIG    1        2.391  -4.488  -0.636  0.00  0.00    -0.030 A 
ATOM      5  C   LIG    1        2.613  -3.820   0.554  0.00  0.00    +0.040 A 
ATOM      6  C   LIG    1        2.265  -2.487   0.677  0.00  0.00    +0.060 A 
ATOM      7  C   LIG    1        1.692  -1.815  -0.397  0.00  0.00    +0.160 A 
ATOM      8  F   LIG    1        2.483  -1.837   1.842  0.00  0.00    -0.130 F 
ATOM      9  C   LIG    1        1.464  -2.485  -1.590  0.00  0.00    +0.000 A 
BRANCH   7  10
ATOM     10  N   LIG    1        1.340  -0.465  -0.273  0.00  0.00    -0.580 N 
ATOM     11  C   LIG    1        2.235   0.656  -0.585  0.00  0.00    +0.270 C 
ATOM     12  C   LIG    1        1.604   1.889   0.099  0.00  0.00    +0.060 C 
ATOM     13  C   LIG    1        0.114   1.483   0.171  0.00  0.00    +0.070 C 
ATOM     14  C   LIG    1        0.141  -0.030   0.149  0.00  0.00    +0.520 C 
ATOM     15  O   LIG    1       -0.786  -0.745   0.467  0.00  0.00    -0.510 OA
ENDBRANCH   7  10
ENDBRANCH   1   3
BRANCH   1  21
ATOM     16  C   LIG    1        1.294  -6.862  -2.486  0.00  0.00    -0.130 A 
ATOM     17  C   LIG    1        1.737  -8.178  -2.644  0.00  0.00    +0.180 A 
ATOM     18  C   LIG    1        2.884  -8.435  -3.363  0.00  0.00    -0.060 A 
ATOM     19  C   LIG    1        3.603  -7.395  -3.932  0.00  0.00    +0.160 A 
ATOM     20  C   LIG    1        3.175  -6.091  -3.789  0.00  0.00    +0.030 A 
ATOM     21  C   LIG    1        2.024  -5.810  -3.064  0.00  0.00    +0.260 A 
BRANCH  18  22
ATOM     22  N   LIG    1        3.351  -9.830  -3.530  0.00  0.00    +0.030 N 
ATOM     23  O   LIG    1        4.365 -10.061  -4.164  0.00  0.00    -0.150 OA
ATOM     24  O   LIG    1        2.722 -10.746  -3.032  0.00  0.00    -0.150 OA
ENDBRANCH  18  22
BRANCH  16  25
ATOM     25  C   LIG    1        0.068  -6.580  -1.719  0.00  0.00    +0.500 C 
ATOM     26  O   LIG    1       -0.378  -5.450  -1.681  0.00  0.00    -0.470 OA
BRANCH  25  28
ATOM     27  C   LIG    1       -1.761  -7.224  -0.326  0.00  0.00    +0.290 C 
ATOM     28  O   LIG    1       -0.559  -7.575  -1.061  0.00  0.00    -0.350 OA
ENDBRANCH  25  28
ENDBRANCH  16  25
ENDBRANCH   1  21
TORSDOF 6
