REMARK  Name = ZINCrD00000l17TR.0
REMARK                            x       y       z     vdW  Elec       q    Type
REMARK                         _______ _______ _______ _____ _____    ______ ____
ROOT
ATOM      1  N   LIG    1        0.254   1.319   0.391  0.00  0.00    -0.660 N 
ATOM      2  H   LIG    1        0.139   0.468  -0.061  0.00  0.00    +0.410 HD
ATOM      3  C   LIG    1        1.466   1.674   0.861  0.00  0.00    +0.560 C 
ATOM      4  O   LIG    1        1.627   2.770   1.361  0.00  0.00    -0.480 OA
ENDROOT
BRANCH   1   7
ATOM      5  C   LIG    1       -2.312   0.166   0.812  0.00  0.00    +0.100 C 
ATOM      6  C   LIG    1       -2.107   1.658   0.759  0.00  0.00    -0.100 A 
ATOM      7  C   LIG    1       -0.837   2.178   0.552  0.00  0.00    +0.150 A 
ATOM      8  C   LIG    1       -0.653   3.554   0.498  0.00  0.00    +0.040 A 
ATOM      9  C   LIG    1       -1.730   4.404   0.656  0.00  0.00    +0.030 A 
ATOM     10  C   LIG    1       -2.995   3.889   0.868  0.00  0.00    +0.020 A 
ATOM     11  C   LIG    1       -3.186   2.514   0.922  0.00  0.00    +0.180 A 
BRANCH  11  12
ATOM     12  N   LIG    1       -4.467   1.993   1.137  0.00  0.00    -0.590 N 
ATOM     13  C   LIG    1       -5.438   1.656   0.085  0.00  0.00    +0.260 C 
ATOM     14  C   LIG    1       -6.660   1.132   0.864  0.00  0.00    +0.270 C 
ATOM     15  N   LIG    1       -6.248   1.230   2.273  0.00  0.00    -0.740 N 
ATOM     16  H   LIG    1       -6.791   0.978   3.036  0.00  0.00    +0.430 HD
ATOM     17  C   LIG    1       -5.002   1.718   2.334  0.00  0.00    +0.700 C 
ATOM     18  O   LIG    1       -4.412   1.897   3.381  0.00  0.00    -0.570 OA
ENDBRANCH  11  12
ENDBRANCH   1   7
BRANCH   3  19
ATOM     19  C   LIG    1        2.602   0.729   0.768  0.00  0.00    -0.040 A 
ATOM     20  C   LIG    1        2.437  -0.536   0.202  0.00  0.00    -0.060 A 
ATOM     21  C   LIG    1        3.533  -1.389   0.130  0.00  0.00    +0.410 A 
ATOM     22  N   LIG    1        4.713  -1.016   0.599  0.00  0.00    -0.510 NA
ATOM     23  C   LIG    1        4.905   0.170   1.145  0.00  0.00    +0.350 A 
ATOM     24  C   LIG    1        3.871   1.079   1.250  0.00  0.00    -0.100 A 
ATOM     25 CL   LIG    1        4.138   2.635   1.971  0.00  0.00    -0.020 Cl
BRANCH  21  26
ATOM     26  N   LIG    1        3.386  -2.652  -0.435  0.00  0.00    -0.690 N 
ATOM     27  H   LIG    1        4.125  -3.280  -0.417  0.00  0.00    +0.410 HD
BRANCH  26  28
ATOM     28  C   LIG    1        2.116  -3.032  -1.058  0.00  0.00    +0.210 C 
ATOM     29  C   LIG    1        1.619  -4.461  -0.834  0.00  0.00    +0.020 C 
ATOM     30  C   LIG    1        2.166  -4.046  -2.203  0.00  0.00    +0.020 C 
ENDBRANCH  26  28
ENDBRANCH  21  26
ENDBRANCH   3  19
TORSDOF 5
