REMARK  Name = ZINCpe00000FUb8C.0
REMARK                            x       y       z     vdW  Elec       q    Type
REMARK                         _______ _______ _______ _____ _____    ______ ____
ROOT
ATOM      1  N   LIG    1       -0.125   0.939   2.468  0.00  0.00    -0.540 N 
ATOM      2  C   LIG    1        0.802   1.818   2.878  0.00  0.00    +0.710 A 
ATOM      3  N   LIG    1        1.589   1.590   3.942  0.00  0.00    -0.560 N 
ATOM      4  C   LIG    1        1.477   0.450   4.654  0.00  0.00    +0.580 A 
ATOM      5  C   LIG    1        0.474  -0.541   4.242  0.00  0.00    -0.460 A 
ATOM      6  O   LIG    1        2.191   0.246   5.619  0.00  0.00    -0.500 OA
ATOM      7  C   LIG    1        2.582   2.593   4.335  0.00  0.00    +0.340 C 
ATOM      8  O   LIG    1        0.936   2.858   2.264  0.00  0.00    -0.520 OA
ATOM      9  C   LIG    1       -0.323  -0.243   3.123  0.00  0.00    +0.560 A 
ENDROOT
BRANCH   9  10
ATOM     10  N   LIG    1       -1.272  -1.120   2.697  0.00  0.00    -0.790 N 
ATOM     11  H   LIG    1       -1.464  -1.916   3.216  0.00  0.00    +0.440 HD
ATOM     12  H   LIG    1       -1.757  -0.948   1.875  0.00  0.00    +0.410 HD
ENDBRANCH   9  10
BRANCH   5  13
ATOM     13  C   LIG    1        0.312  -1.752   4.950  0.00  0.00    +0.440 C 
ATOM     14  O   LIG    1       -0.596  -2.506   4.663  0.00  0.00    -0.500 OA
BRANCH  13  15
ATOM     15  C   LIG    1        1.266  -2.108   6.061  0.00  0.00    +0.220 C 
BRANCH  15  16
ATOM     16  N   LIG    1        0.887  -3.406   6.634  0.00  0.00    -0.520 NA
ATOM     17  C   LIG    1        1.923  -3.899   7.553  0.00  0.00    +0.230 C 
ATOM     18  C   LIG    1        2.244  -2.807   8.580  0.00  0.00    +0.080 C 
ATOM     19  C   LIG    1        0.935  -2.293   9.143  0.00  0.00    -0.180 A 
ATOM     20  C   LIG    1       -0.268  -2.519   8.580  0.00  0.00    -0.140 A 
ATOM     21  C   LIG    1       -1.327  -1.950   9.277  0.00  0.00    +0.020 A 
ATOM     22  C   LIG    1       -0.997  -1.278  10.377  0.00  0.00    -0.060 A 
ATOM     23  S   LIG    1        0.746  -1.331  10.601  0.00  0.00    +0.100 S 
ATOM     24  C   LIG    1       -0.421  -3.326   7.298  0.00  0.00    +0.300 C 
ENDBRANCH  15  16
ENDBRANCH  13  15
ENDBRANCH   5  13
BRANCH   1  25
ATOM     25  C   LIG    1       -0.947   1.256   1.297  0.00  0.00    +0.300 C 
BRANCH  25  27
ATOM     26  C   LIG    1       -1.115   1.068  -1.188  0.00  0.00    +0.040 C 
ATOM     27  C   LIG    1       -0.257   0.736   0.034  0.00  0.00    +0.010 C 
ENDBRANCH  25  27
ENDBRANCH   1  25
TORSDOF 6
