REMARK  Name = ZINCpe000000XVTE.0
REMARK                            x       y       z     vdW  Elec       q    Type
REMARK                         _______ _______ _______ _____ _____    ______ ____
ROOT
ATOM      1  C   LIG    1       -3.575   1.565   5.606  0.00  0.00    +0.560 C 
ATOM      2  N   LIG    1       -2.450   2.023   5.022  0.00  0.00    -0.720 N 
ATOM      3  H   LIG    1       -1.985   2.787   5.399  0.00  0.00    +0.400 HD
ATOM      4  O   LIG    1       -4.158   0.608   5.134  0.00  0.00    -0.530 OA
ENDROOT
BRANCH   1   8
ATOM      5  C   LIG    1       -5.084   3.462   9.094  0.00  0.00    +0.180 A 
ATOM      6  C   LIG    1       -5.752   2.367   8.556  0.00  0.00    +0.020 A 
ATOM      7  C   LIG    1       -5.266   1.750   7.425  0.00  0.00    +0.110 A 
ATOM      8  C   LIG    1       -4.100   2.224   6.818  0.00  0.00    -0.140 A 
ATOM      9  C   LIG    1       -3.428   3.321   7.365  0.00  0.00    +0.080 A 
ATOM     10  C   LIG    1       -3.923   3.936   8.494  0.00  0.00    +0.000 A 
BRANCH   5  16
ATOM     11  C   LIG    1       -3.334   4.687  11.304  0.00  0.00    +0.150 C 
ATOM     12  C   LIG    1       -4.839   4.638  11.238  0.00  0.00    +0.090 A 
ATOM     13  C   LIG    1       -5.695   5.138  12.158  0.00  0.00    -0.100 A 
ATOM     14  C   LIG    1       -6.999   4.878  11.720  0.00  0.00    +0.250 A 
ATOM     15  N   LIG    1       -6.931   4.249  10.575  0.00  0.00    -0.290 NA
ATOM     16  N   LIG    1       -5.580   4.086  10.242  0.00  0.00    -0.330 N 
ENDBRANCH   5  16
ENDBRANCH   1   8
BRANCH   2  17
ATOM     17  C   LIG    1       -1.929   1.369   3.820  0.00  0.00    +0.230 C 
ATOM     18  C   LIG    1       -0.422   1.618   3.713  0.00  0.00    +0.040 C 
ATOM     19  C   LIG    1        0.105   0.984   2.424  0.00  0.00    +0.180 C 
ATOM     20  N   LIG    1       -0.589   1.569   1.270  0.00  0.00    -0.520 NA
ATOM     21  C   LIG    1       -2.032   1.303   1.326  0.00  0.00    +0.180 C 
ATOM     22  C   LIG    1       -2.623   1.946   2.582  0.00  0.00    +0.030 C 
BRANCH  20  23
ATOM     23  C   LIG    1       -0.013   1.086   0.008  0.00  0.00    +0.200 C 
BRANCH  23  24
ATOM     24  C   LIG    1        1.397   1.601  -0.131  0.00  0.00    +0.520 C 
ATOM     25  O   LIG    1        1.835   2.392   0.677  0.00  0.00    -0.520 OA
ATOM     26  N   LIG    1        2.170   1.182  -1.152  0.00  0.00    -0.860 N 
ATOM     27  H   LIG    1        3.077   1.514  -1.241  0.00  0.00    +0.400 HD
ATOM     28  H   LIG    1        1.819   0.549  -1.798  0.00  0.00    +0.400 HD
ENDBRANCH  23  24
ENDBRANCH  20  23
ENDBRANCH   2  17
TORSDOF 5
