REMARK  Name = ZINCvU0000000Du3.0
REMARK                            x       y       z     vdW  Elec       q    Type
REMARK                         _______ _______ _______ _____ _____    ______ ____
ROOT
ATOM      1  C   LIG    1        1.890  -3.944  -0.032  0.00  0.00    +0.200 A 
ATOM      2  N   LIG    1        1.054  -2.936  -0.010  0.00  0.00    -0.460 NA
ATOM      3  C   LIG    1        1.825  -1.825  -0.016  0.00  0.00    +0.260 A 
ATOM      4  N   LIG    1        3.071  -2.220  -0.045  0.00  0.00    -0.380 NA
ATOM      5  O   LIG    1        3.124  -3.432  -0.049  0.00  0.00    +0.100 OA
ENDROOT
BRANCH   3   6
ATOM      6  C   LIG    1        1.347  -0.421   0.002  0.00  0.00    -0.160 A 
ATOM      7  C   LIG    1        2.129   0.698  -0.005  0.00  0.00    +0.300 A 
ATOM      8  N   LIG    1        1.308   1.769   0.016  0.00  0.00    -0.310 N 
ATOM      9  N   LIG    1       -0.014   1.308   0.035  0.00  0.00    -0.280 NA
ATOM     10  C   LIG    1        0.002   0.001   0.027  0.00  0.00    +0.310 A 
BRANCH   8  11
ATOM     11  C   LIG    1        1.709   3.112   0.017  0.00  0.00    +0.170 A 
ATOM     12  C   LIG    1        0.757   4.122   0.040  0.00  0.00    +0.040 A 
ATOM     13  C   LIG    1        1.155   5.445   0.041  0.00  0.00    +0.070 A 
ATOM     14  C   LIG    1        2.500   5.764   0.021  0.00  0.00    +0.030 A 
ATOM     15  C   LIG    1        3.452   4.760  -0.002  0.00  0.00    -0.010 A 
ATOM     16 CL   LIG    1        5.140   5.165  -0.029  0.00  0.00    -0.050 Cl
ATOM     17  C   LIG    1        3.060   3.434   0.002  0.00  0.00    +0.010 A 
ENDBRANCH   8  11
ENDBRANCH   3   6
BRANCH   1  18
ATOM     18  C   LIG    1        1.527  -5.407  -0.035  0.00  0.00    +0.150 C 
ATOM     19  C   LIG    1        1.742  -5.982  -1.436  0.00  0.00    +0.090 C 
BRANCH  18  20
ATOM     20  S   LIG    1        2.577  -6.293   1.151  0.00  0.00    -0.120 S 
BRANCH  20  21
ATOM     21  C   LIG    1        1.900  -7.975   1.117  0.00  0.00    +0.100 C 
BRANCH  21  24
ATOM     22  N   LIG    1        2.351 -10.148   2.209  0.00  0.00    -0.670 N 
ATOM     23  H   LIG    1        1.574 -10.506   1.752  0.00  0.00    +0.410 HD
ATOM     24  C   LIG    1        2.678  -8.849   2.067  0.00  0.00    +0.530 C 
ATOM     25  O   LIG    1        3.599  -8.382   2.704  0.00  0.00    -0.490 OA
BRANCH  22  30
ATOM     26  C   LIG    1        5.519 -13.530   5.482  0.00  0.00    +0.090 C 
ATOM     27  C   LIG    1        4.678 -12.632   4.612  0.00  0.00    -0.100 A 
ATOM     28  C   LIG    1        4.492 -11.308   4.965  0.00  0.00    +0.030 A 
ATOM     29  C   LIG    1        3.721 -10.482   4.170  0.00  0.00    +0.030 A 
ATOM     30  C   LIG    1        3.133 -10.982   3.016  0.00  0.00    +0.130 A 
ATOM     31  C   LIG    1        3.318 -12.314   2.667  0.00  0.00    -0.010 A 
ATOM     32  C   LIG    1        4.094 -13.133   3.463  0.00  0.00    +0.030 A 
ENDBRANCH  22  30
ENDBRANCH  21  24
ENDBRANCH  20  21
ENDBRANCH  18  20
ENDBRANCH   1  18
TORSDOF 7
