REMARK  Name = ZINCkj00000xovMW.1
REMARK                            x       y       z     vdW  Elec       q    Type
REMARK                         _______ _______ _______ _____ _____    ______ ____
ROOT
ATOM      1  C   LIG    1       -4.090   2.034  -0.003  0.00  0.00    +0.140 C 
ATOM      2  C   LIG    1       -4.965   2.466  -1.182  0.00  0.00    +0.030 C 
ATOM      3  C   LIG    1       -6.344   1.810  -1.057  0.00  0.00    +0.280 C 
ATOM      4  N   LIG    1       -6.905   2.137   0.261  0.00  0.00    -0.610 N 
ATOM      5  C   LIG    1       -6.106   1.847   1.460  0.00  0.00    +0.280 C 
ATOM      6  C   LIG    1       -8.128   2.691   0.369  0.00  0.00    +0.610 C 
ATOM      7  O   LIG    1       -8.724   3.049  -0.630  0.00  0.00    -0.510 OA
ATOM      8  C   LIG    1       -4.730   2.502   1.306  0.00  0.00    +0.030 C 
ENDROOT
BRANCH   1  12
ATOM      9  C   LIG    1        0.128   2.681  -0.268  0.00  0.00    +0.160 C 
ATOM     10  C   LIG    1       -0.635   3.185   0.960  0.00  0.00    +0.050 C 
ATOM     11  C   LIG    1       -1.960   2.425   1.077  0.00  0.00    +0.200 C 
ATOM     12  N   LIG    1       -2.756   2.635  -0.138  0.00  0.00    -0.540 NA
ATOM     13  C   LIG    1       -2.063   2.116  -1.324  0.00  0.00    +0.200 C 
ATOM     14  C   LIG    1       -0.743   2.867  -1.514  0.00  0.00    +0.050 C 
BRANCH   9  15
ATOM     15  N   LIG    1        1.373   3.446  -0.421  0.00  0.00    -0.640 N 
ATOM     16  H   LIG    1        1.874   3.115  -1.232  0.00  0.00    +0.440 HD
ATOM     17  H   LIG    1        1.945   3.325   0.401  0.00  0.00    +0.440 HD
ATOM     18  H   LIG    1        1.154   4.424  -0.538  0.00  0.00    +0.430 HD
ENDBRANCH   9  15
ENDBRANCH   1  12
BRANCH   6  19
ATOM     19  C   LIG    1       -8.742   2.863   1.689  0.00  0.00    -0.090 A 
ATOM     20  C   LIG    1       -9.900   3.536   1.954  0.00  0.00    +0.050 A 
ATOM     21  C   LIG    1      -10.110   3.448   3.339  0.00  0.00    -0.060 A 
ATOM     22  C   LIG    1       -9.084   2.735   3.853  0.00  0.00    +0.200 A 
ATOM     23  O   LIG    1       -8.264   2.380   2.855  0.00  0.00    -0.160 OA
ENDBRANCH   6  19
TORSDOF 3
