REMARK  Name = ZINCrH000004tGFf.0
REMARK                            x       y       z     vdW  Elec       q    Type
REMARK                         _______ _______ _______ _____ _____    ______ ____
ROOT
ATOM      1  O   LIG    1       -1.072   2.087  -0.063  0.00  0.00    -0.480 OA
ATOM      2  C   LIG    1       -0.016   1.500  -0.033  0.00  0.00    +0.470 C 
ENDROOT
BRANCH   2   3
ATOM      3  O   LIG    1        1.135   2.190   0.003  0.00  0.00    -0.290 OA
BRANCH   3   4
ATOM      4  C   LIG    1        1.047   3.543  -0.095  0.00  0.00    +0.100 A 
ATOM      5  C   LIG    1        1.355   4.155  -1.276  0.00  0.00    +0.040 A 
ATOM      6  C   LIG    1        1.260   5.552  -1.379  0.00  0.00    -0.030 A 
ATOM      7  C   LIG    1        1.564   6.216  -2.580  0.00  0.00    +0.050 A 
ATOM      8  C   LIG    1        1.466   7.572  -2.643  0.00  0.00    +0.050 A 
ATOM      9  C   LIG    1        1.067   8.316  -1.533  0.00  0.00    -0.080 A 
ATOM     10  C   LIG    1        0.765   7.706  -0.353  0.00  0.00    +0.070 A 
ATOM     11 BR   LIG    1        0.945  10.198  -1.667  0.00  0.00    -0.040 Br
ATOM     12  C   LIG    1        0.855   6.308  -0.250  0.00  0.00    -0.050 A 
ATOM     13  C   LIG    1        0.550   5.645   0.952  0.00  0.00    +0.060 A 
ATOM     14  C   LIG    1        0.647   4.290   1.018  0.00  0.00    +0.010 A 
ENDBRANCH   3   4
ENDBRANCH   2   3
BRANCH   2  15
ATOM     15  C   LIG    1        0.009  -0.007  -0.041  0.00  0.00    +0.110 C 
BRANCH  15  16
ATOM     16  C   LIG    1       -1.425  -0.540  -0.084  0.00  0.00    +0.350 C 
BRANCH  16  17
ATOM     17  N   LIG    1       -1.401  -2.005  -0.092  0.00  0.00    -0.580 N 
ATOM     18  C   LIG    1       -1.364  -2.751  -1.203  0.00  0.00    +0.700 C 
ATOM     19  N   LIG    1       -1.345  -4.072  -0.934  0.00  0.00    -0.710 N 
ATOM     20  H   LIG    1       -1.315  -4.797  -1.579  0.00  0.00    +0.440 HD
ATOM     21  C   LIG    1       -1.383  -4.194   0.524  0.00  0.00    +0.120 C 
ATOM     22  C   LIG    1       -2.624  -4.970   0.983  0.00  0.00    +0.060 C 
ATOM     23  C   LIG    1       -2.096  -6.406   1.235  0.00  0.00    +0.030 C 
ATOM     24  C   LIG    1       -0.691  -6.156   1.837  0.00  0.00    +0.040 C 
ATOM     25  C   LIG    1       -0.154  -4.936   1.055  0.00  0.00    +0.050 C 
ATOM     26  O   LIG    1       -1.347  -2.289  -2.327  0.00  0.00    -0.530 OA
ATOM     27  C   LIG    1       -1.419  -2.771   1.021  0.00  0.00    +0.530 C 
ATOM     28  O   LIG    1       -1.457  -2.394   2.172  0.00  0.00    -0.450 OA
ENDBRANCH  16  17
ENDBRANCH  15  16
ENDBRANCH   2  15
TORSDOF 5
