REMARK  Name = ZINCrD000000AhxB.0
REMARK                            x       y       z     vdW  Elec       q    Type
REMARK                         _______ _______ _______ _____ _____    ______ ____
ROOT
ATOM      1  C   LIG    1       -7.211   5.043  -2.322  0.00  0.00    -0.150 A 
ATOM      2  C   LIG    1       -7.591   5.329  -3.592  0.00  0.00    +0.120 A 
ATOM      3  N   LIG    1       -8.208   6.558  -3.623  0.00  0.00    -0.590 N 
ATOM      4  H   LIG    1       -8.568   6.982  -4.418  0.00  0.00    +0.420 HD
ATOM      5  C   LIG    1       -8.238   7.097  -2.356  0.00  0.00    +0.110 A 
ATOM      6  C   LIG    1       -8.733   8.289  -1.838  0.00  0.00    -0.010 A 
ATOM      7  C   LIG    1       -8.613   8.553  -0.491  0.00  0.00    +0.040 A 
ATOM      8  C   LIG    1       -8.000   7.641   0.358  0.00  0.00    -0.020 A 
ATOM      9  C   LIG    1       -7.506   6.464  -0.128  0.00  0.00    +0.050 A 
ATOM     10  C   LIG    1       -7.623   6.172  -1.490  0.00  0.00    -0.100 A 
ENDROOT
BRANCH   2  11
ATOM     11  C   LIG    1       -7.376   4.453  -4.765  0.00  0.00    -0.050 A 
ATOM     12  C   LIG    1       -7.704   3.099  -4.697  0.00  0.00    +0.080 A 
ATOM     13  C   LIG    1       -7.507   2.288  -5.795  0.00  0.00    -0.010 A 
ATOM     14  C   LIG    1       -6.971   2.813  -6.960  0.00  0.00    +0.110 A 
ATOM     15  C   LIG    1       -6.638   4.157  -7.031  0.00  0.00    -0.010 A 
ATOM     16  F   LIG    1       -6.774   2.014  -8.031  0.00  0.00    -0.140 F 
ATOM     17  C   LIG    1       -6.837   4.978  -5.941  0.00  0.00    +0.050 A 
ENDBRANCH   2  11
BRANCH   1  18
ATOM     18  C   LIG    1       -6.505   3.796  -1.857  0.00  0.00    +0.120 C 
BRANCH  18  19
ATOM     19  C   LIG    1       -4.992   4.019  -1.905  0.00  0.00    +0.120 C 
BRANCH  19  21
ATOM     20  O   LIG    1       -4.926   1.797  -1.122  0.00  0.00    -0.500 OA
ATOM     21  C   LIG    1       -4.285   2.768  -1.450  0.00  0.00    +0.460 C 
BRANCH  21  22
ATOM     22  O   LIG    1       -2.944   2.731  -1.411  0.00  0.00    -0.330 OA
BRANCH  22  23
ATOM     23  C   LIG    1       -2.331   1.493  -0.963  0.00  0.00    +0.170 C 
ATOM     24  C   LIG    1       -0.952   1.298  -1.635  0.00  0.00    +0.070 C 
ATOM     25  C   LIG    1       -0.136   0.650  -0.495  0.00  0.00    +0.270 C 
ATOM     26  N   LIG    1       -0.779   1.088   0.749  0.00  0.00    -0.730 N 
ATOM     27  H   LIG    1       -0.365   1.043   1.625  0.00  0.00    +0.420 HD
ATOM     28  C   LIG    1       -2.018   1.562   0.515  0.00  0.00    +0.510 C 
ATOM     29  O   LIG    1       -2.772   1.983   1.367  0.00  0.00    -0.510 OA
ENDBRANCH  22  23
ENDBRANCH  21  22
ENDBRANCH  19  21
ENDBRANCH  18  19
ENDBRANCH   1  18
TORSDOF 6
