REMARK  Name = ZINCpe00000bDcT5.2
REMARK                            x       y       z     vdW  Elec       q    Type
REMARK                         _______ _______ _______ _____ _____    ______ ____
ROOT
ATOM      1  N   LIG    1       -6.091   7.426   2.341  0.00  0.00    -0.490 NA
ATOM      2  C   LIG    1       -6.662   6.743   1.150  0.00  0.00    +0.170 C 
ATOM      3  C   LIG    1       -5.784   7.265  -0.018  0.00  0.00    +0.060 C 
ATOM      4  C   LIG    1       -4.394   7.365   0.626  0.00  0.00    -0.110 C 
ATOM      5  C   LIG    1       -3.450   8.398   0.027  0.00  0.00    +0.300 C 
ATOM      6  N   LIG    1       -2.358   7.431   0.231  0.00  0.00    -0.640 N 
ATOM      7  C   LIG    1       -1.024   7.501   0.415  0.00  0.00    +0.610 C 
ATOM      8  O   LIG    1       -0.483   8.583   0.532  0.00  0.00    -0.540 OA
ATOM      9  C   LIG    1       -3.359   6.354   0.141  0.00  0.00    +0.280 C 
ATOM     10  C   LIG    1       -4.623   7.443   2.135  0.00  0.00    +0.210 C 
ENDROOT
BRANCH   7  11
ATOM     11  C   LIG    1       -0.222   6.263   0.473  0.00  0.00    -0.240 A 
ATOM     12  C   LIG    1        1.123   6.331   0.799  0.00  0.00    +0.400 A 
ATOM     13  N   LIG    1        1.893   5.239   0.864  0.00  0.00    -0.490 N 
ATOM     14  H   LIG    1        2.831   5.327   1.096  0.00  0.00    +0.430 HD
ATOM     15  C   LIG    1        1.372   3.996   0.608  0.00  0.00    +0.240 A 
ATOM     16  N   LIG    1        1.865   2.772   0.594  0.00  0.00    -0.530 NA
ATOM     17  C   LIG    1        0.922   1.883   0.276  0.00  0.00    +0.220 A 
ATOM     18  C   LIG    1       -0.268   2.497   0.053  0.00  0.00    -0.080 A 
ATOM     19  C   LIG    1       -0.050   3.879   0.259  0.00  0.00    -0.170 A 
ATOM     20  C   LIG    1       -0.828   5.026   0.197  0.00  0.00    +0.190 A 
ENDBRANCH   7  11
BRANCH   1  21
ATOM     21  C   LIG    1       -6.442   6.712   3.576  0.00  0.00    +0.130 C 
ATOM     22  C   LIG    1       -7.963   6.576   3.672  0.00  0.00    +0.070 C 
BRANCH  21  26
ATOM     23  C   LIG    1       -5.641   7.766   7.168  0.00  0.00    +0.290 C 
ATOM     24  N   LIG    1       -6.138   7.016   6.012  0.00  0.00    -0.740 N 
ATOM     25  H   LIG    1       -6.616   6.182   6.144  0.00  0.00    +0.400 HD
ATOM     26  C   LIG    1       -5.931   7.484   4.765  0.00  0.00    +0.510 C 
ATOM     27  O   LIG    1       -5.333   8.527   4.600  0.00  0.00    -0.520 OA
ENDBRANCH  21  26
ENDBRANCH   1  21
TORSDOF 3
