REMARK  Name = ZINCpe00000bDcT5.1
REMARK                            x       y       z     vdW  Elec       q    Type
REMARK                         _______ _______ _______ _____ _____    ______ ____
ROOT
ATOM      1  N   LIG    1       -0.603  -3.209  -2.877  0.00  0.00    -0.490 NA
ATOM      2  C   LIG    1       -1.238  -3.849  -1.695  0.00  0.00    +0.170 C 
ATOM      3  C   LIG    1       -0.476  -3.224  -0.495  0.00  0.00    +0.060 C 
ATOM      4  C   LIG    1       -0.239  -1.782  -0.965  0.00  0.00    -0.110 C 
ATOM      5  C   LIG    1        0.979  -1.078  -0.380  0.00  0.00    +0.300 C 
ATOM      6  N   LIG    1        0.167   0.150  -0.325  0.00  0.00    -0.640 N 
ATOM      7  C   LIG    1        0.413   1.475  -0.344  0.00  0.00    +0.600 C 
ATOM      8  O   LIG    1        1.560   1.880  -0.368  0.00  0.00    -0.530 OA
ATOM      9  C   LIG    1       -1.031  -0.702  -0.233  0.00  0.00    +0.280 C 
ATOM     10  C   LIG    1       -0.349  -1.801  -2.489  0.00  0.00    +0.220 C 
ENDROOT
BRANCH   7  11
ATOM     11  C   LIG    1       -0.709   2.435  -0.342  0.00  0.00    -0.210 A 
ATOM     12  C   LIG    1       -0.473   3.803  -0.526  0.00  0.00    +0.380 A 
ATOM     13  N   LIG    1       -1.457   4.672  -0.528  0.00  0.00    -0.500 NA
ATOM     14  C   LIG    1       -2.721   4.301  -0.356  0.00  0.00    +0.300 A 
ATOM     15  N   LIG    1       -3.902   4.997  -0.317  0.00  0.00    -0.580 N 
ATOM     16  H   LIG    1       -3.985   5.958  -0.421  0.00  0.00    +0.420 HD
ATOM     17  C   LIG    1       -4.948   4.138  -0.111  0.00  0.00    +0.240 A 
ATOM     18  C   LIG    1       -4.494   2.879  -0.009  0.00  0.00    -0.030 A 
ATOM     19  C   LIG    1       -3.039   2.941  -0.164  0.00  0.00    -0.170 A 
ATOM     20  C   LIG    1       -2.021   1.990  -0.162  0.00  0.00    +0.150 A 
ENDBRANCH   7  11
BRANCH   1  21
ATOM     21  C   LIG    1       -1.483  -3.282  -4.051  0.00  0.00    +0.130 C 
ATOM     22  C   LIG    1       -1.898  -4.736  -4.288  0.00  0.00    +0.060 C 
BRANCH  21  26
ATOM     23  C   LIG    1       -0.651  -2.234  -7.637  0.00  0.00    +0.290 C 
ATOM     24  N   LIG    1       -1.364  -2.737  -6.460  0.00  0.00    -0.740 N 
ATOM     25  H   LIG    1       -2.278  -3.049  -6.544  0.00  0.00    +0.400 HD
ATOM     26  C   LIG    1       -0.749  -2.765  -5.261  0.00  0.00    +0.510 C 
ATOM     27  O   LIG    1        0.394  -2.374  -5.156  0.00  0.00    -0.520 OA
ENDBRANCH  21  26
ENDBRANCH   1  21
TORSDOF 3
