REMARK  Name = ZINCrg00001JduSj.0
REMARK                            x       y       z     vdW  Elec       q    Type
REMARK                         _______ _______ _______ _____ _____    ______ ____
ROOT
ATOM      1  C   LIG    1        3.528   2.136  -0.020  0.00  0.00    -0.230 A 
ATOM      2  N   LIG    1        3.497   3.456  -0.013  0.00  0.00    -0.400 NA
ATOM      3  C   LIG    1        2.354   4.119   0.001  0.00  0.00    +0.370 A 
ATOM      4  C   LIG    1        1.162   3.394   0.009  0.00  0.00    +0.090 A 
ATOM      5  C   LIG    1        1.240   1.996   0.001  0.00  0.00    +0.090 A 
ATOM      6  C   LIG    1       -0.015   1.215   0.009  0.00  0.00    +0.460 A 
ATOM      7  C   LIG    1       -1.237   1.930   0.018  0.00  0.00    -0.250 A 
ATOM      8  C   LIG    1       -1.234   3.333   0.030  0.00  0.00    +0.510 A 
ATOM      9  N   LIG    1       -2.449   3.962   0.043  0.00  0.00    -0.610 N 
ATOM     10  H   LIG    1       -3.260   3.429   0.046  0.00  0.00    +0.450 HD
ATOM     11  C   LIG    1       -2.543   5.341   0.050  0.00  0.00    +0.200 A 
ATOM     12  C   LIG    1       -3.772   5.984   0.063  0.00  0.00    +0.020 A 
ATOM     13  C   LIG    1       -3.825   7.364   0.070  0.00  0.00    +0.140 A 
ATOM     14  C   LIG    1       -2.659   8.116   0.064  0.00  0.00    -0.070 A 
ATOM     15  C   LIG    1       -1.427   7.493   0.052  0.00  0.00    +0.170 A 
ATOM     16 CL   LIG    1       -2.750   9.849   0.074  0.00  0.00    -0.040 Cl
ATOM     17  C   LIG    1       -1.360   6.101   0.045  0.00  0.00    -0.180 A 
ATOM     18  C   LIG    1       -0.073   5.390   0.030  0.00  0.00    +0.570 A 
ATOM     19  O   LIG    1        0.973   6.010   0.024  0.00  0.00    -0.450 OA
ATOM     20  O   LIG    1        0.002  -0.004   0.002  0.00  0.00    -0.410 OA
ATOM     21  N   LIG    1       -0.067   4.035   0.023  0.00  0.00    -0.450 N 
ATOM     22  N   LIG    1        2.431   1.408  -0.014  0.00  0.00    -0.360 NA
ENDROOT
BRANCH   1  24
ATOM     23  C   LIG    1        5.509   1.104   1.712  0.00  0.00    -0.210 C 
ATOM     24  S   LIG    1        5.090   1.322  -0.039  0.00  0.00    +2.520 S 
ATOM     25  O   LIG    1        5.967   2.260  -0.648  0.00  0.00    -0.900 OA
ATOM     26  O   LIG    1        4.824   0.066  -0.648  0.00  0.00    -0.900 OA
ENDBRANCH   1  24
BRANCH   7  27
ATOM     27  C   LIG    1       -2.479   1.219   0.020  0.00  0.00    +0.270 C 
ATOM     28  N   LIG    1       -3.465   0.654   0.022  0.00  0.00    -0.390 NA
ENDBRANCH   7  27
TORSDOF 2
