REMARK  Name = ZINCrH000004tRpu.0
REMARK                            x       y       z     vdW  Elec       q    Type
REMARK                         _______ _______ _______ _____ _____    ______ ____
ROOT
ATOM      1  C   LIG    1        4.663   1.376   0.465  0.00  0.00    +0.360 A 
ATOM      2  N   LIG    1        3.511   1.999   0.510  0.00  0.00    -0.530 NA
ATOM      3  C   LIG    1        2.376   1.422   0.051  0.00  0.00    +0.160 A 
ATOM      4  C   LIG    1        1.147   2.086   0.100  0.00  0.00    +0.030 A 
ATOM      5  C   LIG    1        0.016   1.464  -0.378  0.00  0.00    +0.070 A 
ATOM      6  C   LIG    1        0.080   0.182  -0.910  0.00  0.00    +0.000 A 
ATOM      7  C   LIG    1        1.278  -0.493  -0.970  0.00  0.00    +0.100 A 
ATOM      8  C   LIG    1        2.437   0.118  -0.491  0.00  0.00    -0.200 A 
ATOM      9  C   LIG    1        3.741  -0.557  -0.531  0.00  0.00    +0.560 A 
ATOM     10  O   LIG    1        3.856  -1.681  -0.985  0.00  0.00    -0.490 OA
ATOM     11  N   LIG    1        4.809   0.115  -0.043  0.00  0.00    -0.490 N 
ENDROOT
BRANCH  11  12
ATOM     12  C   LIG    1        6.074  -0.486  -0.058  0.00  0.00    +0.100 A 
ATOM     13  C   LIG    1        6.495  -1.249   1.022  0.00  0.00    +0.060 A 
ATOM     14  C   LIG    1        7.743  -1.841   1.005  0.00  0.00    +0.060 A 
ATOM     15  C   LIG    1        8.574  -1.674  -0.087  0.00  0.00    +0.050 A 
ATOM     16  C   LIG    1        8.158  -0.914  -1.167  0.00  0.00    -0.030 A 
ATOM     17 CL   LIG    1        9.204  -0.707  -2.536  0.00  0.00    -0.050 Cl
ATOM     18  C   LIG    1        6.908  -0.324  -1.157  0.00  0.00    +0.060 A 
ENDBRANCH  11  12
BRANCH   1  19
ATOM     19  S   LIG    1        6.090   2.202   1.086  0.00  0.00    +0.090 S 
BRANCH  19  20
ATOM     20  C   LIG    1        5.344   3.767   1.609  0.00  0.00    +0.110 C 
BRANCH  20  22
ATOM     21  O   LIG    1        7.558   4.278   2.247  0.00  0.00    -0.520 OA
ATOM     22  C   LIG    1        6.409   4.661   2.191  0.00  0.00    +0.550 C 
ATOM     23  N   LIG    1        6.083   5.885   2.650  0.00  0.00    -0.610 N 
ATOM     24  C   LIG    1        4.737   6.475   2.638  0.00  0.00    +0.230 C 
ATOM     25  C   LIG    1        4.852   7.892   3.237  0.00  0.00    +0.040 C 
ATOM     26  C   LIG    1        6.349   8.238   3.023  0.00  0.00    +0.040 C 
ATOM     27  C   LIG    1        7.020   6.858   3.241  0.00  0.00    +0.250 C 
ENDBRANCH  20  22
ENDBRANCH  19  20
ENDBRANCH   1  19
TORSDOF 4
