REMARK  Name = ZINCrD000000D6wC.0
REMARK                            x       y       z     vdW  Elec       q    Type
REMARK                         _______ _______ _______ _____ _____    ______ ____
ROOT
ATOM      1  N   LIG    1       -2.144   5.997  -0.570  0.00  0.00    -0.990 NA
ATOM      2  C   LIG    1       -1.618   5.920   0.800  0.00  0.00    +0.320 C 
ATOM      3  C   LIG    1       -0.213   5.311   0.755  0.00  0.00    +0.040 C 
ATOM      4  C   LIG    1       -0.268   3.966   0.026  0.00  0.00    +0.190 C 
ATOM      5  C   LIG    1       -0.747   4.183  -1.411  0.00  0.00    +0.010 C 
ATOM      6  C   LIG    1       -2.158   4.779  -1.391  0.00  0.00    +0.310 C 
ENDROOT
BRANCH   1   8
ATOM      7  O   LIG    1       -3.613   7.095  -2.222  0.00  0.00    -0.940 OA
ATOM      8  S   LIG    1       -2.711   7.430  -1.177  0.00  0.00    +2.700 S 
ATOM      9  O   LIG    1       -3.079   8.223  -0.056  0.00  0.00    -0.920 OA
BRANCH   8  10
ATOM     10  C   LIG    1       -1.349   8.249  -1.939  0.00  0.00    -0.420 A 
ATOM     11  C   LIG    1       -1.078   8.023  -3.275  0.00  0.00    +0.080 A 
ATOM     12  C   LIG    1       -0.004   8.672  -3.865  0.00  0.00    +0.130 A 
ATOM     13  C   LIG    1        0.760   9.527  -3.086  0.00  0.00    -0.190 A 
ATOM     14  C   LIG    1        0.428   9.703  -1.756  0.00  0.00    +0.320 A 
ATOM     15  N   LIG    1       -0.604   9.073  -1.229  0.00  0.00    -0.380 NA
BRANCH  13  16
ATOM     16  C   LIG    1        1.937  10.255  -3.681  0.00  0.00    +0.510 C 
ATOM     17  F   LIG    1        2.490   9.485  -4.710  0.00  0.00    -0.170 F 
ATOM     18  F   LIG    1        2.902  10.470  -2.691  0.00  0.00    -0.170 F 
ATOM     19  F   LIG    1        1.514  11.485  -4.195  0.00  0.00    -0.170 F 
ENDBRANCH  13  16
ENDBRANCH   8  10
ENDBRANCH   1   8
BRANCH   4  20
ATOM     20  O   LIG    1        1.035   3.380   0.010  0.00  0.00    -0.300 OA
BRANCH  20  21
ATOM     21  C   LIG    1        1.100   2.025   0.002  0.00  0.00    +0.330 A 
ATOM     22  C   LIG    1        2.339   1.396  -0.013  0.00  0.00    -0.030 A 
ATOM     23  C   LIG    1        2.393   0.013  -0.021  0.00  0.00    +0.120 A 
ATOM     24  C   LIG    1        1.198  -0.696  -0.013  0.00  0.00    -0.130 A 
ATOM     25  C   LIG    1        0.002  -0.004   0.002  0.00  0.00    +0.330 A 
ATOM     26 CL   LIG    1        1.208  -2.432  -0.022  0.00  0.00    -0.050 Cl
ATOM     27  N   LIG    1       -0.016   1.315   0.009  0.00  0.00    -0.530 NA
ENDBRANCH  20  21
ENDBRANCH   4  20
TORSDOF 5
