REMARK  Name = ZINCpe00000yGvpY.0
REMARK                            x       y       z     vdW  Elec       q    Type
REMARK                         _______ _______ _______ _____ _____    ______ ____
ROOT
ATOM      1  N   LIG    1       -1.056   1.590   3.565  0.00  0.00    -0.440 N 
ATOM      2  C   LIG    1       -0.282   0.967   4.516  0.00  0.00    +0.260 A 
ATOM      3  N   LIG    1        0.664   0.318   3.878  0.00  0.00    -0.230 NA
ATOM      4  N   LIG    1        0.533   0.487   2.610  0.00  0.00    -0.300 NA
ATOM      5  C   LIG    1       -0.499   1.261   2.363  0.00  0.00    +0.370 A 
ENDROOT
BRANCH   5   6
ATOM      6  N   LIG    1       -0.944   1.662   1.115  0.00  0.00    -0.460 N 
ATOM      7  C   LIG    1       -1.407   0.511   0.324  0.00  0.00    +0.210 C 
ATOM      8  C   LIG    1       -1.887   1.003  -1.040  0.00  0.00    +0.100 C 
ATOM      9  O   LIG    1       -0.916   1.802  -1.714  0.00  0.00    -0.350 OA
ATOM     10  C   LIG    1       -0.455   2.913  -0.937  0.00  0.00    +0.250 C 
ATOM     11  C   LIG    1       -3.284   1.635  -1.005  0.00  0.00    +0.010 C 
ATOM     12  C   LIG    1       -3.553   0.917  -2.339  0.00  0.00    +0.020 C 
ATOM     13  C   LIG    1       -2.485  -0.106  -1.915  0.00  0.00    +0.060 C 
ATOM     14  C   LIG    1        0.102   2.401   0.394  0.00  0.00    +0.130 C 
ATOM     15  C   LIG    1        0.566   3.587   1.242  0.00  0.00    +0.060 C 
ENDBRANCH   5   6
BRANCH   2  16
ATOM     16  C   LIG    1       -0.478   1.018   5.981  0.00  0.00    +0.290 A 
ATOM     17  N   LIG    1        0.273   0.414   6.878  0.00  0.00    -0.260 NA
ATOM     18  N   LIG    1       -0.267   0.730   8.135  0.00  0.00    -0.380 N 
ATOM     19  C   LIG    1       -1.332   1.520   7.907  0.00  0.00    +0.500 A 
ATOM     20  C   LIG    1        0.230   0.285   9.439  0.00  0.00    +0.380 C 
ATOM     21  N   LIG    1       -1.448   1.692   6.617  0.00  0.00    -0.530 NA
ENDBRANCH   2  16
BRANCH   1  22
ATOM     22  C   LIG    1       -2.232   2.433   3.794  0.00  0.00    +0.340 C 
BRANCH  22  23
ATOM     23  C   LIG    1       -3.480   1.553   3.885  0.00  0.00    +0.170 C 
BRANCH  23  25
ATOM     24  C   LIG    1       -5.853   1.647   4.209  0.00  0.00    +0.200 C 
ATOM     25  O   LIG    1       -4.627   2.375   4.108  0.00  0.00    -0.380 OA
ENDBRANCH  23  25
ENDBRANCH  22  23
ENDBRANCH   1  22
TORSDOF 5
