REMARK  Name = ZINCrD00000eT2fy.0
REMARK                            x       y       z     vdW  Elec       q    Type
REMARK                         _______ _______ _______ _____ _____    ______ ____
ROOT
ATOM      1  S   LIG    1       -2.024   4.903   0.047  0.00  0.00    +2.720 S 
ATOM      2  O   LIG    1       -2.685   4.829   1.303  0.00  0.00    -0.940 OA
ATOM      3  O   LIG    1       -2.708   4.843  -1.197  0.00  0.00    -0.940 OA
ENDROOT
BRANCH   1   6
ATOM      4  C   LIG    1       -2.580   1.825   0.023  0.00  0.00    +0.120 C 
ATOM      5  C   LIG    1       -1.155   2.314   0.020  0.00  0.00    +0.080 A 
ATOM      6  C   LIG    1       -0.844   3.595   0.029  0.00  0.00    -0.770 A 
ATOM      7  S   LIG    1        0.893   3.832   0.014  0.00  0.00    +0.210 S 
ATOM      8  C   LIG    1        1.198   2.099   0.002  0.00  0.00    -0.120 A 
ATOM      9  C   LIG    1        2.402   1.389  -0.014  0.00  0.00    +0.050 A 
ATOM     10  C   LIG    1        2.398   0.014  -0.021  0.00  0.00    +0.080 A 
ATOM     11  C   LIG    1        1.196  -0.681  -0.013  0.00  0.00    +0.040 A 
ATOM     12  C   LIG    1        0.002  -0.004   0.002  0.00  0.00    +0.020 A 
ATOM     13 CL   LIG    1       -1.492  -0.888   0.012  0.00  0.00    -0.050 Cl
ATOM     14  C   LIG    1       -0.017   1.408   0.010  0.00  0.00    -0.090 A 
ENDBRANCH   1   6
BRANCH   1  15
ATOM     15  N   LIG    1       -1.178   6.327   0.047  0.00  0.00    -1.090 NA
ATOM     16  H   LIG    1       -1.228   6.921   0.812  0.00  0.00    +0.420 HD
BRANCH  15  17
ATOM     17  C   LIG    1       -0.353   6.688  -1.109  0.00  0.00    +0.350 C 
BRANCH  17  18
ATOM     18  C   LIG    1        0.005   8.150  -1.032  0.00  0.00    -0.140 A 
ATOM     19  C   LIG    1       -0.687   9.083  -1.785  0.00  0.00    +0.110 A 
ATOM     20  C   LIG    1       -0.327  10.419  -1.679  0.00  0.00    -0.020 A 
ATOM     21  C   LIG    1        0.712  10.774  -0.841  0.00  0.00    +0.310 A 
ATOM     22  N   LIG    1        1.357   9.862  -0.139  0.00  0.00    -0.500 NA
ATOM     23  C   LIG    1        1.039   8.579  -0.209  0.00  0.00    +0.370 A 
BRANCH  23  24
ATOM     24  N   LIG    1        1.750   7.647   0.553  0.00  0.00    -0.340 N 
ATOM     25  C   LIG    1        3.011   7.773   1.014  0.00  0.00    +0.530 A 
ATOM     26  N   LIG    1        3.308   6.687   1.681  0.00  0.00    -0.530 NA
ATOM     27  C   LIG    1        2.270   5.850   1.669  0.00  0.00    +0.440 A 
ATOM     28  N   LIG    1        1.291   6.396   0.996  0.00  0.00    -0.300 NA
ENDBRANCH  23  24
ENDBRANCH  17  18
ENDBRANCH  15  17
ENDBRANCH   1  15
TORSDOF 5
