REMARK  Name = ZINCrH000004ljUN.2
REMARK                            x       y       z     vdW  Elec       q    Type
REMARK                         _______ _______ _______ _____ _____    ______ ____
ROOT
ATOM      1  C   LIG    1       -0.434  -1.842  -0.342  0.00  0.00    -0.210 A 
ATOM      2  C   LIG    1       -0.280  -0.589  -0.822  0.00  0.00    +0.240 A 
ATOM      3  N   LIG    1       -0.473   0.274   0.199  0.00  0.00    -0.360 N 
ATOM      4  N   LIG    1       -0.764  -0.469   1.350  0.00  0.00    -0.270 NA
ATOM      5  C   LIG    1       -0.396   1.735   0.116  0.00  0.00    +0.360 C 
ATOM      6  C   LIG    1       -0.742  -1.746   1.029  0.00  0.00    +0.110 A 
ENDROOT
BRANCH   6   7
ATOM      7  C   LIG    1       -0.996  -2.882   1.949  0.00  0.00    +0.040 A 
ATOM      8  C   LIG    1       -1.650  -4.022   1.488  0.00  0.00    +0.080 A 
ATOM      9  C   LIG    1       -1.879  -5.078   2.346  0.00  0.00    +0.090 A 
ATOM     10  C   LIG    1       -1.470  -5.002   3.665  0.00  0.00    -0.040 A 
ATOM     11  C   LIG    1       -0.825  -3.870   4.130  0.00  0.00    +0.090 A 
ATOM     12  C   LIG    1       -0.586  -2.810   3.279  0.00  0.00    +0.050 A 
BRANCH  10  13
ATOM     13  N   LIG    1       -1.723  -6.135   4.583  0.00  0.00    +0.030 N 
ATOM     14  O   LIG    1       -2.291  -7.133   4.176  0.00  0.00    -0.160 OA
ATOM     15  O   LIG    1       -1.363  -6.070   5.745  0.00  0.00    -0.160 OA
ENDBRANCH  10  13
ENDBRANCH   6   7
BRANCH   1  16
ATOM     16  C   LIG    1       -0.305  -3.118  -1.135  0.00  0.00    +0.290 C 
BRANCH  16  17
ATOM     17  N   LIG    1       -1.642  -3.606  -1.497  0.00  0.00    -0.520 NA
BRANCH  17  18
ATOM     18  C   LIG    1       -1.573  -4.961  -2.061  0.00  0.00    +0.240 C 
BRANCH  18  19
ATOM     19  C   LIG    1       -0.809  -4.923  -3.387  0.00  0.00    +0.130 C 
BRANCH  19  21
ATOM     20  C   LIG    1        1.340  -4.430  -4.325  0.00  0.00    +0.200 C 
ATOM     21  O   LIG    1        0.556  -4.581  -3.140  0.00  0.00    -0.380 OA
ENDBRANCH  19  21
ENDBRANCH  18  19
ENDBRANCH  17  18
BRANCH  17  22
ATOM     22  C   LIG    1       -2.306  -2.682  -2.427  0.00  0.00    +0.260 C 
BRANCH  22  23
ATOM     23  C   LIG    1       -3.752  -3.079  -2.583  0.00  0.00    -0.170 A 
ATOM     24  C   LIG    1       -4.740  -2.718  -1.764  0.00  0.00    +0.020 A 
ATOM     25  C   LIG    1       -5.990  -3.203  -2.108  0.00  0.00    +0.010 A 
ATOM     26  C   LIG    1       -6.016  -3.959  -3.207  0.00  0.00    -0.050 A 
ATOM     27  S   LIG    1       -4.394  -4.082  -3.877  0.00  0.00    +0.080 S 
ENDBRANCH  22  23
ENDBRANCH  17  22
ENDBRANCH  16  17
ENDBRANCH   1  16
TORSDOF 9
