REMARK  Name = ZINCkj00000dDjOQ.0
REMARK                            x       y       z     vdW  Elec       q    Type
REMARK                         _______ _______ _______ _____ _____    ______ ____
ROOT
ATOM      1  C   LIG    1       -5.351  -3.223   0.091  0.00  0.00    +0.340 C 
ATOM      2  N   LIG    1       -3.946  -3.606  -0.106  0.00  0.00    -0.380 N 
ATOM      3  C   LIG    1       -3.224  -3.532   1.175  0.00  0.00    +0.260 C 
ATOM      4  C   LIG    1       -1.842  -2.921   0.897  0.00  0.00    +0.080 C 
ATOM      5  C   LIG    1       -1.809  -2.624  -0.614  0.00  0.00    +0.030 C 
ATOM      6  C   LIG    1       -1.402  -1.156  -0.827  0.00  0.00    +0.280 C 
ATOM      7  N   LIG    1       -2.628  -0.357  -0.916  0.00  0.00    -0.620 N 
ATOM      8  C   LIG    1       -3.793  -1.236  -0.758  0.00  0.00    +0.290 C 
ATOM      9  C   LIG    1       -2.678   0.977  -1.108  0.00  0.00    +0.610 C 
ATOM     10  O   LIG    1       -3.745   1.558  -1.062  0.00  0.00    -0.500 OA
ATOM     11  C   LIG    1       -3.300  -2.668  -1.043  0.00  0.00    +0.180 C 
ATOM     12  H   LIG    1       -3.896  -4.544  -0.473  0.00  0.00    +0.430 HD
ENDROOT
BRANCH   9  13
ATOM     13  C   LIG    1       -1.437   1.731  -1.373  0.00  0.00    -0.240 A 
ATOM     14  C   LIG    1       -0.859   1.682  -2.632  0.00  0.00    +0.360 A 
ATOM     15  N   LIG    1        0.268   2.342  -2.921  0.00  0.00    -0.480 N 
ATOM     16  H   LIG    1        0.644   2.280  -3.813  0.00  0.00    +0.430 HD
ATOM     17  C   LIG    1        0.897   3.106  -1.971  0.00  0.00    +0.250 A 
ATOM     18  N   LIG    1        1.988   3.849  -1.956  0.00  0.00    -0.520 NA
ATOM     19  C   LIG    1        2.172   4.401  -0.755  0.00  0.00    +0.240 A 
ATOM     20  C   LIG    1        1.184   4.037   0.102  0.00  0.00    -0.070 A 
ATOM     21  C   LIG    1        0.315   3.190  -0.625  0.00  0.00    -0.150 A 
ATOM     22  C   LIG    1       -0.854   2.496  -0.350  0.00  0.00    +0.200 A 
ENDBRANCH   9  13
TORSDOF 1
