REMARK  Name = ZINCkj00000dDjOQ.2
REMARK                            x       y       z     vdW  Elec       q    Type
REMARK                         _______ _______ _______ _____ _____    ______ ____
ROOT
ATOM      1  C   LIG    1        9.517   4.279   0.675  0.00  0.00    +0.330 C 
ATOM      2  N   LIG    1        8.652   5.466   0.634  0.00  0.00    -0.380 N 
ATOM      3  C   LIG    1        7.771   5.482   1.814  0.00  0.00    +0.260 C 
ATOM      4  C   LIG    1        6.379   5.939   1.350  0.00  0.00    +0.080 C 
ATOM      5  C   LIG    1        6.497   6.169  -0.168  0.00  0.00    +0.030 C 
ATOM      6  C   LIG    1        5.393   5.367  -0.889  0.00  0.00    +0.300 C 
ATOM      7  N   LIG    1        5.882   3.987  -0.995  0.00  0.00    -0.620 N 
ATOM      8  C   LIG    1        7.338   3.974  -0.818  0.00  0.00    +0.280 C 
ATOM      9  C   LIG    1        5.115   2.904  -1.226  0.00  0.00    +0.600 C 
ATOM     10  O   LIG    1        5.606   1.792  -1.187  0.00  0.00    -0.510 OA
ATOM     11  C   LIG    1        7.797   5.419  -0.566  0.00  0.00    +0.190 C 
ATOM     12  H   LIG    1        9.217   6.302   0.618  0.00  0.00    +0.430 HD
ENDROOT
BRANCH   9  13
ATOM     13  C   LIG    1        3.678   3.066  -1.524  0.00  0.00    -0.230 A 
ATOM     14  C   LIG    1        2.833   1.952  -1.573  0.00  0.00    +0.380 A 
ATOM     15  N   LIG    1        1.552   2.075  -1.837  0.00  0.00    -0.490 NA
ATOM     16  C   LIG    1        0.995   3.258  -2.070  0.00  0.00    +0.310 A 
ATOM     17  N   LIG    1       -0.288   3.646  -2.361  0.00  0.00    -0.570 N 
ATOM     18  H   LIG    1       -1.044   3.045  -2.446  0.00  0.00    +0.430 HD
ATOM     19  C   LIG    1       -0.346   5.006  -2.509  0.00  0.00    +0.260 A 
ATOM     20  C   LIG    1        0.872   5.539  -2.332  0.00  0.00    -0.030 A 
ATOM     21  C   LIG    1        1.781   4.428  -2.038  0.00  0.00    -0.160 A 
ATOM     22  C   LIG    1        3.143   4.335  -1.762  0.00  0.00    +0.140 A 
ENDBRANCH   9  13
TORSDOF 1
