REMARK  Name = ZINCkj00000dDjOQ.1
REMARK                            x       y       z     vdW  Elec       q    Type
REMARK                         _______ _______ _______ _____ _____    ______ ____
ROOT
ATOM      1  C   LIG    1       -3.225  -6.350  -0.994  0.00  0.00    +0.320 C 
ATOM      2  N   LIG    1       -2.637  -5.409  -0.031  0.00  0.00    -0.390 N 
ATOM      3  C   LIG    1       -1.668  -6.119   0.829  0.00  0.00    +0.270 C 
ATOM      4  C   LIG    1       -0.525  -5.100   1.064  0.00  0.00    +0.090 C 
ATOM      5  C   LIG    1       -0.445  -4.399  -0.313  0.00  0.00    +0.030 C 
ATOM      6  C   LIG    1       -0.023  -2.938  -0.127  0.00  0.00    +0.290 C 
ATOM      7  N   LIG    1       -1.235  -2.113  -0.100  0.00  0.00    -0.620 N 
ATOM      8  C   LIG    1       -2.414  -2.977  -0.204  0.00  0.00    +0.300 C 
ATOM      9  C   LIG    1       -1.260  -0.770   0.009  0.00  0.00    +0.600 C 
ATOM     10  O   LIG    1       -2.323  -0.189   0.113  0.00  0.00    -0.510 OA
ATOM     11  C   LIG    1       -1.931  -4.334  -0.757  0.00  0.00    +0.180 C 
ATOM     12  H   LIG    1       -3.366  -5.007   0.539  0.00  0.00    +0.430 HD
ENDROOT
BRANCH   9  13
ATOM     13  C   LIG    1        0.002  -0.004   0.004  0.00  0.00    -0.230 A 
ATOM     14  C   LIG    1       -0.016   1.395  -0.051  0.00  0.00    +0.380 A 
ATOM     15  N   LIG    1        1.095   2.094  -0.056  0.00  0.00    -0.490 NA
ATOM     16  C   LIG    1        2.289   1.513  -0.011  0.00  0.00    +0.310 A 
ATOM     17  N   LIG    1        3.569   2.006  -0.005  0.00  0.00    -0.570 N 
ATOM     18  H   LIG    1        3.802   2.948  -0.037  0.00  0.00    +0.430 HD
ATOM     19  C   LIG    1        4.470   0.977   0.051  0.00  0.00    +0.260 A 
ATOM     20  C   LIG    1        3.822  -0.198   0.084  0.00  0.00    -0.030 A 
ATOM     21  C   LIG    1        2.390   0.108   0.045  0.00  0.00    -0.160 A 
ATOM     22  C   LIG    1        1.232  -0.666   0.053  0.00  0.00    +0.140 A 
ENDBRANCH   9  13
TORSDOF 1
