REMARK  Name = ZINCvU0000000D8i.0
REMARK                            x       y       z     vdW  Elec       q    Type
REMARK                         _______ _______ _______ _____ _____    ______ ____
ROOT
ATOM      1  N   LIG    1       -1.068  -0.502  -0.880  0.00  0.00    -0.720 N 
ATOM      2  H   LIG    1       -1.853   0.041  -1.054  0.00  0.00    +0.400 HD
ATOM      3  C   LIG    1       -0.953  -1.719  -1.448  0.00  0.00    +0.570 C 
ATOM      4  O   LIG    1        0.031  -2.400  -1.231  0.00  0.00    -0.540 OA
ENDROOT
BRANCH   3   5
ATOM      5  C   LIG    1       -2.020  -2.225  -2.331  0.00  0.00    -0.170 A 
ATOM      6  C   LIG    1       -3.199  -1.496  -2.498  0.00  0.00    +0.060 A 
ATOM      7  C   LIG    1       -4.190  -1.972  -3.329  0.00  0.00    -0.010 A 
ATOM      8  C   LIG    1       -4.028  -3.177  -3.993  0.00  0.00    +0.060 A 
ATOM      9  C   LIG    1       -2.869  -3.912  -3.835  0.00  0.00    +0.010 A 
ATOM     10  C   LIG    1       -1.858  -3.445  -3.006  0.00  0.00    +0.210 A 
BRANCH  10  11
ATOM     11  N   LIG    1       -0.690  -4.184  -2.845  0.00  0.00    -0.650 N 
ATOM     12  H   LIG    1       -0.236  -4.194  -1.987  0.00  0.00    +0.430 HD
ATOM     13  C   LIG    1       -0.188  -4.887  -3.880  0.00  0.00    +0.610 C 
ATOM     14  O   LIG    1       -0.701  -4.799  -4.980  0.00  0.00    -0.500 OA
BRANCH  13  15
ATOM     15  C   LIG    1        0.975  -5.756  -3.680  0.00  0.00    -0.090 A 
ATOM     16  C   LIG    1        1.577  -6.523  -4.637  0.00  0.00    +0.050 A 
ATOM     17  C   LIG    1        2.645  -7.184  -4.011  0.00  0.00    -0.070 A 
ATOM     18  C   LIG    1        2.643  -6.804  -2.714  0.00  0.00    +0.210 A 
ATOM     19  O   LIG    1        1.635  -5.943  -2.519  0.00  0.00    -0.160 OA
ENDBRANCH  13  15
ENDBRANCH  10  11
ENDBRANCH   3   5
BRANCH   1  20
ATOM     20  C   LIG    1       -0.009   0.001  -0.003  0.00  0.00    +0.340 C 
BRANCH  20  25
ATOM     21  C   LIG    1       -0.112   5.779   0.028  0.00  0.00    +0.090 C 
ATOM     22  C   LIG    1       -0.085   4.272   0.019  0.00  0.00    -0.080 A 
ATOM     23  C   LIG    1        1.124   3.602   0.002  0.00  0.00    +0.010 A 
ATOM     24  C   LIG    1        1.149   2.220  -0.005  0.00  0.00    +0.030 A 
ATOM     25  C   LIG    1       -0.036   1.508   0.005  0.00  0.00    -0.100 A 
ATOM     26  C   LIG    1       -1.245   2.177   0.017  0.00  0.00    +0.010 A 
ATOM     27  C   LIG    1       -1.270   3.559   0.029  0.00  0.00    +0.000 A 
ENDBRANCH  20  25
BRANCH  20  28
ATOM     28  C   LIG    1       -0.230  -0.513   1.397  0.00  0.00    -0.090 A 
ATOM     29  C   LIG    1       -1.509  -0.567   1.919  0.00  0.00    +0.020 A 
ATOM     30  C   LIG    1       -1.712  -1.042   3.201  0.00  0.00    +0.000 A 
ATOM     31  C   LIG    1       -0.635  -1.455   3.964  0.00  0.00    +0.000 A 
ATOM     32  C   LIG    1        0.644  -1.395   3.444  0.00  0.00    +0.000 A 
ATOM     33  C   LIG    1        0.847  -0.924   2.160  0.00  0.00    +0.020 A 
ENDBRANCH  20  28
ENDBRANCH   1  20
TORSDOF 6
