REMARK  Name = ZINCpe00000ysrEQ.2
REMARK                            x       y       z     vdW  Elec       q    Type
REMARK                         _______ _______ _______ _____ _____    ______ ____
ROOT
ATOM      1  C   LIG    1        3.433  -1.144  -3.691  0.00  0.00    +0.200 C 
ATOM      2  C   LIG    1        3.013  -1.464  -2.234  0.00  0.00    +0.170 C 
ATOM      3  N   LIG    1        4.131  -0.912  -1.428  0.00  0.00    -0.490 NA
ATOM      4  C   LIG    1        4.512   0.358  -2.083  0.00  0.00    +0.160 C 
ATOM      5  C   LIG    1        4.096   0.247  -3.561  0.00  0.00    +0.180 C 
ENDROOT
BRANCH   5   6
ATOM      6  O   LIG    1        5.245   0.330  -4.407  0.00  0.00    -0.560 OA
ATOM      7  H   LIG    1        5.727   1.165  -4.335  0.00  0.00    +0.380 HD
ENDBRANCH   5   6
BRANCH   1   8
ATOM      8  O   LIG    1        2.293  -1.082  -4.549  0.00  0.00    -0.290 OA
BRANCH   8  11
ATOM      9  N   LIG    1        0.999  -3.619  -6.606  0.00  0.00    -0.360 N 
ATOM     10  C   LIG    1        0.951  -2.352  -6.116  0.00  0.00    +0.200 A 
ATOM     11  C   LIG    1        1.987  -2.207  -5.253  0.00  0.00    -0.030 A 
ATOM     12  C   LIG    1        2.692  -3.418  -5.220  0.00  0.00    +0.190 A 
ATOM     13  N   LIG    1        2.098  -4.263  -6.023  0.00  0.00    -0.270 NA
BRANCH   9  15
ATOM     14  C   LIG    1        0.851  -4.753  -8.768  0.00  0.00    +0.040 C 
ATOM     15  C   LIG    1        0.068  -4.206  -7.573  0.00  0.00    +0.330 C 
ENDBRANCH   9  15
ENDBRANCH   8  11
ENDBRANCH   1   8
BRANCH   3  16
ATOM     16  C   LIG    1        3.716  -0.684  -0.038  0.00  0.00    +0.280 C 
BRANCH  16  17
ATOM     17  C   LIG    1        2.395   0.042  -0.021  0.00  0.00    -0.140 A 
ATOM     18  C   LIG    1        2.376   1.431  -0.013  0.00  0.00    +0.080 A 
ATOM     19  C   LIG    1        1.179   2.111   0.002  0.00  0.00    +0.010 A 
ATOM     20  C   LIG    1       -0.017   1.402   0.010  0.00  0.00    +0.090 A 
ATOM     21  C   LIG    1        0.002  -0.004   0.002  0.00  0.00    -0.020 A 
ATOM     22  N   LIG    1       -1.277  -0.430   0.012  0.00  0.00    -0.220 NA
ATOM     23  N   LIG    1       -2.082   0.573   0.026  0.00  0.00    -0.000 NA
ATOM     24  N   LIG    1       -1.343   1.765   0.030  0.00  0.00    -0.400 N 
ATOM     25  C   LIG    1       -1.878   3.128   0.045  0.00  0.00    +0.370 C 
ATOM     26  C   LIG    1        1.233  -0.672  -0.013  0.00  0.00    +0.120 A 
ENDBRANCH  16  17
ENDBRANCH   3  16
TORSDOF 6
