REMARK  Name = ZINCrD00000F5LDV.0
REMARK                            x       y       z     vdW  Elec       q    Type
REMARK                         _______ _______ _______ _____ _____    ______ ____
ROOT
ATOM      1  C   LIG    1       -0.014   1.209   0.009  0.00  0.00    +0.540 C 
ATOM      2  N   LIG    1        1.143   1.898   0.001  0.00  0.00    -0.610 N 
ATOM      3  C   LIG    1        1.268   3.363   0.009  0.00  0.00    +0.230 C 
ATOM      4  C   LIG    1        2.775   3.695  -0.031  0.00  0.00    +0.040 C 
ATOM      5  C   LIG    1        3.399   2.406  -0.629  0.00  0.00    +0.040 C 
ATOM      6  C   LIG    1        2.495   1.309  -0.009  0.00  0.00    +0.250 C 
ATOM      7  O   LIG    1        0.002  -0.004   0.002  0.00  0.00    -0.510 OA
ENDROOT
BRANCH   1  11
ATOM      8  O   LIG    1       -3.540   3.463  -2.347  0.00  0.00    -0.520 OA
ATOM      9  C   LIG    1       -2.949   2.716  -1.597  0.00  0.00    +0.520 C 
ATOM     10  C   LIG    1       -1.482   2.824  -1.244  0.00  0.00    +0.080 C 
ATOM     11  C   LIG    1       -1.330   1.944   0.019  0.00  0.00    +0.000 C 
ATOM     12  C   LIG    1       -2.513   0.963  -0.136  0.00  0.00    +0.300 C 
ATOM     13  N   LIG    1       -3.502   1.670  -0.959  0.00  0.00    -0.620 N 
BRANCH  13  14
ATOM     14  C   LIG    1       -4.911   1.285  -1.070  0.00  0.00    +0.420 C 
BRANCH  14  15
ATOM     15  C   LIG    1       -5.078   0.314  -2.210  0.00  0.00    -0.040 A 
ATOM     16  C   LIG    1       -4.986  -1.026  -2.123  0.00  0.00    -0.040 A 
ATOM     17  C   LIG    1       -5.212  -1.537  -3.421  0.00  0.00    -0.070 A 
ATOM     18  C   LIG    1       -5.420  -0.480  -4.226  0.00  0.00    +0.170 A 
ATOM     19  O   LIG    1       -5.338   0.639  -3.487  0.00  0.00    -0.170 OA
ENDBRANCH  14  15
ENDBRANCH  13  14
ENDBRANCH   1  11
BRANCH   6  20
ATOM     20  C   LIG    1        2.519   0.067  -0.862  0.00  0.00    -0.040 C 
ATOM     21  C   LIG    1        2.756  -1.114  -0.307  0.00  0.00    +0.040 C 
BRANCH  21  22
ATOM     22  C   LIG    1        2.779  -2.332  -1.144  0.00  0.00    -0.050 A 
ATOM     23  C   LIG    1        2.546  -2.244  -2.517  0.00  0.00    +0.010 A 
ATOM     24  C   LIG    1        2.575  -3.384  -3.294  0.00  0.00    +0.000 A 
ATOM     25  C   LIG    1        2.824  -4.614  -2.712  0.00  0.00    +0.000 A 
ATOM     26  C   LIG    1        3.049  -4.710  -1.351  0.00  0.00    +0.000 A 
ATOM     27  C   LIG    1        3.028  -3.576  -0.564  0.00  0.00    +0.010 A 
ENDBRANCH  21  22
ENDBRANCH   6  20
TORSDOF 5
