REMARK  Name = ZINCvU00000004YC.0
REMARK                            x       y       z     vdW  Elec       q    Type
REMARK                         _______ _______ _______ _____ _____    ______ ____
ROOT
ATOM      1  C   LIG    1       -0.946   2.408   3.293  0.00  0.00    +0.330 A 
ATOM      2  N   LIG    1       -0.213   1.790   2.408  0.00  0.00    -0.270 NA
ATOM      3  N   LIG    1       -0.865   1.875   1.170  0.00  0.00    -0.370 N 
ATOM      4  C   LIG    1       -2.005   2.571   1.358  0.00  0.00    +0.480 A 
ATOM      5  S   LIG    1       -3.160   2.960   0.157  0.00  0.00    -0.580 S 
ATOM      6  N   LIG    1       -2.071   2.902   2.663  0.00  0.00    -0.480 N 
ENDROOT
BRANCH   1  10
ATOM      7  C   LIG    1       -0.023   2.830   7.420  0.00  0.00    +0.160 A 
ATOM      8  C   LIG    1       -1.346   2.716   7.014  0.00  0.00    -0.010 A 
ATOM      9  C   LIG    1       -1.649   2.579   5.676  0.00  0.00    +0.090 A 
ATOM     10  C   LIG    1       -0.624   2.555   4.729  0.00  0.00    -0.080 A 
ATOM     11  C   LIG    1        0.705   2.665   5.141  0.00  0.00    +0.120 A 
ATOM     12  C   LIG    1        1.000   2.807   6.480  0.00  0.00    -0.070 A 
BRANCH   7  14
ATOM     13  C   LIG    1        1.654   3.077   9.087  0.00  0.00    +0.250 C 
ATOM     14  O   LIG    1        0.272   2.965   8.739  0.00  0.00    -0.310 OA
ENDBRANCH   7  14
ENDBRANCH   1  10
BRANCH   6  15
ATOM     15  C   LIG    1       -3.149   3.659   3.303  0.00  0.00    +0.250 C 
ATOM     16  C   LIG    1       -4.451   2.859   3.224  0.00  0.00    +0.060 C 
ATOM     17  C   LIG    1       -3.329   4.997   2.583  0.00  0.00    +0.060 C 
ENDBRANCH   6  15
BRANCH   3  18
ATOM     18  C   LIG    1       -0.390   1.315  -0.098  0.00  0.00    +0.530 C 
BRANCH  18  19
ATOM     19  N   LIG    1       -0.587  -0.140  -0.096  0.00  0.00    -0.550 NA
ATOM     20  C   LIG    1        0.494  -0.817   0.633  0.00  0.00    +0.190 C 
ATOM     21  C   LIG    1        0.211  -2.320   0.681  0.00  0.00    +0.200 C 
ATOM     22  N   LIG    1        0.099  -2.839  -0.689  0.00  0.00    -0.490 N 
ATOM     23  C   LIG    1       -0.983  -2.162  -1.418  0.00  0.00    +0.200 C 
ATOM     24  C   LIG    1       -0.700  -0.659  -1.466  0.00  0.00    +0.210 C 
BRANCH  22  25
ATOM     25  C   LIG    1       -0.089  -4.223  -0.686  0.00  0.00    +0.120 A 
ATOM     26  C   LIG    1        0.828  -5.048  -0.048  0.00  0.00    -0.010 A 
ATOM     27  C   LIG    1        0.640  -6.417  -0.047  0.00  0.00    +0.060 A 
ATOM     28  C   LIG    1       -0.459  -6.966  -0.681  0.00  0.00    -0.010 A 
ATOM     29  C   LIG    1       -1.374  -6.147  -1.319  0.00  0.00    -0.010 A 
ATOM     30 CL   LIG    1       -2.753  -6.841  -2.114  0.00  0.00    -0.070 Cl
ATOM     31  C   LIG    1       -1.195  -4.777  -1.318  0.00  0.00    -0.020 A 
ENDBRANCH  22  25
ENDBRANCH  18  19
ENDBRANCH   3  18
TORSDOF 6
