REMARK  Name = ZINCpk00000xIiY5.0
REMARK                            x       y       z     vdW  Elec       q    Type
REMARK                         _______ _______ _______ _____ _____    ______ ____
ROOT
ATOM      1  N   LIG    1       -0.563  -0.507   1.257  0.00  0.00    -0.570 N 
ATOM      2  C   LIG    1       -1.860  -0.777   1.442  0.00  0.00    +0.700 C 
ATOM      3  N   LIG    1       -2.119  -1.227   2.683  0.00  0.00    -0.720 N 
ATOM      4  H   LIG    1       -2.986  -1.482   3.038  0.00  0.00    +0.440 HD
ATOM      5  C   LIG    1       -0.832  -1.255   3.398  0.00  0.00    +0.230 C 
ATOM      6  O   LIG    1       -2.710  -0.631   0.585  0.00  0.00    -0.520 OA
ATOM      7  C   LIG    1        0.161  -0.761   2.365  0.00  0.00    +0.520 C 
ATOM      8  O   LIG    1        1.357  -0.621   2.506  0.00  0.00    -0.460 OA
ENDROOT
BRANCH   1   9
ATOM      9  C   LIG    1        0.002  -0.004   0.002  0.00  0.00    +0.420 C 
BRANCH   9  13
ATOM     10  O   LIG    1        2.150   4.259   0.005  0.00  0.00    -0.520 OA
ATOM     11  C   LIG    1        1.115   3.612   0.011  0.00  0.00    +0.530 A 
ATOM     12  C   LIG    1        1.161   2.217   0.003  0.00  0.00    -0.110 A 
ATOM     13  C   LIG    1       -0.018   1.503   0.010  0.00  0.00    +0.180 A 
ATOM     14  N   LIG    1       -1.172   2.159   0.019  0.00  0.00    -0.490 NA
ATOM     15  C   LIG    1       -1.214   3.479   0.032  0.00  0.00    +0.310 A 
ATOM     16  S   LIG    1       -2.578   4.609   0.051  0.00  0.00    +0.190 S 
ATOM     17  C   LIG    1       -1.553   6.055   0.049  0.00  0.00    +0.020 A 
ATOM     18  C   LIG    1       -0.310   5.606   0.035  0.00  0.00    +0.240 A 
ATOM     19  N   LIG    1       -0.092   4.251   0.026  0.00  0.00    -0.470 N 
ENDBRANCH   9  13
ENDBRANCH   1   9
BRANCH   5  20
ATOM     20  C   LIG    1       -0.489  -2.681   3.833  0.00  0.00    +0.110 C 
BRANCH  20  21
ATOM     21  C   LIG    1       -1.481  -3.142   4.870  0.00  0.00    -0.090 A 
ATOM     22  C   LIG    1       -1.230  -2.925   6.212  0.00  0.00    +0.020 A 
ATOM     23  C   LIG    1       -2.142  -3.344   7.162  0.00  0.00    +0.000 A 
ATOM     24  C   LIG    1       -3.301  -3.988   6.772  0.00  0.00    +0.000 A 
ATOM     25  C   LIG    1       -3.550  -4.210   5.430  0.00  0.00    +0.000 A 
ATOM     26  C   LIG    1       -2.640  -3.787   4.479  0.00  0.00    +0.000 A 
ENDBRANCH  20  21
ENDBRANCH   5  20
TORSDOF 4
