REMARK  Name = ZINCqH00000357Ph.0
REMARK                            x       y       z     vdW  Elec       q    Type
REMARK                         _______ _______ _______ _____ _____    ______ ____
ROOT
ATOM      1  N   LIG    1        2.330   4.205   0.002  0.00  0.00    -0.670 N 
ATOM      2  H   LIG    1        3.174   3.730   0.061  0.00  0.00    +0.410 HD
ATOM      3  C   LIG    1        1.170   3.520   0.015  0.00  0.00    +0.570 C 
ATOM      4  O   LIG    1        0.111   4.117   0.025  0.00  0.00    -0.480 OA
ENDROOT
BRANCH   1   9
ATOM      5  C   LIG    1        1.300   7.721   0.411  0.00  0.00    -0.100 A 
ATOM      6  C   LIG    1        2.308   8.371  -0.302  0.00  0.00    +0.090 A 
ATOM      7  C   LIG    1        3.310   7.638  -0.905  0.00  0.00    +0.050 A 
ATOM      8  C   LIG    1        3.319   6.258  -0.805  0.00  0.00    -0.030 A 
ATOM      9  C   LIG    1        2.317   5.601  -0.096  0.00  0.00    +0.150 A 
ATOM     10 CL   LIG    1        4.582   5.343  -1.566  0.00  0.00    -0.050 Cl
ATOM     11  C   LIG    1        1.305   6.328   0.508  0.00  0.00    +0.120 A 
BRANCH   5  12
ATOM     12  C   LIG    1        0.227   8.504   1.057  0.00  0.00    +0.510 C 
ATOM     13  O   LIG    1       -0.650   7.936   1.677  0.00  0.00    -0.490 OA
BRANCH  12  15
ATOM     14  C   LIG    1       -0.865  10.552   1.617  0.00  0.00    +0.290 C 
ATOM     15  O   LIG    1        0.220   9.847   0.958  0.00  0.00    -0.350 OA
ENDBRANCH  12  15
ENDBRANCH   5  12
ENDBRANCH   1   9
BRANCH   3  16
ATOM     16  C   LIG    1        1.184   2.045   0.018  0.00  0.00    -0.210 A 
ATOM     17  C   LIG    1        2.396   1.344   0.007  0.00  0.00    +0.150 A 
ATOM     18  C   LIG    1        2.355  -0.039   0.011  0.00  0.00    -0.060 A 
ATOM     19  C   LIG    1        1.131  -0.683   0.024  0.00  0.00    +0.350 A 
ATOM     20  N   LIG    1        0.001  -0.003   0.034  0.00  0.00    -0.540 NA
ATOM     21  C   LIG    1       -0.017   1.319   0.032  0.00  0.00    +0.380 A 
BRANCH  21  22
ATOM     22  O   LIG    1       -1.201   1.976   0.036  0.00  0.00    -0.260 OA
BRANCH  22  23
ATOM     23  C   LIG    1       -2.386   1.178   0.044  0.00  0.00    +0.260 C 
BRANCH  23  24
ATOM     24  C   LIG    1       -3.615   2.089   0.049  0.00  0.00    +0.460 C 
ATOM     25  F   LIG    1       -3.590   2.899   1.189  0.00  0.00    -0.170 F 
ATOM     26  F   LIG    1       -4.775   1.308   0.056  0.00  0.00    -0.170 F 
ATOM     27  F   LIG    1       -3.602   2.895  -1.095  0.00  0.00    -0.170 F 
ENDBRANCH  23  24
ENDBRANCH  22  23
ENDBRANCH  21  22
ENDBRANCH   3  16
TORSDOF 7
