REMARK  Name = ZINCpk00000xSAOt.2
REMARK                            x       y       z     vdW  Elec       q    Type
REMARK                         _______ _______ _______ _____ _____    ______ ____
ROOT
ATOM      1  N   LIG    1       -3.461   5.435   2.523  0.00  0.00    -0.530 NA
ATOM      2  C   LIG    1       -4.275   5.759   1.352  0.00  0.00    +0.160 C 
ATOM      3  C   LIG    1       -3.862   5.072   0.114  0.00  0.00    +0.020 C 
ATOM      4  C   LIG    1       -4.005   3.539   0.293  0.00  0.00    +0.270 C 
ATOM      5  N   LIG    1       -3.009   3.067   1.230  0.00  0.00    -0.590 N 
ATOM      6  C   LIG    1       -3.244   3.001   2.687  0.00  0.00    +0.260 C 
ATOM      7  C   LIG    1       -1.815   2.663   0.751  0.00  0.00    +0.520 C 
ATOM      8  O   LIG    1       -1.559   2.793  -0.427  0.00  0.00    -0.520 OA
ATOM      9  C   LIG    1       -3.978   4.261   3.195  0.00  0.00    +0.200 C 
ENDROOT
BRANCH   7  10
ATOM     10  C   LIG    1       -0.799   2.051   1.681  0.00  0.00    +0.060 C 
ATOM     11  C   LIG    1       -0.131   3.146   2.519  0.00  0.00    +0.110 C 
ATOM     12  C   LIG    1        0.781   3.969   1.650  0.00  0.00    +0.530 C 
ATOM     13  N   LIG    1        1.474   3.400   0.647  0.00  0.00    -0.660 N 
ATOM     14  H   LIG    1        2.067   3.941   0.104  0.00  0.00    +0.410 HD
ATOM     15  C   LIG    1        1.346   2.033   0.383  0.00  0.00    +0.210 A 
ATOM     16  C   LIG    1        2.310   1.373  -0.366  0.00  0.00    -0.050 A 
ATOM     17  C   LIG    1        2.177   0.020  -0.623  0.00  0.00    +0.140 A 
ATOM     18  C   LIG    1        1.083  -0.675  -0.132  0.00  0.00    -0.040 A 
ATOM     19  C   LIG    1        0.123  -0.018   0.615  0.00  0.00    +0.100 A 
ATOM     20  F   LIG    1        3.114  -0.625  -1.352  0.00  0.00    -0.130 F 
ATOM     21  O   LIG    1        0.892   5.159   1.855  0.00  0.00    -0.510 OA
ATOM     22  C   LIG    1        0.251   1.332   0.873  0.00  0.00    -0.120 A 
ENDBRANCH   7  10
BRANCH   1  23
ATOM     23  C   LIG    1       -3.384   6.577   3.443  0.00  0.00    +0.240 C 
BRANCH  23  24
ATOM     24  C   LIG    1       -4.781   6.895   3.980  0.00  0.00    +0.120 C 
BRANCH  24  26
ATOM     25  C   LIG    1       -6.530   6.018   5.365  0.00  0.00    +0.200 C 
ATOM     26  O   LIG    1       -5.228   5.821   4.810  0.00  0.00    -0.390 OA
ENDBRANCH  24  26
ENDBRANCH  23  24
ENDBRANCH   1  23
TORSDOF 4
