REMARK  Name = ZINCrD00000F5Lsm.0
REMARK                            x       y       z     vdW  Elec       q    Type
REMARK                         _______ _______ _______ _____ _____    ______ ____
ROOT
ATOM      1  C   LIG    1        3.356   6.345   0.815  0.00  0.00    +0.550 C 
ATOM      2  N   LIG    1        3.082   6.831   2.042  0.00  0.00    -0.660 N 
ATOM      3  H   LIG    1        2.978   6.224   2.792  0.00  0.00    +0.410 HD
ATOM      4  O   LIG    1        3.407   7.098  -0.140  0.00  0.00    -0.510 OA
ENDROOT
BRANCH   2   5
ATOM      5  C   LIG    1        2.950   8.203   2.234  0.00  0.00    +0.200 A 
ATOM      6  C   LIG    1        2.442   9.003   1.219  0.00  0.00    +0.020 A 
ATOM      7  C   LIG    1        2.307  10.363   1.413  0.00  0.00    +0.050 A 
ATOM      8  C   LIG    1        2.684  10.941   2.614  0.00  0.00    -0.010 A 
ATOM      9  C   LIG    1        3.195  10.163   3.631  0.00  0.00    +0.060 A 
ATOM     10  C   LIG    1        3.333   8.785   3.452  0.00  0.00    -0.170 A 
BRANCH  10  11
ATOM     11  C   LIG    1        3.878   7.947   4.536  0.00  0.00    +0.560 C 
ATOM     12  N   LIG    1        3.407   8.080   5.792  0.00  0.00    -0.610 N 
ATOM     13  C   LIG    1        2.274   8.972   6.086  0.00  0.00    +0.250 C 
ATOM     14  C   LIG    1        1.239   8.179   6.901  0.00  0.00    +0.220 C 
ATOM     15  O   LIG    1        1.886   7.583   8.028  0.00  0.00    -0.380 OA
ATOM     16  C   LIG    1        2.899   6.633   7.686  0.00  0.00    +0.220 C 
ATOM     17  C   LIG    1        4.015   7.342   6.911  0.00  0.00    +0.260 C 
ATOM     18  O   LIG    1        4.751   7.135   4.297  0.00  0.00    -0.530 OA
ENDBRANCH  10  11
ENDBRANCH   2   5
BRANCH   1  21
ATOM     19  C   LIG    1        4.404   5.412  -1.651  0.00  0.00    +0.120 C 
ATOM     20  C   LIG    1        4.020   4.447  -0.560  0.00  0.00    +0.020 C 
ATOM     21  C   LIG    1        3.591   4.912   0.631  0.00  0.00    -0.090 C 
BRANCH  20  22
ATOM     22  C   LIG    1        4.114   2.997  -0.793  0.00  0.00    -0.040 A 
ATOM     23  C   LIG    1        5.022   2.225  -0.061  0.00  0.00    +0.020 A 
ATOM     24  C   LIG    1        5.105   0.866  -0.284  0.00  0.00    +0.050 A 
ATOM     25  C   LIG    1        4.294   0.266  -1.230  0.00  0.00    -0.010 A 
ATOM     26  C   LIG    1        3.391   1.023  -1.961  0.00  0.00    +0.100 A 
ATOM     27  F   LIG    1        2.602   0.428  -2.882  0.00  0.00    -0.140 F 
ATOM     28  C   LIG    1        3.297   2.384  -1.748  0.00  0.00    +0.010 A 
ENDBRANCH  20  22
ENDBRANCH   1  21
TORSDOF 4
