REMARK  Name = ZINCrD00000F5Lo0.0
REMARK                            x       y       z     vdW  Elec       q    Type
REMARK                         _______ _______ _______ _____ _____    ______ ____
ROOT
ATOM      1  C   LIG    1        3.705   1.444  -0.695  0.00  0.00    -0.130 A 
ATOM      2  C   LIG    1        4.027   2.611   0.000  0.00  0.00    +0.040 A 
ATOM      3  C   LIG    1        5.324   3.083  -0.013  0.00  0.00    +0.010 A 
ATOM      4  C   LIG    1        6.303   2.403  -0.714  0.00  0.00    +0.050 A 
ATOM      5  C   LIG    1        5.991   1.246  -1.406  0.00  0.00    -0.090 A 
ATOM      6  C   LIG    1        4.700   0.760  -1.396  0.00  0.00    +0.100 A 
ENDROOT
BRANCH   5   7
ATOM      7  C   LIG    1        7.065   0.511  -2.167  0.00  0.00    +0.270 C 
ATOM      8  C   LIG    1        7.313   1.203  -3.523  0.00  0.00    +0.050 C 
ATOM      9  C   LIG    1        8.852   1.097  -3.691  0.00  0.00    +0.040 C 
ATOM     10  C   LIG    1        9.336   1.260  -2.229  0.00  0.00    +0.250 C 
ATOM     11  N   LIG    1        8.328   0.555  -1.416  0.00  0.00    -0.610 N 
ATOM     12  C   LIG    1        8.531   0.037  -0.189  0.00  0.00    +0.560 C 
ATOM     13  O   LIG    1        7.622  -0.525   0.392  0.00  0.00    -0.530 OA
BRANCH  12  14
ATOM     14  C   LIG    1        9.851   0.152   0.449  0.00  0.00    -0.090 C 
ATOM     15  C   LIG    1       10.052  -0.358   1.661  0.00  0.00    +0.140 C 
ENDBRANCH  12  14
ENDBRANCH   5   7
BRANCH   1  18
ATOM     16  N   LIG    1        1.362   1.593  -0.002  0.00  0.00    -0.720 N 
ATOM     17  H   LIG    1        1.583   2.404   0.482  0.00  0.00    +0.400 HD
ATOM     18  C   LIG    1        2.318   0.933  -0.685  0.00  0.00    +0.570 C 
ATOM     19  O   LIG    1        2.041  -0.083  -1.291  0.00  0.00    -0.530 OA
BRANCH  16  20
ATOM     20  C   LIG    1       -0.013   1.086   0.008  0.00  0.00    +0.390 C 
BRANCH  20  21
ATOM     21  C   LIG    1       -0.729   1.579   1.267  0.00  0.00    +0.000 C 
ATOM     22  C   LIG    1       -0.408   0.751   2.522  0.00  0.00    +0.060 C 
ATOM     23  C   LIG    1       -1.896   0.888   2.894  0.00  0.00    +0.260 C 
ATOM     24  F   LIG    1       -2.451  -0.279   3.430  0.00  0.00    -0.190 F 
ATOM     25  F   LIG    1       -2.179   2.025   3.659  0.00  0.00    -0.180 F 
ATOM     26  C   LIG    1       -2.174   1.069   1.393  0.00  0.00    +0.070 C 
ENDBRANCH  20  21
BRANCH  20  28
ATOM     27  C   LIG    1       -1.292   1.962  -2.136  0.00  0.00    +0.050 C 
ATOM     28  C   LIG    1       -0.725   1.573  -1.185  0.00  0.00    -0.210 C 
ENDBRANCH  20  28
ENDBRANCH  16  20
ENDBRANCH   1  18
TORSDOF 6
