REMARK  Name = ZINCrD000000BKMs.0
REMARK                            x       y       z     vdW  Elec       q    Type
REMARK                         _______ _______ _______ _____ _____    ______ ____
ROOT
ATOM      1  O   LIG    1        0.930   5.935   0.117  0.00  0.00    -0.550 OA
ATOM      2  C   LIG    1       -0.102   5.297   0.030  0.00  0.00    +0.580 C 
ATOM      3  N   LIG    1       -1.284   5.937  -0.058  0.00  0.00    -0.690 N 
ATOM      4  H   LIG    1       -2.112   5.431  -0.052  0.00  0.00    +0.420 HD
ENDROOT
BRANCH   2   5
ATOM      5  C   LIG    1       -0.059   3.827   0.019  0.00  0.00    -0.280 A 
ATOM      6  C   LIG    1        1.161   3.153  -0.013  0.00  0.00    +0.220 A 
ATOM      7  C   LIG    1        1.161   1.758  -0.022  0.00  0.00    -0.080 A 
ATOM      8  C   LIG    1       -0.012   1.076   0.000  0.00  0.00    +0.340 A 
ATOM      9  N   LIG    1       -1.201   1.724   0.027  0.00  0.00    -0.480 N 
ATOM     10  C   LIG    1       -1.258   3.069   0.042  0.00  0.00    +0.540 A 
ATOM     11  O   LIG    1       -2.338   3.635   0.070  0.00  0.00    -0.550 OA
BRANCH   9  12
ATOM     12  C   LIG    1       -2.444   0.949   0.045  0.00  0.00    +0.350 C 
BRANCH  12  13
ATOM     13  C   LIG    1       -2.844   0.674   1.471  0.00  0.00    -0.120 A 
ATOM     14  C   LIG    1       -2.399  -0.471   2.105  0.00  0.00    +0.020 A 
ATOM     15  C   LIG    1       -2.762  -0.721   3.416  0.00  0.00    +0.010 A 
ATOM     16  C   LIG    1       -3.578   0.169   4.088  0.00  0.00    +0.020 A 
ATOM     17  C   LIG    1       -4.028   1.311   3.453  0.00  0.00    +0.010 A 
ATOM     18  C   LIG    1       -3.660   1.564   2.144  0.00  0.00    +0.040 A 
ENDBRANCH  12  13
ENDBRANCH   9  12
ENDBRANCH   2   5
BRANCH   3  19
ATOM     19  C   LIG    1       -1.320   7.398  -0.161  0.00  0.00    +0.240 C 
ATOM     20  C   LIG    1       -2.353   8.141   0.689  0.00  0.00    +0.040 C 
ATOM     21  C   LIG    1       -2.546   8.029  -0.825  0.00  0.00    -0.010 C 
BRANCH  21  22
ATOM     22  C   LIG    1       -2.328   9.273  -1.648  0.00  0.00    -0.020 A 
ATOM     23  C   LIG    1       -2.659   9.280  -2.990  0.00  0.00    +0.010 A 
ATOM     24  C   LIG    1       -2.460  10.421  -3.746  0.00  0.00    +0.040 A 
ATOM     25  C   LIG    1       -1.931  11.555  -3.160  0.00  0.00    -0.020 A 
ATOM     26  C   LIG    1       -1.599  11.549  -1.816  0.00  0.00    +0.100 A 
ATOM     27  F   LIG    1       -1.082  12.657  -1.242  0.00  0.00    -0.140 F 
ATOM     28  C   LIG    1       -1.804  10.408  -1.058  0.00  0.00    -0.020 A 
ENDBRANCH  21  22
ENDBRANCH   3  19
TORSDOF 5
