REMARK  Name = ZINCvU000000094r.0
REMARK                            x       y       z     vdW  Elec       q    Type
REMARK                         _______ _______ _______ _____ _____    ______ ____
ROOT
ATOM      1  C   LIG    1        4.210   5.749   2.046  0.00  0.00    +0.460 C 
ATOM      2  O   LIG    1        4.169   4.618   2.471  0.00  0.00    -0.490 OA
ENDROOT
BRANCH   1   3
ATOM      3  O   LIG    1        3.316   6.154   1.131  0.00  0.00    -0.330 OA
BRANCH   3   5
ATOM      4  C   LIG    1        2.869   4.412  -0.510  0.00  0.00    +0.080 C 
ATOM      5  C   LIG    1        2.330   5.181   0.697  0.00  0.00    +0.180 C 
BRANCH   5   6
ATOM      6  C   LIG    1        1.058   5.893   0.311  0.00  0.00    +0.520 C 
ATOM      7  N   LIG    1       -0.093   5.202   0.198  0.00  0.00    -0.550 N 
ATOM      8  C   LIG    1       -0.100   3.737   0.317  0.00  0.00    +0.270 C 
ATOM      9  C   LIG    1       -0.981   3.180  -0.809  0.00  0.00    +0.030 C 
ATOM     10  C   LIG    1       -2.413   3.673  -0.606  0.00  0.00    +0.080 C 
ATOM     11  C   LIG    1       -2.435   5.168  -0.427  0.00  0.00    -0.110 A 
ATOM     12  C   LIG    1       -3.618   5.853  -0.652  0.00  0.00    +0.030 A 
ATOM     13  C   LIG    1       -3.670   7.225  -0.497  0.00  0.00    -0.020 A 
ATOM     14  C   LIG    1       -2.542   7.923  -0.106  0.00  0.00    +0.030 A 
ATOM     15  C   LIG    1       -1.360   7.247   0.124  0.00  0.00    +0.010 A 
ATOM     16  C   LIG    1       -1.304   5.868  -0.037  0.00  0.00    +0.150 A 
ATOM     17  O   LIG    1        1.071   7.088   0.103  0.00  0.00    -0.490 OA
ENDBRANCH   5   6
ENDBRANCH   3   5
ENDBRANCH   1   3
BRANCH   1  18
ATOM     18  C   LIG    1        5.264   6.703   2.545  0.00  0.00    +0.200 C 
BRANCH  18  19
ATOM     19  C   LIG    1        6.134   6.006   3.559  0.00  0.00    -0.170 A 
ATOM     20  C   LIG    1        5.997   6.033   4.895  0.00  0.00    +0.240 A 
ATOM     21  O   LIG    1        6.958   5.290   5.468  0.00  0.00    -0.170 OA
ATOM     22  C   LIG    1        7.771   4.752   4.536  0.00  0.00    +0.040 A 
ATOM     23  C   LIG    1        8.897   3.924   4.614  0.00  0.00    +0.040 A 
ATOM     24  C   LIG    1        9.555   3.510   3.503  0.00  0.00    +0.060 A 
ATOM     25  C   LIG    1        9.130   3.898   2.218  0.00  0.00    -0.060 A 
ATOM     26  C   LIG    1        9.808   3.471   1.065  0.00  0.00    +0.030 A 
ATOM     27  C   LIG    1        9.368   3.865  -0.162  0.00  0.00    +0.010 A 
ATOM     28  C   LIG    1        8.253   4.688  -0.292  0.00  0.00    +0.020 A 
ATOM     29  C   LIG    1        7.572   5.121   0.806  0.00  0.00    +0.010 A 
ATOM     30  C   LIG    1        7.995   4.735   2.082  0.00  0.00    -0.000 A 
ATOM     31  C   LIG    1        7.301   5.169   3.288  0.00  0.00    -0.110 A 
ENDBRANCH  18  19
ENDBRANCH   1  18
TORSDOF 5
