REMARK  Name = ZINCrg00000SjSyz.0
REMARK                            x       y       z     vdW  Elec       q    Type
REMARK                         _______ _______ _______ _____ _____    ______ ____
ROOT
ATOM      1  C   LIG    1        1.153   3.176   0.008  0.00  0.00    -0.150 A 
ATOM      2  C   LIG    1        1.174   1.780   0.000  0.00  0.00    +0.100 A 
ATOM      3  C   LIG    1       -0.013   1.076   0.008  0.00  0.00    +0.000 A 
ATOM      4  C   LIG    1       -1.221   1.750   0.017  0.00  0.00    +0.150 A 
ATOM      5  C   LIG    1       -1.248   3.133   0.030  0.00  0.00    -0.680 A 
ATOM      6  C   LIG    1       -0.070   3.849   0.022  0.00  0.00    +0.200 A 
ENDROOT
BRANCH   1   9
ATOM      7  N   LIG    1        3.599   3.284  -0.016  0.00  0.00    -0.580 N 
ATOM      8  H   LIG    1        3.616   2.314  -0.021  0.00  0.00    +0.380 HD
ATOM      9  C   LIG    1        2.420   3.937  -0.001  0.00  0.00    +0.580 C 
ATOM     10  O   LIG    1        2.399   5.153   0.005  0.00  0.00    -0.500 OA
BRANCH   7  15
ATOM     11  C   LIG    1        8.859   5.044  -0.098  0.00  0.00    +0.190 C 
ATOM     12  N   LIG    1        7.600   4.288  -0.089  0.00  0.00    -0.550 NA
ATOM     13  C   LIG    1        6.849   4.529   1.150  0.00  0.00    +0.200 C 
ATOM     14  C   LIG    1        5.586   3.665   1.155  0.00  0.00    +0.180 C 
ATOM     15  N   LIG    1        4.770   3.987  -0.024  0.00  0.00    -0.290 NA
ATOM     16  C   LIG    1        5.521   3.745  -1.263  0.00  0.00    +0.180 C 
ATOM     17  C   LIG    1        6.784   4.610  -1.268  0.00  0.00    +0.200 C 
ENDBRANCH   7  15
ENDBRANCH   1   9
BRANCH   5  18
ATOM     18  S   LIG    1       -2.792   3.982   0.049  0.00  0.00    +2.700 S 
ATOM     19  O   LIG    1       -2.537   5.267   0.597  0.00  0.00    -0.950 OA
ATOM     20  O   LIG    1       -3.741   3.077   0.597  0.00  0.00    -0.950 OA
BRANCH  18  21
ATOM     21  N   LIG    1       -3.237   4.226  -1.528  0.00  0.00    -1.110 NA
ATOM     22  H   LIG    1       -3.297   5.127  -1.881  0.00  0.00    +0.420 HD
BRANCH  21  23
ATOM     23  C   LIG    1       -3.540   3.080  -2.389  0.00  0.00    +0.320 C 
BRANCH  23  24
ATOM     24  C   LIG    1       -4.258   3.557  -3.625  0.00  0.00    -0.100 A 
ATOM     25  C   LIG    1       -5.638   3.630  -3.638  0.00  0.00    +0.030 A 
ATOM     26  C   LIG    1       -6.297   4.072  -4.770  0.00  0.00    +0.010 A 
ATOM     27  C   LIG    1       -5.576   4.431  -5.893  0.00  0.00    +0.010 A 
ATOM     28  C   LIG    1       -4.196   4.353  -5.883  0.00  0.00    +0.000 A 
ATOM     29  C   LIG    1       -3.537   3.916  -4.748  0.00  0.00    +0.020 A 
ENDBRANCH  23  24
ENDBRANCH  21  23
ENDBRANCH  18  21
ENDBRANCH   5  18
TORSDOF 6
