REMARK  Name = ZINCkj000005k1dl.1
REMARK                            x       y       z     vdW  Elec       q    Type
REMARK                         _______ _______ _______ _____ _____    ______ ____
ROOT
ATOM      1  N   LIG    1        5.253   1.675   0.066  0.00  0.00    -0.380 N 
ATOM      2  C   LIG    1        5.078   3.126   0.193  0.00  0.00    +0.250 C 
ATOM      3  C   LIG    1        3.603   3.445   0.447  0.00  0.00    +0.060 C 
ATOM      4  C   LIG    1        2.765   2.928  -0.725  0.00  0.00    +0.060 C 
ATOM      5  C   LIG    1        3.013   1.427  -0.895  0.00  0.00    +0.010 C 
ATOM      6  C   LIG    1        4.509   1.182  -1.099  0.00  0.00    +0.280 C 
ATOM      7  H   LIG    1        4.909   1.221   0.899  0.00  0.00    +0.420 HD
ENDROOT
BRANCH   1   8
ATOM      8  C   LIG    1        6.680   1.368  -0.100  0.00  0.00    +0.270 C 
BRANCH   8  10
ATOM      9  C   LIG    1        6.739   0.997   2.370  0.00  0.00    +0.120 C 
ATOM     10  C   LIG    1        7.427   1.695   1.195  0.00  0.00    +0.080 C 
BRANCH  10  11
ATOM     11  C   LIG    1        8.873   1.208   1.087  0.00  0.00    +0.440 C 
ATOM     12  F   LIG    1        8.884  -0.176   0.878  0.00  0.00    -0.170 F 
ATOM     13  F   LIG    1        9.555   1.506   2.271  0.00  0.00    -0.150 F 
ATOM     14  F   LIG    1        9.501   1.846   0.012  0.00  0.00    -0.170 F 
ENDBRANCH  10  11
BRANCH  10  15
ATOM     15  O   LIG    1        7.415   3.108   1.407  0.00  0.00    -0.510 OA
ATOM     16  H   LIG    1        7.835   3.616   0.700  0.00  0.00    +0.400 HD
ENDBRANCH  10  15
ENDBRANCH   8  10
ENDBRANCH   1   8
BRANCH   5  17
ATOM     17  C   LIG    1        2.541   0.686   0.359  0.00  0.00    +0.320 C 
BRANCH  17  18
ATOM     18  N   LIG    1        1.089   0.826   0.491  0.00  0.00    -0.300 N 
ATOM     19  C   LIG    1        0.202  -0.189   0.604  0.00  0.00    +0.160 A 
ATOM     20  C   LIG    1       -1.020   0.386   0.698  0.00  0.00    +0.160 A 
ATOM     21  N   LIG    1       -0.822   1.708   0.646  0.00  0.00    -0.250 NA
ATOM     22  N   LIG    1        0.438   1.936   0.520  0.00  0.00    -0.090 NA
ENDBRANCH  17  18
ENDBRANCH   5  17
TORSDOF 6
