REMARK  Name = ZINCkj000005k1dl.0
REMARK                            x       y       z     vdW  Elec       q    Type
REMARK                         _______ _______ _______ _____ _____    ______ ____
ROOT
ATOM      1  N   LIG    1       -1.262  -0.559   2.304  0.00  0.00    -0.400 N 
ATOM      2  C   LIG    1       -0.565  -1.259   1.218  0.00  0.00    +0.240 C 
ATOM      3  C   LIG    1        0.075  -2.539   1.759  0.00  0.00    +0.070 C 
ATOM      4  C   LIG    1       -1.018  -3.446   2.331  0.00  0.00    +0.070 C 
ATOM      5  C   LIG    1       -1.789  -2.681   3.411  0.00  0.00    -0.020 C 
ATOM      6  C   LIG    1       -2.358  -1.394   2.809  0.00  0.00    +0.280 C 
ATOM      7  H   LIG    1       -0.612  -0.370   3.052  0.00  0.00    +0.420 HD
ENDROOT
BRANCH   1   8
ATOM      8  C   LIG    1       -1.806   0.708   1.798  0.00  0.00    +0.280 C 
BRANCH   8  10
ATOM      9  C   LIG    1       -1.161   3.104   1.504  0.00  0.00    +0.150 C 
ATOM     10  C   LIG    1       -0.656   1.660   1.464  0.00  0.00    +0.090 C 
BRANCH  10  11
ATOM     11  C   LIG    1        0.466   1.483   2.489  0.00  0.00    +0.410 C 
ATOM     12  F   LIG    1        1.478   2.417   2.238  0.00  0.00    -0.140 F 
ATOM     13  F   LIG    1        0.990   0.190   2.388  0.00  0.00    -0.180 F 
ATOM     14  F   LIG    1       -0.043   1.682   3.776  0.00  0.00    -0.170 F 
ENDBRANCH  10  11
BRANCH  10  15
ATOM     15  O   LIG    1       -0.159   1.366   0.157  0.00  0.00    -0.510 OA
ATOM     16  H   LIG    1       -0.239   0.436  -0.094  0.00  0.00    +0.390 HD
ENDBRANCH  10  15
ENDBRANCH   8  10
ENDBRANCH   1   8
BRANCH   5  17
ATOM     17  C   LIG    1       -2.934  -3.550   3.934  0.00  0.00    +0.360 C 
BRANCH  17  18
ATOM     18  N   LIG    1       -2.383  -4.724   4.616  0.00  0.00    -0.300 N 
ATOM     19  C   LIG    1       -2.655  -5.103   5.887  0.00  0.00    +0.160 A 
ATOM     20  C   LIG    1       -1.941  -6.232   6.104  0.00  0.00    +0.160 A 
ATOM     21  N   LIG    1       -1.270  -6.481   4.974  0.00  0.00    -0.260 NA
ATOM     22  N   LIG    1       -1.554  -5.569   4.112  0.00  0.00    -0.090 NA
ENDBRANCH  17  18
ENDBRANCH   5  17
TORSDOF 6
