REMARK  Name = ZINCpe00000zf121.0
REMARK                            x       y       z     vdW  Elec       q    Type
REMARK                         _______ _______ _______ _____ _____    ______ ____
ROOT
ATOM      1  C   LIG    1        0.002  -0.004   0.002  0.00  0.00    +0.590 C 
ATOM      2  N   LIG    1       -1.155  -0.689  -0.092  0.00  0.00    -0.610 N 
ATOM      3  C   LIG    1       -2.443   0.014  -0.182  0.00  0.00    +0.290 C 
ATOM      4  C   LIG    1       -3.215  -0.546  -1.387  0.00  0.00    +0.180 C 
ATOM      5  N   LIG    1       -3.312  -2.007  -1.264  0.00  0.00    -0.550 NA
ATOM      6  C   LIG    1       -1.985  -2.635  -1.305  0.00  0.00    +0.180 C 
ATOM      7  C   LIG    1       -1.162  -2.160  -0.102  0.00  0.00    +0.290 C 
ATOM      8  O   LIG    1       -0.015   1.209   0.086  0.00  0.00    -0.530 OA
ENDROOT
BRANCH   1  11
ATOM      9  C   LIG    1        2.546   0.732  -1.679  0.00  0.00    +0.180 C 
ATOM     10  C   LIG    1        2.404  -0.421  -0.720  0.00  0.00    +0.070 A 
ATOM     11  C   LIG    1        1.288  -0.725   0.003  0.00  0.00    -0.240 A 
ATOM     12  C   LIG    1        1.637  -1.918   0.788  0.00  0.00    -0.030 A 
ATOM     13  C   LIG    1        2.903  -2.217   0.461  0.00  0.00    +0.180 A 
ATOM     14  O   LIG    1        3.350  -1.320  -0.432  0.00  0.00    -0.170 OA
ENDBRANCH   1  11
BRANCH   5  15
ATOM     15  C   LIG    1       -4.191  -2.565  -2.301  0.00  0.00    +0.520 C 
BRANCH  15  16
ATOM     16  N   LIG    1       -5.225  -1.586  -2.644  0.00  0.00    -0.440 N 
ATOM     17  N   LIG    1       -5.048  -0.431  -3.417  0.00  0.00    -0.290 NA
ATOM     18  C   LIG    1       -6.206   0.182  -3.498  0.00  0.00    +0.300 A 
ATOM     19  C   LIG    1       -6.603   1.379  -4.146  0.00  0.00    +0.030 A 
ATOM     20  C   LIG    1       -7.894   1.783  -4.061  0.00  0.00    +0.110 A 
ATOM     21  C   LIG    1       -8.824   1.013  -3.333  0.00  0.00    -0.020 A 
ATOM     22  C   LIG    1       -8.442  -0.121  -2.720  0.00  0.00    +0.300 A 
ATOM     23  N   LIG    1       -7.139  -0.553  -2.791  0.00  0.00    -0.480 N 
ATOM     24  C   LIG    1       -6.522  -1.636  -2.278  0.00  0.00    +0.650 A 
ATOM     25  O   LIG    1       -7.043  -2.506  -1.601  0.00  0.00    -0.530 OA
ENDBRANCH  15  16
ENDBRANCH   5  15
TORSDOF 3
