REMARK  Name = ZINCAx0000000gLi.0
REMARK                            x       y       z     vdW  Elec       q    Type
REMARK                         _______ _______ _______ _____ _____    ______ ____
ROOT
ATOM      1  C   LIG    1        5.763  -1.510  -0.062  0.00  0.00    +0.100 A 
ATOM      2  C   LIG    1        4.654  -0.688  -0.040  0.00  0.00    +0.020 A 
ATOM      3  C   LIG    1        4.816   0.701  -0.040  0.00  0.00    -0.100 A 
ATOM      4  C   LIG    1        6.101   1.251  -0.050  0.00  0.00    +0.100 A 
ATOM      5  C   LIG    1        7.204   0.425  -0.065  0.00  0.00    -0.120 A 
ATOM      6  C   LIG    1        7.042  -0.954  -0.071  0.00  0.00    +0.130 A 
ENDROOT
BRANCH   1   8
ATOM      7  C   LIG    1        4.270  -3.361  -0.059  0.00  0.00    +0.250 C 
ATOM      8  O   LIG    1        5.609  -2.861  -0.069  0.00  0.00    -0.300 OA
ENDBRANCH   1   8
BRANCH   3   9
ATOM      9  C   LIG    1        3.635   1.583  -0.024  0.00  0.00    +0.520 C 
ATOM     10  O   LIG    1        3.777   2.790  -0.019  0.00  0.00    -0.490 OA
BRANCH   9  11
ATOM     11  O   LIG    1        2.397   1.051  -0.015  0.00  0.00    -0.330 OA
BRANCH  11  12
ATOM     12  C   LIG    1        1.280   1.980   0.001  0.00  0.00    +0.270 C 
BRANCH  12  13
ATOM     13  C   LIG    1       -0.014   1.209   0.009  0.00  0.00    +0.520 C 
ATOM     14  N   LIG    1       -1.191   1.867   0.018  0.00  0.00    -0.720 N 
ATOM     15  H   LIG    1       -1.204   2.837   0.023  0.00  0.00    +0.410 HD
ATOM     16  O   LIG    1        0.002  -0.004   0.002  0.00  0.00    -0.500 OA
BRANCH  14  17
ATOM     17  C   LIG    1       -2.449   1.117   0.020  0.00  0.00    +0.290 C 
ATOM     18  C   LIG    1       -2.512   0.230   1.264  0.00  0.00    +0.080 C 
BRANCH  17  19
ATOM     19  C   LIG    1       -3.626   2.095   0.031  0.00  0.00    +0.010 C 
ATOM     20  C   LIG    1       -4.936   1.316   0.158  0.00  0.00    +0.050 C 
ATOM     21  C   LIG    1       -3.634   2.897  -1.272  0.00  0.00    +0.030 C 
ENDBRANCH  17  19
BRANCH  17  22
ATOM     22  C   LIG    1       -2.521   0.276  -1.186  0.00  0.00    +0.200 C 
ATOM     23  N   LIG    1       -2.577  -0.373  -2.117  0.00  0.00    -0.410 NA
ENDBRANCH  17  22
ENDBRANCH  14  17
ENDBRANCH  12  13
ENDBRANCH  11  12
ENDBRANCH   9  11
ENDBRANCH   3   9
BRANCH   6  24
ATOM     24  O   LIG    1        8.132  -1.763  -0.086  0.00  0.00    -0.310 OA
ATOM     25  C   LIG    1        8.666  -2.157   1.180  0.00  0.00    +0.230 C 
ENDBRANCH   6  24
BRANCH   5  26
ATOM     26  C   LIG    1        8.588   1.020  -0.074  0.00  0.00    +0.380 C 
BRANCH  26  27
ATOM     27  N   LIG    1        9.118   1.000  -1.440  0.00  0.00    -0.570 N 
ATOM     28  C   LIG    1        9.832  -0.013  -1.964  0.00  0.00    +0.570 C 
ATOM     29  C   LIG    1       10.184   0.331  -3.358  0.00  0.00    -0.140 A 
ATOM     30  C   LIG    1       10.888  -0.309  -4.365  0.00  0.00    +0.090 A 
ATOM     31  C   LIG    1       11.047   0.311  -5.594  0.00  0.00    +0.050 A 
ATOM     32  C   LIG    1       10.508   1.563  -5.822  0.00  0.00    +0.040 A 
ATOM     33  C   LIG    1        9.800   2.216  -4.825  0.00  0.00    +0.100 A 
ATOM     34  C   LIG    1        9.633   1.608  -3.591  0.00  0.00    -0.140 A 
ATOM     35  O   LIG    1       10.134  -1.040  -1.390  0.00  0.00    -0.430 OA
ATOM     36  C   LIG    1        8.961   1.994  -2.333  0.00  0.00    +0.570 C 
ATOM     37  O   LIG    1        8.366   3.034  -2.137  0.00  0.00    -0.460 OA
ENDBRANCH  26  27
ENDBRANCH   5  26
TORSDOF 11
