REMARK  Name = ZINCpk00000xNeXw.0
REMARK                            x       y       z     vdW  Elec       q    Type
REMARK                         _______ _______ _______ _____ _____    ______ ____
ROOT
ATOM      1  C   LIG    1       -7.885  -1.721   3.954  0.00  0.00    +0.560 C 
ATOM      2  N   LIG    1       -6.821  -1.934   3.156  0.00  0.00    -0.730 N 
ATOM      3  H   LIG    1       -6.645  -2.822   2.809  0.00  0.00    +0.400 HD
ATOM      4  O   LIG    1       -8.106  -0.607   4.390  0.00  0.00    -0.500 OA
ENDROOT
BRANCH   1  10
ATOM      5  C   LIG    1       -9.889  -2.623   5.134  0.00  0.00    +0.190 A 
ATOM      6  C   LIG    1      -10.730  -3.680   5.448  0.00  0.00    -0.080 A 
ATOM      7  C   LIG    1      -10.472  -4.941   4.949  0.00  0.00    +0.080 A 
ATOM      8  C   LIG    1       -9.378  -5.160   4.129  0.00  0.00    -0.030 A 
ATOM      9  C   LIG    1       -8.535  -4.120   3.802  0.00  0.00    +0.080 A 
ATOM     10  C   LIG    1       -8.784  -2.839   4.300  0.00  0.00    -0.170 A 
BRANCH   5  11
ATOM     11  O   LIG    1      -10.139  -1.384   5.628  0.00  0.00    -0.260 OA
BRANCH  11  12
ATOM     12  C   LIG    1      -11.283  -1.240   6.471  0.00  0.00    +0.280 C 
BRANCH  12  13
ATOM     13  C   LIG    1      -11.399   0.194   6.921  0.00  0.00    +0.460 C 
ATOM     14  O   LIG    1      -10.584   1.009   6.557  0.00  0.00    -0.470 OA
BRANCH  13  16
ATOM     15  C   LIG    1      -12.455   1.962   8.120  0.00  0.00    +0.290 C 
ATOM     16  O   LIG    1      -12.406   0.566   7.726  0.00  0.00    -0.360 OA
ENDBRANCH  13  16
ENDBRANCH  12  13
ENDBRANCH  11  12
ENDBRANCH   5  11
ENDBRANCH   1  10
BRANCH   2  17
ATOM     17  C   LIG    1       -5.928  -0.824   2.813  0.00  0.00    +0.290 C 
BRANCH  17  18
ATOM     18  C   LIG    1       -4.809  -1.332   1.903  0.00  0.00    +0.150 C 
BRANCH  18  19
ATOM     19  C   LIG    1       -3.891  -0.190   1.550  0.00  0.00    +0.180 A 
ATOM     20  N   LIG    1       -4.241   0.945   1.009  0.00  0.00    -0.280 NA
ATOM     21  N   LIG    1       -3.203   1.688   0.852  0.00  0.00    -0.290 NA
ATOM     22  C   LIG    1       -2.143   1.058   1.278  0.00  0.00    +0.190 A 
ATOM     23  N   LIG    1       -2.549  -0.151   1.736  0.00  0.00    -0.580 N 
ATOM     24  H   LIG    1       -1.993  -0.847   2.120  0.00  0.00    +0.430 HD
BRANCH  22  25
ATOM     25  C   LIG    1       -0.729   1.579   1.267  0.00  0.00    +0.100 C 
ATOM     26  C   LIG    1        0.011   1.072   2.506  0.00  0.00    +0.040 C 
ATOM     27  C   LIG    1       -0.013   1.086   0.008  0.00  0.00    +0.040 C 
ENDBRANCH  22  25
ENDBRANCH  18  19
ENDBRANCH  17  18
ENDBRANCH   2  17
TORSDOF 9
