REMARK  Name = ZINCpk00000KfLDK.0
REMARK                            x       y       z     vdW  Elec       q    Type
REMARK                         _______ _______ _______ _____ _____    ______ ____
ROOT
ATOM      1  C   LIG    1       -2.969   2.564  -1.502  0.00  0.00    +0.520 C 
ATOM      2  N   LIG    1       -2.222   1.531  -1.065  0.00  0.00    -0.600 N 
ATOM      3  C   LIG    1       -2.890   0.409  -0.444  0.00  0.00    +0.280 C 
ATOM      4  C   LIG    1       -2.980   0.641   1.086  0.00  0.00    +0.040 C 
ATOM      5  C   LIG    1       -1.634   0.547   1.684  0.00  0.00    +0.200 C 
ATOM      6  N   LIG    1       -0.689   1.552   1.200  0.00  0.00    -0.460 N 
ATOM      7  C   LIG    1       -0.013   1.086   0.008  0.00  0.00    +0.200 C 
ATOM      8  C   LIG    1       -0.756   1.595  -1.241  0.00  0.00    +0.280 C 
ATOM      9  O   LIG    1       -4.174   2.540  -1.370  0.00  0.00    -0.510 OA
ENDROOT
BRANCH   6  10
ATOM     10  C   LIG    1        0.226   1.891   2.191  0.00  0.00    +0.260 A 
ATOM     11  C   LIG    1        1.228   2.825   1.930  0.00  0.00    +0.010 A 
ATOM     12  C   LIG    1        2.111   3.132   2.953  0.00  0.00    +0.060 A 
ATOM     13  C   LIG    1        1.951   2.484   4.170  0.00  0.00    +0.180 A 
ATOM     14  N   LIG    1        0.978   1.609   4.328  0.00  0.00    -0.220 NA
ATOM     15  N   LIG    1        0.153   1.323   3.387  0.00  0.00    -0.280 NA
ENDBRANCH   6  10
BRANCH   1  17
ATOM     16  C   LIG    1       -1.653   3.312  -3.466  0.00  0.00    +0.040 C 
ATOM     17  C   LIG    1       -2.306   3.751  -2.154  0.00  0.00    +0.160 C 
BRANCH  17  18
ATOM     18  O   LIG    1       -3.286   4.755  -2.423  0.00  0.00    -0.350 OA
BRANCH  18  19
ATOM     19  C   LIG    1       -2.775   6.090  -2.388  0.00  0.00    +0.200 C 
BRANCH  19  20
ATOM     20  C   LIG    1       -3.905   7.076  -2.688  0.00  0.00    +0.160 C 
ATOM     21  C   LIG    1       -3.335   8.495  -2.773  0.00  0.00    +0.000 C 
ATOM     22  C   LIG    1       -4.480   9.483  -3.014  0.00  0.00    +0.020 C 
ATOM     23  C   LIG    1       -5.511   9.337  -1.890  0.00  0.00    -0.020 C 
ATOM     24  C   LIG    1       -5.997   7.886  -1.839  0.00  0.00    +0.200 C 
ATOM     25  O   LIG    1       -4.879   7.018  -1.644  0.00  0.00    -0.370 OA
ENDBRANCH  19  20
ENDBRANCH  18  19
ENDBRANCH  17  18
ENDBRANCH   1  17
TORSDOF 5
