REMARK  Name = ZINCrH000004jqPa.0
REMARK                            x       y       z     vdW  Elec       q    Type
REMARK                         _______ _______ _______ _____ _____    ______ ____
ROOT
ATOM      1  C   LIG    1       -2.674   2.847  -0.869  0.00  0.00    +0.340 C 
ATOM      2  C   LIG    1       -3.714   2.752   0.251  0.00  0.00    +0.040 C 
ATOM      3  C   LIG    1       -5.117   2.752  -0.361  0.00  0.00    +0.020 C 
ATOM      4  C   LIG    1       -5.346   4.057  -1.126  0.00  0.00    +0.010 C 
ATOM      5  C   LIG    1       -4.323   4.163  -2.262  0.00  0.00    +0.270 C 
ATOM      6  N   LIG    1       -2.974   4.022  -1.698  0.00  0.00    -0.620 N 
ATOM      7  C   LIG    1       -2.029   4.954  -1.937  0.00  0.00    +0.700 C 
ATOM      8  N   LIG    1       -2.341   6.068  -2.628  0.00  0.00    -0.670 N 
ATOM      9  H   LIG    1       -3.263   6.246  -2.871  0.00  0.00    +0.410 HD
ATOM     10  O   LIG    1       -0.896   4.789  -1.528  0.00  0.00    -0.520 OA
ENDROOT
BRANCH   8  11
ATOM     11  C   LIG    1       -1.337   6.964  -2.996  0.00  0.00    +0.340 A 
ATOM     12  C   LIG    1       -1.051   7.377  -4.261  0.00  0.00    -0.200 A 
ATOM     13  C   LIG    1        0.019   8.273  -4.187  0.00  0.00    -0.010 A 
ATOM     14  N   LIG    1        0.371   8.391  -2.932  0.00  0.00    -0.220 NA
ATOM     15  C   LIG    1       -1.763   6.946  -5.517  0.00  0.00    +0.130 C 
ATOM     16  N   LIG    1       -0.468   7.577  -2.160  0.00  0.00    -0.330 N 
ATOM     17  C   LIG    1       -0.414   7.418  -0.705  0.00  0.00    +0.380 C 
BRANCH  13  18
ATOM     18  C   LIG    1        0.662   8.978  -5.353  0.00  0.00    +0.560 C 
ATOM     19  F   LIG    1       -0.260   9.855  -5.934  0.00  0.00    -0.170 F 
ATOM     20  F   LIG    1        1.068   8.034  -6.303  0.00  0.00    -0.170 F 
ATOM     21  F   LIG    1        1.775   9.699  -4.907  0.00  0.00    -0.170 F 
ENDBRANCH  13  18
ENDBRANCH   8  11
BRANCH   1  26
ATOM     22  N   LIG    1       -0.283   2.111  -0.412  0.00  0.00    -0.450 N 
ATOM     23  C   LIG    1        0.783   2.607   0.289  0.00  0.00    +0.110 A 
ATOM     24  C   LIG    1        0.385   3.775   0.828  0.00  0.00    +0.140 A 
ATOM     25  N   LIG    1       -0.891   3.982   0.473  0.00  0.00    -0.450 NA
ATOM     26  C   LIG    1       -1.298   2.990  -0.270  0.00  0.00    +0.220 A 
BRANCH  22  28
ATOM     27  C   LIG    1       -0.009   1.144  -2.642  0.00  0.00    +0.030 C 
ATOM     28  C   LIG    1       -0.318   0.858  -1.171  0.00  0.00    +0.280 C 
ENDBRANCH  22  28
ENDBRANCH   1  26
TORSDOF 4
