REMARK  Name = ZINCvU0000000HRO.0
REMARK                            x       y       z     vdW  Elec       q    Type
REMARK                         _______ _______ _______ _____ _____    ______ ____
ROOT
ATOM      1  C   LIG    1        3.892   1.785   0.099  0.00  0.00    -0.140 A 
ATOM      2  C   LIG    1        5.048   1.175  -0.200  0.00  0.00    +0.040 A 
ATOM      3  S   LIG    1        4.810  -0.567  -0.202  0.00  0.00    +0.220 S 
ATOM      4  C   LIG    1        3.111  -0.367   0.205  0.00  0.00    -0.240 A 
ATOM      5  C   LIG    1        2.127  -1.492   0.399  0.00  0.00    +0.130 C 
ATOM      6  C   LIG    1        2.825   0.930   0.316  0.00  0.00    -0.060 A 
ATOM      7  C   LIG    1        1.444   1.429   0.659  0.00  0.00    +0.110 C 
ENDROOT
BRANCH   2   8
ATOM      8  N   LIG    1        6.257   1.823  -0.463  0.00  0.00    -0.630 N 
ATOM      9  H   LIG    1        6.286   2.791  -0.515  0.00  0.00    +0.410 HD
ATOM     10  C   LIG    1        7.382   1.104  -0.644  0.00  0.00    +0.550 C 
ATOM     11  O   LIG    1        7.345  -0.110  -0.578  0.00  0.00    -0.500 OA
BRANCH  10  12
ATOM     12  C   LIG    1        8.662   1.790  -0.916  0.00  0.00    -0.140 A 
ATOM     13  C   LIG    1        8.707   3.183  -0.998  0.00  0.00    +0.030 A 
ATOM     14  C   LIG    1        9.907   3.818  -1.248  0.00  0.00    +0.010 A 
ATOM     15  C   LIG    1       11.061   3.076  -1.427  0.00  0.00    +0.040 A 
ATOM     16  C   LIG    1       11.022   1.695  -1.352  0.00  0.00    +0.010 A 
ATOM     17  C   LIG    1        9.831   1.048  -1.098  0.00  0.00    +0.090 A 
ENDBRANCH  10  12
ENDBRANCH   2   8
BRANCH   1  18
ATOM     18  C   LIG    1        3.763   3.284   0.188  0.00  0.00    +0.250 C 
BRANCH  18  22
ATOM     19  C   LIG    1        3.386   4.442   4.285  0.00  0.00    -0.080 A 
ATOM     20  C   LIG    1        4.640   4.393   3.688  0.00  0.00    +0.030 A 
ATOM     21  C   LIG    1        4.758   4.018   2.364  0.00  0.00    +0.030 A 
ATOM     22  C   LIG    1        3.630   3.692   1.633  0.00  0.00    -0.080 A 
ATOM     23  C   LIG    1        2.380   3.745   2.223  0.00  0.00    +0.060 A 
ATOM     24  C   LIG    1        2.255   4.114   3.547  0.00  0.00    -0.020 A 
BRANCH  19  26
ATOM     25  C   LIG    1        1.442   4.825   6.262  0.00  0.00    +0.130 C 
ATOM     26  S   LIG    1        3.230   4.920   5.974  0.00  0.00    -0.120 S 
ENDBRANCH  19  26
ENDBRANCH  18  22
BRANCH  18  27
ATOM     27  N   LIG    1        2.573   3.719  -0.555  0.00  0.00    -0.520 NA
ATOM     28  C   LIG    1        2.628   3.262  -1.951  0.00  0.00    +0.150 C 
ATOM     29  C   LIG    1        1.344   3.684  -2.671  0.00  0.00    +0.220 C 
ATOM     30  O   LIG    1        1.191   5.102  -2.571  0.00  0.00    -0.380 OA
ATOM     31  C   LIG    1        1.133   5.581  -1.225  0.00  0.00    +0.220 C 
ATOM     32  C   LIG    1        2.415   5.179  -0.490  0.00  0.00    +0.140 C 
ENDBRANCH  18  27
ENDBRANCH   1  18
TORSDOF 6
