REMARK  Name = ZINCpe000000TKRs.0
REMARK                            x       y       z     vdW  Elec       q    Type
REMARK                         _______ _______ _______ _____ _____    ______ ____
ROOT
ATOM      1  C   LIG    1       -0.753   1.593  -1.232  0.00  0.00    +0.270 C 
ENDROOT
BRANCH   1   2
ATOM      2  N   LIG    1       -2.087   0.991  -1.284  0.00  0.00    -0.700 N 
ATOM      3  H   LIG    1       -2.514   0.685  -0.468  0.00  0.00    +0.410 HD
ATOM      4  C   LIG    1       -2.723   0.862  -2.465  0.00  0.00    +0.500 C 
ATOM      5  O   LIG    1       -2.190   1.245  -3.485  0.00  0.00    -0.520 OA
BRANCH   4   6
ATOM      6  C   LIG    1       -4.096   0.243  -2.519  0.00  0.00    +0.280 C 
BRANCH   6   7
ATOM      7  C   LIG    1       -4.011  -1.202  -2.100  0.00  0.00    -0.130 A 
ATOM      8  C   LIG    1       -3.588  -2.160  -3.003  0.00  0.00    +0.010 A 
ATOM      9  C   LIG    1       -3.506  -3.485  -2.617  0.00  0.00    +0.020 A 
ATOM     10  C   LIG    1       -3.857  -3.854  -1.332  0.00  0.00    +0.020 A 
ATOM     11  C   LIG    1       -4.286  -2.897  -0.431  0.00  0.00    +0.020 A 
ATOM     12  C   LIG    1       -4.363  -1.571  -0.815  0.00  0.00    +0.020 A 
ENDBRANCH   6   7
BRANCH   6  13
ATOM     13  O   LIG    1       -4.603   0.323  -3.853  0.00  0.00    -0.520 OA
ATOM     14  H   LIG    1       -4.058  -0.133  -4.509  0.00  0.00    +0.380 HD
ENDBRANCH   6  13
ENDBRANCH   4   6
ENDBRANCH   1   2
BRANCH   1  15
ATOM     15  C   LIG    1       -0.881   3.093  -1.162  0.00  0.00    +0.440 C 
ATOM     16  O   LIG    1       -1.974   3.606  -1.156  0.00  0.00    -0.480 OA
BRANCH  15  17
ATOM     17  O   LIG    1        0.221   3.858  -1.106  0.00  0.00    -0.350 OA
BRANCH  17  19
ATOM     18  C   LIG    1        1.381   5.996  -0.983  0.00  0.00    +0.060 C 
ATOM     19  C   LIG    1        0.022   5.295  -1.041  0.00  0.00    +0.200 C 
ENDBRANCH  17  19
ENDBRANCH  15  17
ENDBRANCH   1  15
BRANCH   1  20
ATOM     20  C   LIG    1       -0.013   1.086   0.008  0.00  0.00    +0.300 C 
BRANCH  20  21
ATOM     21  C   LIG    1        1.401   1.607  -0.003  0.00  0.00    -0.190 A 
ATOM     22  C   LIG    1        2.430   0.837  -0.522  0.00  0.00    +0.090 A 
ATOM     23  C   LIG    1        3.715   1.357  -0.511  0.00  0.00    -0.040 A 
ATOM     24  C   LIG    1        3.926   2.619   0.013  0.00  0.00    +0.270 A 
ATOM     25  N   LIG    1        2.923   3.324   0.499  0.00  0.00    -0.480 NA
ATOM     26  C   LIG    1        1.688   2.863   0.500  0.00  0.00    +0.290 A 
ENDBRANCH  20  21
BRANCH  20  27
ATOM     27  O   LIG    1       -0.682   1.547   1.184  0.00  0.00    -0.540 OA
ATOM     28  H   LIG    1       -0.732   2.510   1.256  0.00  0.00    +0.380 HD
ENDBRANCH  20  27
ENDBRANCH   1  20
TORSDOF 10
