REMARK  Name = ZINCpk00000KfLlu.0
REMARK                            x       y       z     vdW  Elec       q    Type
REMARK                         _______ _______ _______ _____ _____    ______ ____
ROOT
ATOM      1  N   LIG    1        4.043   0.626  -1.418  0.00  0.00    -0.540 NA
ATOM      2  C   LIG    1        3.671  -0.621  -2.102  0.00  0.00    +0.200 C 
ATOM      3  C   LIG    1        4.115  -0.547  -3.565  0.00  0.00    +0.190 C 
ATOM      4  N   LIG    1        5.568  -0.331  -3.624  0.00  0.00    -0.520 NA
ATOM      5  C   LIG    1        5.939   0.916  -2.939  0.00  0.00    +0.180 C 
ATOM      6  C   LIG    1        5.495   0.843  -1.476  0.00  0.00    +0.190 C 
ENDROOT
BRANCH   1   7
ATOM      7  C   LIG    1        3.566   0.625  -0.028  0.00  0.00    +0.300 C 
BRANCH   7  12
ATOM      8  N   LIG    1        1.288   1.756  -0.001  0.00  0.00    -0.450 N 
ATOM      9  C   LIG    1       -0.016   1.343   0.009  0.00  0.00    +0.110 A 
ATOM     10  C   LIG    1        0.002  -0.004   0.002  0.00  0.00    +0.140 A 
ATOM     11  N   LIG    1        1.283  -0.402  -0.012  0.00  0.00    -0.490 NA
ATOM     12  C   LIG    1        2.059   0.647  -0.014  0.00  0.00    +0.210 A 
BRANCH   8  14
ATOM     13  C   LIG    1        2.030   3.592  -1.436  0.00  0.00    +0.040 C 
ATOM     14  C   LIG    1        1.761   3.143   0.001  0.00  0.00    +0.280 C 
ENDBRANCH   8  14
ENDBRANCH   7  12
ENDBRANCH   1   7
BRANCH   4  15
ATOM     15  C   LIG    1        6.044  -0.330  -5.013  0.00  0.00    +0.220 C 
BRANCH  15  16
ATOM     16  C   LIG    1        5.866  -1.704  -5.606  0.00  0.00    +0.520 C 
ATOM     17  N   LIG    1        6.237  -1.942  -6.879  0.00  0.00    -0.730 N 
ATOM     18  H   LIG    1        6.619  -1.228  -7.415  0.00  0.00    +0.400 HD
ATOM     19  O   LIG    1        5.389  -2.596  -4.936  0.00  0.00    -0.510 OA
BRANCH  17  20
ATOM     20  C   LIG    1        6.064  -3.278  -7.455  0.00  0.00    +0.350 C 
ATOM     21  C   LIG    1        4.641  -3.418  -7.998  0.00  0.00    +0.040 C 
BRANCH  20  22
ATOM     22  C   LIG    1        7.051  -3.473  -8.577  0.00  0.00    -0.030 A 
ATOM     23  C   LIG    1        7.740  -4.600  -8.833  0.00  0.00    -0.040 A 
ATOM     24  C   LIG    1        8.541  -4.342  -9.969  0.00  0.00    -0.060 A 
ATOM     25  C   LIG    1        8.301  -3.070 -10.335  0.00  0.00    +0.170 A 
ATOM     26  O   LIG    1        7.398  -2.548  -9.488  0.00  0.00    -0.180 OA
ENDBRANCH  20  22
ENDBRANCH  17  20
ENDBRANCH  15  16
ENDBRANCH   4  15
TORSDOF 7
