REMARK  Name = ZINCpk00000KfLoD.0
REMARK                            x       y       z     vdW  Elec       q    Type
REMARK                         _______ _______ _______ _____ _____    ______ ____
ROOT
ATOM      1  O   LIG    1       -4.580  -1.753   1.843  0.00  0.00    -0.350 OA
ENDROOT
BRANCH   1   2
ATOM      2  C   LIG    1       -4.060  -0.517   1.789  0.00  0.00    +0.450 C 
ATOM      3  O   LIG    1       -4.721   0.433   2.135  0.00  0.00    -0.470 OA
BRANCH   2   4
ATOM      4  C   LIG    1       -2.650  -0.314   1.296  0.00  0.00    +0.290 C 
BRANCH   4   6
ATOM      5  C   LIG    1       -1.146  -0.491  -0.692  0.00  0.00    +0.040 C 
ATOM      6  C   LIG    1       -2.533  -0.827  -0.141  0.00  0.00    -0.010 C 
ATOM      7  C   LIG    1       -2.735  -2.344  -0.158  0.00  0.00    +0.050 C 
ENDBRANCH   4   6
BRANCH   4   8
ATOM      8  N   LIG    1       -2.321   1.113   1.333  0.00  0.00    -1.100 NA
ATOM      9  H   LIG    1       -2.581   1.690   0.598  0.00  0.00    +0.430 HD
BRANCH   8  10
ATOM     10  S   LIG    1       -1.504   1.741   2.630  0.00  0.00    +2.610 S 
ATOM     11  O   LIG    1       -1.337   3.115   2.307  0.00  0.00    -0.950 OA
ATOM     12  O   LIG    1       -2.274   1.342   3.755  0.00  0.00    -0.940 OA
ATOM     13  C   LIG    1        0.095   0.885   2.616  0.00  0.00    -0.280 C 
ENDBRANCH   8  10
ENDBRANCH   4   8
ENDBRANCH   2   4
ENDBRANCH   1   2
BRANCH   1  14
ATOM     14  C   LIG    1       -5.944  -1.873   2.328  0.00  0.00    +0.410 C 
BRANCH  14  15
ATOM     15  C   LIG    1       -6.354  -3.324   2.318  0.00  0.00    +0.180 A 
ATOM     16  N   LIG    1       -6.206  -4.181   3.297  0.00  0.00    -0.450 NA
ATOM     17  C   LIG    1       -6.715  -5.347   2.839  0.00  0.00    +0.220 A 
ATOM     18  N   LIG    1       -7.137  -5.131   1.620  0.00  0.00    -0.360 NA
ATOM     19  O   LIG    1       -6.943  -3.975   1.310  0.00  0.00    +0.100 OA
BRANCH  17  20
ATOM     20  C   LIG    1       -6.780  -6.630   3.580  0.00  0.00    -0.040 A 
ATOM     21  C   LIG    1       -6.282  -6.714   4.879  0.00  0.00    +0.110 A 
ATOM     22  C   LIG    1       -6.351  -7.908   5.567  0.00  0.00    -0.010 A 
ATOM     23  C   LIG    1       -6.904  -9.026   4.964  0.00  0.00    +0.120 A 
ATOM     24  C   LIG    1       -7.395  -8.949   3.670  0.00  0.00    -0.010 A 
ATOM     25  F   LIG    1       -6.964 -10.195   5.639  0.00  0.00    -0.130 F 
ATOM     26  C   LIG    1       -7.335  -7.758   2.978  0.00  0.00    +0.090 A 
ENDBRANCH  17  20
ENDBRANCH  14  15
ENDBRANCH   1  14
TORSDOF 8
