REMARK  Name = ZINCpk00000y6vaG.0
REMARK                            x       y       z     vdW  Elec       q    Type
REMARK                         _______ _______ _______ _____ _____    ______ ____
ROOT
ATOM      1  N   LIG    1        2.019  -2.200  -1.413  0.00  0.00    -0.530 NA
ATOM      2  C   LIG    1        0.719  -2.324  -2.085  0.00  0.00    +0.170 C 
ATOM      3  C   LIG    1        0.937  -2.650  -3.564  0.00  0.00    +0.030 C 
ATOM      4  C   LIG    1        1.720  -3.960  -3.683  0.00  0.00    +0.030 C 
ATOM      5  C   LIG    1        3.049  -3.821  -2.934  0.00  0.00    +0.010 C 
ATOM      6  C   LIG    1        2.770  -3.460  -1.473  0.00  0.00    +0.190 C 
ENDROOT
BRANCH   5   7
ATOM      7  C   LIG    1        3.812  -5.145  -2.997  0.00  0.00    +0.130 C 
ATOM      8  N   LIG    1        5.175  -4.984  -2.459  0.00  0.00    -0.720 N 
ATOM      9  H   LIG    1        5.414  -4.721  -1.557  0.00  0.00    +0.440 HD
ATOM     10  C   LIG    1        6.021  -5.270  -3.465  0.00  0.00    +0.700 C 
ATOM     11  N   LIG    1        5.382  -5.599  -4.593  0.00  0.00    -0.580 N 
ATOM     12  C   LIG    1        6.053  -5.956  -5.845  0.00  0.00    +0.340 C 
ATOM     13  O   LIG    1        7.231  -5.234  -3.360  0.00  0.00    -0.540 OA
ATOM     14  C   LIG    1        3.059  -6.236  -2.233  0.00  0.00    +0.090 C 
ATOM     15  C   LIG    1        4.040  -5.562  -4.436  0.00  0.00    +0.530 C 
ATOM     16  O   LIG    1        3.196  -5.809  -5.270  0.00  0.00    -0.450 OA
ENDBRANCH   5   7
BRANCH   1  17
ATOM     17  C   LIG    1        1.853  -1.751  -0.025  0.00  0.00    +0.320 C 
BRANCH  17  20
ATOM     18  C   LIG    1       -0.016   1.307   0.009  0.00  0.00    +0.190 A 
ATOM     19  N   LIG    1        0.002  -0.004   0.002  0.00  0.00    -0.480 NA
ATOM     20  C   LIG    1        1.302  -0.348  -0.012  0.00  0.00    +0.180 A 
ATOM     21  N   LIG    1        1.996   0.750  -0.013  0.00  0.00    -0.370 NA
ATOM     22  O   LIG    1        1.258   1.713  -0.001  0.00  0.00    +0.080 OA
BRANCH  18  23
ATOM     23  C   LIG    1       -1.238   2.188   0.020  0.00  0.00    +0.180 C 
BRANCH  23  25
ATOM     24  C   LIG    1       -0.549   3.299   2.149  0.00  0.00    +0.020 C 
ATOM     25  C   LIG    1       -1.645   2.478   1.466  0.00  0.00    -0.010 C 
ATOM     26  C   LIG    1       -2.956   3.268   1.479  0.00  0.00    +0.030 C 
ENDBRANCH  23  25
ENDBRANCH  18  23
ENDBRANCH  17  20
ENDBRANCH   1  17
TORSDOF 5
