REMARK  Name = ZINCtV000002GRv9.0
REMARK                            x       y       z     vdW  Elec       q    Type
REMARK                         _______ _______ _______ _____ _____    ______ ____
ROOT
ATOM      1  C   LIG    1        1.572  -2.163   1.638  0.00  0.00    +0.510 C 
ATOM      2  N   LIG    1        1.888  -3.406   2.049  0.00  0.00    -0.730 N 
ATOM      3  H   LIG    1        2.100  -4.093   1.398  0.00  0.00    +0.400 HD
ATOM      4  O   LIG    1        1.306  -1.304   2.453  0.00  0.00    -0.520 OA
ENDROOT
BRANCH   2   5
ATOM      5  C   LIG    1        1.911  -3.721   3.480  0.00  0.00    +0.240 C 
ATOM      6  C   LIG    1        0.500  -4.085   3.945  0.00  0.00    +0.020 C 
BRANCH   5   7
ATOM      7  C   LIG    1        2.850  -4.904   3.727  0.00  0.00    -0.060 C 
ATOM      8  C   LIG    1        2.353  -6.122   2.944  0.00  0.00    +0.030 C 
ATOM      9  C   LIG    1        3.292  -7.304   3.191  0.00  0.00    -0.020 C 
ATOM     10  C   LIG    1        4.704  -6.941   2.726  0.00  0.00    +0.010 C 
ATOM     11  C   LIG    1        5.200  -5.723   3.508  0.00  0.00    -0.020 C 
ATOM     12  C   LIG    1        5.225  -6.052   5.002  0.00  0.00    +0.010 C 
ATOM     13  C   LIG    1        3.813  -6.416   5.467  0.00  0.00    -0.020 C 
ATOM     14  C   LIG    1        3.316  -7.633   4.685  0.00  0.00    +0.010 C 
ATOM     15  C   LIG    1        4.262  -4.540   3.261  0.00  0.00    +0.020 C 
ATOM     16  C   LIG    1        2.874  -5.233   5.221  0.00  0.00    +0.030 C 
ENDBRANCH   5   7
ENDBRANCH   2   5
BRANCH   1  17
ATOM     17  C   LIG    1        1.548  -1.839   0.167  0.00  0.00    +0.130 C 
BRANCH  17  23
ATOM     18  C   LIG    1        3.780   4.680  -0.065  0.00  0.00    +0.090 C 
ATOM     19  C   LIG    1        3.170   3.302  -0.038  0.00  0.00    -0.060 A 
ATOM     20  C   LIG    1        3.979   2.198   0.190  0.00  0.00    -0.090 A 
ATOM     21  C   LIG    1        3.435   0.933   0.218  0.00  0.00    +0.060 A 
ATOM     22  C   LIG    1        2.066   0.767   0.015  0.00  0.00    -0.110 A 
ATOM     23  C   LIG    1        1.167  -0.393  -0.023  0.00  0.00    -0.160 A 
ATOM     24  C   LIG    1       -0.059   0.092  -0.262  0.00  0.00    +0.220 A 
ATOM     25  O   LIG    1       -0.013   1.431  -0.375  0.00  0.00    -0.190 OA
ATOM     26  C   LIG    1        1.246   1.885  -0.215  0.00  0.00    +0.050 A 
ATOM     27  C   LIG    1        1.815   3.152  -0.239  0.00  0.00    +0.020 A 
BRANCH  20  28
ATOM     28  C   LIG    1        5.458   2.384   0.407  0.00  0.00    +0.030 C 
ATOM     29  C   LIG    1        6.228   1.746  -0.751  0.00  0.00    +0.030 C 
ATOM     30  C   LIG    1        5.869   1.717   1.721  0.00  0.00    +0.030 C 
ENDBRANCH  20  28
ENDBRANCH  17  23
ENDBRANCH   1  17
TORSDOF 5
