REMARK  Name = ZINCrH000004kWfd.0
REMARK                            x       y       z     vdW  Elec       q    Type
REMARK                         _______ _______ _______ _____ _____    ______ ____
ROOT
ATOM      1  N   LIG    1        0.002  -0.004   0.002  0.00  0.00    -0.570 N 
ATOM      2  C   LIG    1        0.022  -0.761   1.105  0.00  0.00    +0.710 C 
ATOM      3  N   LIG    1        0.037  -2.077   0.824  0.00  0.00    -0.720 N 
ATOM      4  H   LIG    1        0.053  -2.806   1.464  0.00  0.00    +0.440 HD
ATOM      5  C   LIG    1        0.025  -2.195  -0.644  0.00  0.00    +0.170 C 
ATOM      6  C   LIG    1       -1.227  -2.940  -1.114  0.00  0.00    +0.100 C 
ATOM      7  O   LIG    1        0.027  -0.311   2.234  0.00  0.00    -0.530 OA
ATOM      8  C   LIG    1       -0.004  -0.755  -1.117  0.00  0.00    +0.530 C 
ATOM      9  O   LIG    1       -0.025  -0.361  -2.263  0.00  0.00    -0.440 OA
ENDROOT
BRANCH   5  10
ATOM     10  C   LIG    1        1.269  -2.893  -1.130  0.00  0.00    -0.090 A 
ATOM     11  C   LIG    1        2.210  -3.340  -0.222  0.00  0.00    +0.060 A 
ATOM     12  C   LIG    1        3.348  -3.985  -0.667  0.00  0.00    +0.050 A 
ATOM     13  C   LIG    1        3.552  -4.173  -2.023  0.00  0.00    -0.010 A 
ATOM     14  C   LIG    1        2.613  -3.720  -2.933  0.00  0.00    +0.050 A 
ATOM     15 CL   LIG    1        4.986  -4.978  -2.582  0.00  0.00    -0.050 Cl
ATOM     16  C   LIG    1        1.472  -3.080  -2.486  0.00  0.00    -0.010 A 
ATOM     17 CL   LIG    1        0.293  -2.511  -3.627  0.00  0.00    -0.020 Cl
ENDBRANCH   5  10
BRANCH   1  18
ATOM     18  C   LIG    1       -0.018   1.461   0.010  0.00  0.00    +0.380 C 
BRANCH  18  22
ATOM     19  C   LIG    1        3.994   2.941  -0.020  0.00  0.00    -0.120 A 
ATOM     20  C   LIG    1        3.325   2.705  -1.223  0.00  0.00    +0.080 A 
ATOM     21  C   LIG    1        2.031   2.227  -1.206  0.00  0.00    +0.030 A 
ATOM     22  C   LIG    1        1.396   1.982  -0.001  0.00  0.00    -0.090 A 
ATOM     23  C   LIG    1        2.052   2.220   1.195  0.00  0.00    +0.040 A 
ATOM     24  C   LIG    1        3.348   2.692   1.192  0.00  0.00    +0.080 A 
BRANCH  19  25
ATOM     25  C   LIG    1        5.380   3.452  -0.031  0.00  0.00    +0.510 C 
ATOM     26  O   LIG    1        5.940   3.667  -1.087  0.00  0.00    -0.500 OA
BRANCH  25  28
ATOM     27  C   LIG    1        7.383   4.181   1.045  0.00  0.00    +0.280 C 
ATOM     28  O   LIG    1        6.023   3.679   1.131  0.00  0.00    -0.350 OA
ENDBRANCH  25  28
ENDBRANCH  19  25
ENDBRANCH  18  22
ENDBRANCH   1  18
TORSDOF 5
