REMARK  Name = ZINCqH0000064OOs.0
REMARK                            x       y       z     vdW  Elec       q    Type
REMARK                         _______ _______ _______ _____ _____    ______ ____
ROOT
ATOM      1  C   LIG    1       -5.199  -1.135   6.539  0.00  0.00    +0.600 C 
ATOM      2  N   LIG    1       -4.688  -1.988   5.628  0.00  0.00    -0.600 N 
ATOM      3  C   LIG    1       -3.235  -2.105   5.454  0.00  0.00    +0.290 C 
ATOM      4  C   LIG    1       -2.888  -1.811   3.989  0.00  0.00    +0.070 C 
ATOM      5  C   LIG    1       -3.772  -2.679   3.089  0.00  0.00    -0.110 C 
ATOM      6  C   LIG    1       -3.246  -4.060   2.697  0.00  0.00    +0.050 C 
ATOM      7  C   LIG    1       -5.279  -2.532   3.323  0.00  0.00    +0.050 C 
ATOM      8  C   LIG    1       -3.296  -2.936   1.660  0.00  0.00    +0.100 C 
ATOM      9  C   LIG    1       -5.578  -2.812   4.801  0.00  0.00    +0.280 C 
ATOM     10  O   LIG    1       -4.458  -0.548   7.305  0.00  0.00    -0.520 OA
ENDROOT
BRANCH   1  14
ATOM     11  C   LIG    1       -8.783  -0.985   6.108  0.00  0.00    +0.020 A 
ATOM     12  C   LIG    1       -8.671  -0.249   7.236  0.00  0.00    -0.060 A 
ATOM     13  C   LIG    1       -7.307  -0.203   7.565  0.00  0.00    -0.080 A 
ATOM     14  C   LIG    1       -6.647  -0.915   6.605  0.00  0.00    -0.090 A 
ATOM     15  C   LIG    1       -6.691   0.498   8.748  0.00  0.00    +0.140 C 
ATOM     16  O   LIG    1       -7.561  -1.384   5.731  0.00  0.00    -0.160 OA
BRANCH  11  18
ATOM     17  C   LIG    1      -10.360  -0.215   4.356  0.00  0.00    +0.040 C 
ATOM     18  C   LIG    1      -10.070  -1.303   5.392  0.00  0.00    +0.140 C 
ENDBRANCH  11  18
ENDBRANCH   1  14
BRANCH   8  19
ATOM     19  N   LIG    1       -2.021  -2.333   1.251  0.00  0.00    -0.510 NA
ATOM     20  C   LIG    1       -1.512  -2.959   0.024  0.00  0.00    +0.200 C 
BRANCH  19  21
ATOM     21  C   LIG    1       -2.155  -0.879   1.083  0.00  0.00    +0.300 C 
BRANCH  21  22
ATOM     22  C   LIG    1       -0.787  -0.249   1.044  0.00  0.00    +0.050 A 
ATOM     23  N   LIG    1       -0.091  -0.060  -0.025  0.00  0.00    -0.470 NA
ATOM     24  C   LIG    1        1.090   0.506   0.119  0.00  0.00    +0.220 A 
ATOM     25  C   LIG    1        1.408   0.811   1.381  0.00  0.00    -0.080 A 
ATOM     26  S   LIG    1        0.068   0.318   2.412  0.00  0.00    +0.150 S 
ENDBRANCH  21  22
ENDBRANCH  19  21
ENDBRANCH   8  19
TORSDOF 5
