REMARK  Name = ZINCrD0000074vvz.0
REMARK                            x       y       z     vdW  Elec       q    Type
REMARK                         _______ _______ _______ _____ _____    ______ ____
ROOT
ATOM      1  N   LIG    1        2.418  -0.041   2.888  0.00  0.00    -0.740 N 
ATOM      2  H   LIG    1        3.080  -0.205   2.199  0.00  0.00    +0.390 HD
ATOM      3  C   LIG    1        1.267  -0.742   2.896  0.00  0.00    +0.710 C 
ATOM      4  N   LIG    1        1.079  -1.739   2.008  0.00  0.00    -0.630 N 
ATOM      5  C   LIG    1       -0.114  -2.594   2.085  0.00  0.00    +0.300 C 
ATOM      6  C   LIG    1       -0.832  -2.550   0.725  0.00  0.00    +0.270 C 
ATOM      7  N   LIG    1        0.156  -2.805  -0.333  0.00  0.00    -0.610 N 
ATOM      8  C   LIG    1        1.351  -1.954  -0.407  0.00  0.00    +0.290 C 
ATOM      9  C   LIG    1       -0.032  -3.801  -1.221  0.00  0.00    +0.560 C 
ATOM     10  O   LIG    1        0.840  -4.074  -2.023  0.00  0.00    -0.530 OA
ATOM     11  C   LIG    1        2.066  -1.994   0.950  0.00  0.00    +0.270 C 
ATOM     12  O   LIG    1        0.400  -0.479   3.707  0.00  0.00    -0.580 OA
ENDROOT
BRANCH   9  13
ATOM     13  C   LIG    1       -1.299  -4.564  -1.219  0.00  0.00    -0.130 A 
ATOM     14  C   LIG    1       -2.519  -3.896  -1.095  0.00  0.00    +0.040 A 
ATOM     15  C   LIG    1       -3.698  -4.612  -1.100  0.00  0.00    +0.010 A 
ATOM     16  C   LIG    1       -3.672  -5.991  -1.216  0.00  0.00    +0.030 A 
ATOM     17  C   LIG    1       -2.467  -6.659  -1.333  0.00  0.00    +0.010 A 
ATOM     18  C   LIG    1       -1.281  -5.954  -1.335  0.00  0.00    +0.060 A 
ENDBRANCH   9  13
BRANCH   1  19
ATOM     19  C   LIG    1        2.668   0.968   3.920  0.00  0.00    +0.300 C 
ATOM     20  C   LIG    1        2.028   2.294   3.502  0.00  0.00    +0.040 C 
BRANCH  19  28
ATOM     21  C   LIG    1        3.724   1.950   6.423  0.00  0.00    +0.100 C 
ATOM     22  C   LIG    1        4.659   1.627   5.286  0.00  0.00    -0.040 A 
ATOM     23  C   LIG    1        6.021   1.801   5.441  0.00  0.00    -0.010 A 
ATOM     24  C   LIG    1        6.880   1.505   4.396  0.00  0.00    +0.100 A 
ATOM     25  C   LIG    1        6.372   1.036   3.196  0.00  0.00    -0.010 A 
ATOM     26  C   LIG    1        5.010   0.857   3.045  0.00  0.00    +0.050 A 
ATOM     27  F   LIG    1        8.211   1.675   4.546  0.00  0.00    -0.140 F 
ATOM     28  C   LIG    1        4.153   1.158   4.088  0.00  0.00    -0.100 A 
ENDBRANCH  19  28
ENDBRANCH   1  19
TORSDOF 3
