REMARK  Name = ZINCvU0000000928.0
REMARK                            x       y       z     vdW  Elec       q    Type
REMARK                         _______ _______ _______ _____ _____    ______ ____
ROOT
ATOM      1  C   LIG    1        1.170   2.094   0.002  0.00  0.00    -0.680 A 
ATOM      2  C   LIG    1        2.378   1.419  -0.013  0.00  0.00    +0.160 A 
ATOM      3  C   LIG    1        2.403   0.035  -0.021  0.00  0.00    +0.000 A 
ATOM      4  C   LIG    1        1.224  -0.679  -0.013  0.00  0.00    +0.110 A 
ATOM      5  C   LIG    1        0.002  -0.004   0.002  0.00  0.00    -0.150 A 
ATOM      6  C   LIG    1       -0.017   1.391   0.010  0.00  0.00    +0.190 A 
ENDROOT
BRANCH   5   7
ATOM      7  C   LIG    1       -1.266  -0.764   0.010  0.00  0.00    +0.560 C 
ATOM      8  N   LIG    1       -1.244  -2.111   0.002  0.00  0.00    -0.720 N 
ATOM      9  H   LIG    1       -0.397  -2.583  -0.008  0.00  0.00    +0.400 HD
ATOM     10  O   LIG    1       -2.329  -0.173   0.022  0.00  0.00    -0.520 OA
BRANCH   8  11
ATOM     11  C   LIG    1       -2.501  -2.864   0.010  0.00  0.00    +0.330 C 
BRANCH  11  12
ATOM     12  C   LIG    1       -2.202  -4.341  -0.001  0.00  0.00    -0.100 A 
ATOM     13  C   LIG    1       -2.082  -5.013  -1.203  0.00  0.00    +0.030 A 
ATOM     14  C   LIG    1       -1.802  -6.367  -1.214  0.00  0.00    +0.030 A 
ATOM     15  C   LIG    1       -1.653  -7.052  -0.022  0.00  0.00    +0.040 A 
ATOM     16  C   LIG    1       -1.779  -6.381   1.181  0.00  0.00    -0.040 A 
ATOM     17 CL   LIG    1       -1.593  -7.240   2.678  0.00  0.00    -0.060 Cl
ATOM     18  C   LIG    1       -2.054  -5.025   1.191  0.00  0.00    +0.050 A 
ENDBRANCH  11  12
ENDBRANCH   8  11
ENDBRANCH   5   7
BRANCH   1  19
ATOM     19  S   LIG    1        1.149   3.856   0.012  0.00  0.00    +2.680 S 
ATOM     20  O   LIG    1       -0.111   4.245  -0.519  0.00  0.00    -0.940 OA
ATOM     21  O   LIG    1        2.388   4.276  -0.542  0.00  0.00    -0.930 OA
BRANCH  19  22
ATOM     22  N   LIG    1        1.158   4.338   1.596  0.00  0.00    -0.940 N 
BRANCH  22  23
ATOM     23  C   LIG    1        2.372   4.556   2.253  0.00  0.00    +0.140 A 
ATOM     24  C   LIG    1        2.942   3.545   3.016  0.00  0.00    +0.040 A 
ATOM     25  C   LIG    1        4.142   3.764   3.664  0.00  0.00    +0.030 A 
ATOM     26  C   LIG    1        4.776   4.988   3.554  0.00  0.00    +0.050 A 
ATOM     27  C   LIG    1        4.212   5.997   2.796  0.00  0.00    +0.040 A 
ATOM     28  C   LIG    1        3.014   5.784   2.140  0.00  0.00    -0.020 A 
ATOM     29 CL   LIG    1        2.310   7.049   1.183  0.00  0.00    -0.050 Cl
ENDBRANCH  22  23
BRANCH  22  30
ATOM     30  C   LIG    1       -0.107   4.535   2.309  0.00  0.00    +0.350 C 
BRANCH  30  32
ATOM     31  C   LIG    1       -0.686   3.337   4.356  0.00  0.00    +0.040 C 
ATOM     32  C   LIG    1       -0.457   3.281   3.067  0.00  0.00    -0.080 C 
ENDBRANCH  30  32
ENDBRANCH  22  30
ENDBRANCH  19  22
ENDBRANCH   1  19
TORSDOF 8
