REMARK  Name = ZINCqH0000005bZL.2
REMARK                            x       y       z     vdW  Elec       q    Type
REMARK                         _______ _______ _______ _____ _____    ______ ____
ROOT
ATOM      1  C   LIG    1       -1.044  -0.785   0.336  0.00  0.00    +0.510 C 
ATOM      2  N   LIG    1        0.002  -0.004   0.002  0.00  0.00    -0.680 N 
ATOM      3  H   LIG    1        0.848  -0.407  -0.249  0.00  0.00    +0.410 HD
ATOM      4  O   LIG    1       -2.127  -0.286   0.558  0.00  0.00    -0.500 OA
ENDROOT
BRANCH   2   5
ATOM      5  C   LIG    1       -0.132   1.391   0.017  0.00  0.00    +0.140 A 
ATOM      6  C   LIG    1        0.572   2.166  -0.895  0.00  0.00    -0.010 A 
ATOM      7  C   LIG    1        0.435   3.540  -0.885  0.00  0.00    +0.060 A 
ATOM      8  C   LIG    1       -0.398   4.147   0.046  0.00  0.00    +0.060 A 
ATOM      9  C   LIG    1       -1.097   3.372   0.962  0.00  0.00    -0.010 A 
ATOM     10  C   LIG    1       -0.965   1.998   0.947  0.00  0.00    +0.030 A 
BRANCH   8  11
ATOM     11  N   LIG    1       -0.531   5.540   0.061  0.00  0.00    -0.480 N 
ATOM     12  C   LIG    1       -1.925   5.944  -0.253  0.00  0.00    +0.170 C 
ATOM     13  C   LIG    1       -2.013   7.384   0.312  0.00  0.00    +0.030 C 
ATOM     14  C   LIG    1       -1.173   7.299   1.607  0.00  0.00    +0.010 C 
ATOM     15  C   LIG    1       -0.247   6.085   1.406  0.00  0.00    +0.170 C 
ENDBRANCH   8  11
ENDBRANCH   2   5
BRANCH   1  16
ATOM     16  C   LIG    1       -0.868  -2.279   0.434  0.00  0.00    +0.220 C 
BRANCH  16  18
ATOM     17  C   LIG    1       -3.144  -2.734  -0.253  0.00  0.00    +0.190 C 
ATOM     18  N   LIG    1       -2.145  -2.899   0.811  0.00  0.00    -0.520 NA
BRANCH  18  19
ATOM     19  C   LIG    1       -1.963  -4.317   1.147  0.00  0.00    +0.180 C 
BRANCH  19  20
ATOM     20  C   LIG    1       -3.250  -4.863   1.769  0.00  0.00    +0.030 C 
BRANCH  20  21
ATOM     21  C   LIG    1       -3.060  -6.341   2.119  0.00  0.00    +0.060 C 
BRANCH  21  22
ATOM     22  C   LIG    1       -4.328  -6.879   2.731  0.00  0.00    -0.080 A 
ATOM     23  C   LIG    1       -4.513  -6.822   4.100  0.00  0.00    +0.000 A 
ATOM     24  C   LIG    1       -5.677  -7.311   4.661  0.00  0.00    +0.000 A 
ATOM     25  C   LIG    1       -6.653  -7.866   3.854  0.00  0.00    -0.010 A 
ATOM     26  C   LIG    1       -6.466  -7.927   2.486  0.00  0.00    +0.000 A 
ATOM     27  C   LIG    1       -5.304  -7.434   1.924  0.00  0.00    +0.000 A 
ENDBRANCH  21  22
ENDBRANCH  20  21
ENDBRANCH  19  20
ENDBRANCH  18  19
ENDBRANCH  16  18
ENDBRANCH   1  16
TORSDOF 8
