REMARK  Name = ZINCqH0000000pjL.0
REMARK                            x       y       z     vdW  Elec       q    Type
REMARK                         _______ _______ _______ _____ _____    ______ ____
ROOT
ATOM      1  N   LIG    1       -2.358  -4.197  -0.176  0.00  0.00    -0.680 N 
ATOM      2  H   LIG    1       -2.275  -3.356  -0.652  0.00  0.00    +0.410 HD
ATOM      3  C   LIG    1       -1.299  -4.706   0.483  0.00  0.00    +0.700 C 
ATOM      4  N   LIG    1       -0.151  -4.003   0.560  0.00  0.00    -0.660 N 
ATOM      5  H   LIG    1       -0.113  -3.098   0.214  0.00  0.00    +0.420 HD
ATOM      6  O   LIG    1       -1.378  -5.800   1.007  0.00  0.00    -0.550 OA
ENDROOT
BRANCH   1  14
ATOM      7  C   LIG    1       -8.739  -5.250  -0.140  0.00  0.00    +0.120 C 
ATOM      8  C   LIG    1       -8.396  -6.718  -0.154  0.00  0.00    +0.520 C 
ATOM      9  N   LIG    1       -7.106  -7.109  -0.167  0.00  0.00    -0.550 N 
ATOM     10  C   LIG    1       -6.651  -8.501  -0.181  0.00  0.00    +0.270 C 
ATOM     11  C   LIG    1       -5.115  -8.423  -0.191  0.00  0.00    +0.100 C 
ATOM     12  C   LIG    1       -4.808  -6.943  -0.181  0.00  0.00    -0.110 A 
ATOM     13  C   LIG    1       -3.603  -6.269  -0.189  0.00  0.00    +0.080 A 
ATOM     14  C   LIG    1       -3.580  -4.881  -0.173  0.00  0.00    +0.140 A 
ATOM     15  C   LIG    1       -4.776  -4.175  -0.159  0.00  0.00    +0.020 A 
ATOM     16  C   LIG    1       -5.978  -4.848  -0.156  0.00  0.00    +0.000 A 
ATOM     17  C   LIG    1       -6.005  -6.244  -0.167  0.00  0.00    +0.130 A 
ATOM     18  O   LIG    1       -9.281  -7.547  -0.155  0.00  0.00    -0.520 OA
ENDBRANCH   1  14
BRANCH   4  19
ATOM     19  C   LIG    1        0.982  -4.578   1.140  0.00  0.00    +0.190 A 
ATOM     20  C   LIG    1        1.129  -5.947   1.167  0.00  0.00    +0.040 A 
ATOM     21  C   LIG    1        2.253  -6.533   1.742  0.00  0.00    +0.040 A 
ATOM     22  C   LIG    1        3.241  -5.769   2.286  0.00  0.00    +0.010 A 
ATOM     23  C   LIG    1        3.126  -4.369   2.282  0.00  0.00    -0.080 A 
ATOM     24  C   LIG    1        4.126  -3.552   2.842  0.00  0.00    +0.080 A 
ATOM     25  C   LIG    1        3.951  -2.198   2.797  0.00  0.00    -0.030 A 
ATOM     26  C   LIG    1        2.807  -1.664   2.211  0.00  0.00    +0.290 A 
ATOM     27  N   LIG    1        1.877  -2.429   1.691  0.00  0.00    -0.480 NA
ATOM     28  C   LIG    1        1.987  -3.760   1.701  0.00  0.00    +0.110 A 
ENDBRANCH   4  19
TORSDOF 2
