REMARK  Name = ZINCb80000001tXR.0
REMARK                            x       y       z     vdW  Elec       q    Type
REMARK                         _______ _______ _______ _____ _____    ______ ____
ROOT
ATOM      1  C   LIG    1       -0.729   3.544   0.028  0.00  0.00    -0.050 A 
ATOM      2  C   LIG    1       -1.165   2.252   0.019  0.00  0.00    +0.110 A 
ATOM      3  C   LIG    1       -0.017   1.428   0.010  0.00  0.00    -0.130 A 
ATOM      4  C   LIG    1        1.083   2.264   0.004  0.00  0.00    +0.290 A 
ATOM      5  N   LIG    1        0.648   3.536   0.015  0.00  0.00    -0.520 N 
ATOM      6  H   LIG    1        1.215   4.323   0.013  0.00  0.00    +0.430 HD
ENDROOT
BRANCH   1  10
ATOM      7  C   LIG    1       -1.874   7.158   0.058  0.00  0.00    +0.300 C 
ATOM      8  N   LIG    1       -1.023   5.965   0.043  0.00  0.00    -0.740 N 
ATOM      9  H   LIG    1       -0.057   6.059   0.035  0.00  0.00    +0.400 HD
ATOM     10  C   LIG    1       -1.581   4.739   0.042  0.00  0.00    +0.590 C 
ATOM     11  O   LIG    1       -2.793   4.622   0.053  0.00  0.00    -0.520 OA
ENDBRANCH   1  10
BRANCH   3  12
ATOM     12  C   LIG    1        0.002  -0.004   0.002  0.00  0.00    +0.280 C 
ATOM     13  N   LIG    1        0.018  -1.140  -0.004  0.00  0.00    -0.430 NA
ENDBRANCH   3  12
TORSDOF 2
