REMARK  Name = ZINCpk00000KfLHt.0
REMARK                            x       y       z     vdW  Elec       q    Type
REMARK                         _______ _______ _______ _____ _____    ______ ____
ROOT
ATOM      1  C   LIG    1        4.760   1.007  -0.039  0.00  0.00    +0.510 C 
ATOM      2  N   LIG    1        5.999   1.536  -0.048  0.00  0.00    -0.610 N 
ATOM      3  C   LIG    1        7.160   0.625  -0.059  0.00  0.00    +0.270 C 
ATOM      4  C   LIG    1        8.251   1.126  -1.025  0.00  0.00    +0.050 C 
ATOM      5  C   LIG    1        7.610   1.679  -2.279  0.00  0.00    +0.210 C 
ATOM      6  N   LIG    1        7.397   3.116  -2.114  0.00  0.00    -0.510 N 
ATOM      7  C   LIG    1        6.186   3.504  -1.496  0.00  0.00    +0.190 C 
ATOM      8  C   LIG    1        6.142   2.978  -0.041  0.00  0.00    +0.300 C 
ATOM      9  O   LIG    1        4.614  -0.197  -0.044  0.00  0.00    -0.510 OA
ENDROOT
BRANCH   6  10
ATOM     10  C   LIG    1        7.580   3.788  -3.318  0.00  0.00    +0.250 A 
ATOM     11  C   LIG    1        6.608   3.717  -4.315  0.00  0.00    +0.000 A 
ATOM     12  C   LIG    1        6.838   4.404  -5.496  0.00  0.00    +0.050 A 
ATOM     13  C   LIG    1        8.021   5.120  -5.614  0.00  0.00    +0.220 A 
ATOM     14  N   LIG    1        8.886   5.132  -4.620  0.00  0.00    -0.230 NA
ATOM     15  N   LIG    1        8.677   4.503  -3.521  0.00  0.00    -0.220 NA
ENDBRANCH   6  10
BRANCH   1  16
ATOM     16  C   LIG    1        3.555   1.912  -0.022  0.00  0.00    +0.240 C 
BRANCH  16  17
ATOM     17  O   LIG    1        2.365   1.120  -0.015  0.00  0.00    -0.280 OA
BRANCH  17  21
ATOM     18  C   LIG    1       -1.233   3.145   0.030  0.00  0.00    -0.070 A 
ATOM     19  C   LIG    1       -1.215   1.747   0.017  0.00  0.00    +0.110 A 
ATOM     20  C   LIG    1       -0.013   1.076   0.008  0.00  0.00    +0.000 A 
ATOM     21  C   LIG    1        1.182   1.786   0.000  0.00  0.00    +0.160 A 
ATOM     22  C   LIG    1        1.169   3.175   0.008  0.00  0.00    -0.070 A 
ATOM     23  C   LIG    1       -0.029   3.855   0.023  0.00  0.00    +0.110 A 
BRANCH  18  25
ATOM     24  N   LIG    1       -3.471   4.404   0.057  0.00  0.00    -0.420 NA
ATOM     25  C   LIG    1       -2.481   3.847   0.045  0.00  0.00    +0.250 C 
ENDBRANCH  18  25
ENDBRANCH  17  21
ENDBRANCH  16  17
ENDBRANCH   1  16
TORSDOF 5
