REMARK  Name = ZINCtV00000L6kHV.0
REMARK                            x       y       z     vdW  Elec       q    Type
REMARK                         _______ _______ _______ _____ _____    ______ ____
ROOT
ATOM      1  C   LIG    1       -3.314   1.717  -0.147  0.00  0.00    +0.230 A 
ATOM      2  N   LIG    1       -2.216   1.005   0.010  0.00  0.00    -0.490 NA
ATOM      3  C   LIG    1       -1.006   1.567   0.084  0.00  0.00    +0.150 A 
ATOM      4  C   LIG    1        0.148   0.783   0.257  0.00  0.00    +0.060 A 
ATOM      5  C   LIG    1        1.367   1.385   0.336  0.00  0.00    +0.070 A 
ATOM      6  C   LIG    1        1.492   2.769   0.252  0.00  0.00    -0.090 A 
ATOM      7  C   LIG    1        0.393   3.561   0.090  0.00  0.00    +0.080 A 
ATOM      8 BR   LIG    1        3.205   3.562   0.366  0.00  0.00    -0.040 Br
ATOM      9  C   LIG    1       -0.875   2.975   0.006  0.00  0.00    -0.100 A 
ATOM     10  C   LIG    1       -2.081   3.784  -0.169  0.00  0.00    +0.040 A 
ATOM     11  C   LIG    1       -3.293   3.115  -0.242  0.00  0.00    -0.010 A 
ENDROOT
BRANCH   1  17
ATOM     12  C   LIG    1       -4.669  -0.382  -0.137  0.00  0.00    +0.200 A 
ATOM     13  C   LIG    1       -5.894  -1.030  -0.213  0.00  0.00    -0.020 A 
ATOM     14  C   LIG    1       -7.054  -0.299  -0.379  0.00  0.00    +0.060 A 
ATOM     15  C   LIG    1       -7.004   1.081  -0.469  0.00  0.00    -0.010 A 
ATOM     16  C   LIG    1       -5.795   1.741  -0.389  0.00  0.00    +0.060 A 
ATOM     17  C   LIG    1       -4.616   1.015  -0.228  0.00  0.00    -0.090 A 
BRANCH  12  18
ATOM     18  N   LIG    1       -3.498  -1.118   0.030  0.00  0.00    -1.040 N 
ATOM     19  H   LIG    1       -2.776  -0.763   0.571  0.00  0.00    +0.440 HD
BRANCH  18  20
ATOM     20  S   LIG    1       -3.339  -2.597  -0.697  0.00  0.00    +2.600 S 
ATOM     21  O   LIG    1       -4.453  -3.342  -0.223  0.00  0.00    -0.950 OA
ATOM     22  O   LIG    1       -2.009  -2.995  -0.395  0.00  0.00    -0.950 OA
BRANCH  20  24
ATOM     23  C   LIG    1       -3.384  -3.557  -3.258  0.00  0.00    +0.070 C 
ATOM     24  C   LIG    1       -3.513  -2.252  -2.469  0.00  0.00    -0.370 C 
ENDBRANCH  20  24
ENDBRANCH  18  20
ENDBRANCH  12  18
ENDBRANCH   1  17
BRANCH  10  25
ATOM     25  C   LIG    1       -2.010   5.261  -0.264  0.00  0.00    -0.060 A 
ATOM     26  C   LIG    1       -1.301   5.991   0.690  0.00  0.00    +0.030 A 
ATOM     27  C   LIG    1       -1.235   7.366   0.593  0.00  0.00    +0.010 A 
ATOM     28  C   LIG    1       -1.879   8.021  -0.442  0.00  0.00    +0.020 A 
ATOM     29  C   LIG    1       -2.588   7.303  -1.388  0.00  0.00    +0.010 A 
ATOM     30  C   LIG    1       -2.657   5.927  -1.304  0.00  0.00    +0.030 A 
ENDBRANCH  10  25
TORSDOF 5
