REMARK  Name = ZINCpe00000gM7eq.0
REMARK                            x       y       z     vdW  Elec       q    Type
REMARK                         _______ _______ _______ _____ _____    ______ ____
ROOT
ATOM      1  C   LIG    1       -1.450   3.342   2.545  0.00  0.00    +0.530 C 
ATOM      2  N   LIG    1       -1.223   4.532   3.136  0.00  0.00    -0.610 N 
ATOM      3  C   LIG    1       -0.450   5.580   2.454  0.00  0.00    +0.280 C 
ATOM      4  C   LIG    1       -1.264   6.883   2.494  0.00  0.00    +0.170 C 
ATOM      5  N   LIG    1       -1.625   7.186   3.885  0.00  0.00    -0.530 NA
ATOM      6  C   LIG    1       -2.497   6.145   4.447  0.00  0.00    +0.170 C 
ATOM      7  C   LIG    1       -1.739   4.814   4.485  0.00  0.00    +0.300 C 
ATOM      8  O   LIG    1       -2.161   2.522   3.084  0.00  0.00    -0.510 OA
ENDROOT
BRANCH   1   9
ATOM      9  C   LIG    1       -0.818   3.031   1.212  0.00  0.00    +0.180 C 
BRANCH   9  10
ATOM     10  C   LIG    1       -1.741   3.471   0.104  0.00  0.00    -0.090 A 
ATOM     11  C   LIG    1       -2.893   2.754  -0.161  0.00  0.00    +0.050 A 
ATOM     12  C   LIG    1       -3.742   3.160  -1.173  0.00  0.00    +0.000 A 
ATOM     13  C   LIG    1       -3.433   4.277  -1.928  0.00  0.00    +0.010 A 
ATOM     14  C   LIG    1       -2.279   4.990  -1.666  0.00  0.00    +0.000 A 
ATOM     15  C   LIG    1       -1.433   4.588  -0.650  0.00  0.00    +0.010 A 
ENDBRANCH   9  10
BRANCH   9  17
ATOM     16  C   LIG    1        0.035   1.245  -0.182  0.00  0.00    +0.200 C 
ATOM     17  N   LIG    1       -0.582   1.585   1.107  0.00  0.00    -0.520 NA
ATOM     18  C   LIG    1        0.239   1.104   2.227  0.00  0.00    +0.210 C 
ENDBRANCH   9  17
ENDBRANCH   1   9
BRANCH   5  19
ATOM     19  C   LIG    1       -2.251   8.510   3.990  0.00  0.00    +0.200 C 
BRANCH  19  20
ATOM     20  C   LIG    1       -1.227   9.588   3.629  0.00  0.00    +0.130 C 
ATOM     21  C   LIG    1       -1.879  10.970   3.738  0.00  0.00    +0.190 C 
ATOM     22  O   LIG    1       -0.888  11.976   3.509  0.00  0.00    -0.380 OA
ATOM     23  C   LIG    1        0.219  11.906   4.414  0.00  0.00    +0.190 C 
ATOM     24  C   LIG    1        0.870  10.525   4.305  0.00  0.00    +0.190 C 
ATOM     25  O   LIG    1       -0.121   9.519   4.534  0.00  0.00    -0.360 OA
ENDBRANCH  19  20
ENDBRANCH   5  19
TORSDOF 5
