REMARK  Name = ZINCtV00001bB3aG.0
REMARK                            x       y       z     vdW  Elec       q    Type
REMARK                         _______ _______ _______ _____ _____    ______ ____
ROOT
ATOM      1  C   LIG    1       -0.812   9.351  -1.388  0.00  0.00    +0.310 C 
ENDROOT
BRANCH   1   5
ATOM      2  C   LIG    1        0.997   6.377   2.334  0.00  0.00    +0.120 C 
ATOM      3  C   LIG    1        0.382   6.853   1.042  0.00  0.00    +0.020 A 
ATOM      4  C   LIG    1        0.195   8.139   0.682  0.00  0.00    -0.030 A 
ATOM      5  C   LIG    1       -0.412   8.137  -0.590  0.00  0.00    -0.160 A 
ATOM      6  C   LIG    1       -0.569   6.851  -0.962  0.00  0.00    +0.060 A 
ATOM      7  C   LIG    1       -1.179   6.373  -2.255  0.00  0.00    +0.130 C 
ATOM      8  N   LIG    1       -0.080   6.056   0.034  0.00  0.00    -0.400 N 
BRANCH   8   9
ATOM      9  C   LIG    1       -0.061   4.654   0.027  0.00  0.00    +0.130 A 
ATOM     10  C   LIG    1        1.150   3.975   0.012  0.00  0.00    +0.040 A 
ATOM     11  C   LIG    1        1.166   2.594   0.005  0.00  0.00    +0.060 A 
ATOM     12  C   LIG    1       -0.024   1.887   0.012  0.00  0.00    -0.090 A 
ATOM     13  C   LIG    1       -1.232   2.561   0.022  0.00  0.00    +0.060 A 
ATOM     14 BR   LIG    1        0.002  -0.004   0.002  0.00  0.00    -0.040 Br
ATOM     15  C   LIG    1       -1.253   3.942   0.034  0.00  0.00    +0.040 A 
ENDBRANCH   8   9
ENDBRANCH   1   5
BRANCH   1  16
ATOM     16  N   LIG    1       -2.251   9.583  -1.237  0.00  0.00    -0.190 NA
ATOM     17  N   LIG    1       -2.659  10.650  -0.755  0.00  0.00    -0.140 NA
BRANCH  17  18
ATOM     18  C   LIG    1       -3.997  10.866  -0.614  0.00  0.00    +0.180 A 
ATOM     19  N   LIG    1       -4.541  11.942  -0.118  0.00  0.00    -0.400 NA
ATOM     20  C   LIG    1       -5.857  11.952  -0.072  0.00  0.00    +0.110 A 
ATOM     21  C   LIG    1       -6.460  10.837  -0.540  0.00  0.00    -0.070 A 
ATOM     22  S   LIG    1       -5.266   9.732  -1.067  0.00  0.00    +0.180 S 
BRANCH  20  23
ATOM     23  C   LIG    1       -6.624  13.105   0.460  0.00  0.00    -0.040 A 
ATOM     24  C   LIG    1       -8.016  13.066   0.486  0.00  0.00    +0.070 A 
ATOM     25  C   LIG    1       -8.725  14.139   0.988  0.00  0.00    -0.010 A 
ATOM     26  C   LIG    1       -8.055  15.257   1.455  0.00  0.00    +0.110 A 
ATOM     27  C   LIG    1       -6.670  15.303   1.426  0.00  0.00    -0.010 A 
ATOM     28  F   LIG    1       -8.753  16.308   1.939  0.00  0.00    -0.140 F 
ATOM     29  C   LIG    1       -5.953  14.233   0.931  0.00  0.00    +0.090 A 
ENDBRANCH  20  23
ENDBRANCH  17  18
ENDBRANCH   1  16
TORSDOF 5
