REMARK  Name = ZINCrD0000070Yot.0
REMARK                            x       y       z     vdW  Elec       q    Type
REMARK                         _______ _______ _______ _____ _____    ______ ____
ROOT
ATOM      1  O   LIG    1       -2.440   1.609  -0.045  0.00  0.00    -0.340 OA
ENDROOT
BRANCH   1   2
ATOM      2  C   LIG    1       -1.211   2.157  -0.141  0.00  0.00    +0.540 C 
ATOM      3  O   LIG    1       -1.084   3.366  -0.159  0.00  0.00    -0.490 OA
BRANCH   2   8
ATOM      4  C   LIG    1        2.075   0.560  -0.384  0.00  0.00    -0.260 A 
ATOM      5  C   LIG    1        1.227  -0.533  -0.309  0.00  0.00    +0.120 A 
ATOM      6  N   LIG    1       -0.033  -0.085  -0.213  0.00  0.00    -0.510 N 
ATOM      7  H   LIG    1       -0.824  -0.643  -0.147  0.00  0.00    +0.430 HD
ATOM      8  C   LIG    1       -0.028   1.294  -0.223  0.00  0.00    -0.050 A 
ATOM      9  C   LIG    1        1.649  -1.980  -0.333  0.00  0.00    +0.160 C 
ATOM     10  C   LIG    1        1.263   1.718  -0.328  0.00  0.00    -0.020 A 
ATOM     11  C   LIG    1        1.736   3.148  -0.375  0.00  0.00    +0.140 C 
BRANCH   4  13
ATOM     12  C   LIG    1        4.187   0.612  -1.856  0.00  0.00    +0.080 C 
ATOM     13  C   LIG    1        3.537   0.525  -0.499  0.00  0.00    +0.440 C 
ATOM     14  O   LIG    1        4.222   0.425   0.497  0.00  0.00    -0.450 OA
ENDBRANCH   4  13
ENDBRANCH   2   8
ENDBRANCH   1   2
BRANCH   1  15
ATOM     15  C   LIG    1       -3.565   2.524   0.032  0.00  0.00    +0.190 C 
ATOM     16  C   LIG    1       -3.853   2.856   1.498  0.00  0.00    +0.080 C 
BRANCH  15  17
ATOM     17  C   LIG    1       -4.779   1.880  -0.585  0.00  0.00    +0.530 C 
ATOM     18  N   LIG    1       -5.892   2.609  -0.801  0.00  0.00    -0.540 N 
ATOM     19  C   LIG    1       -6.005   3.985  -0.581  0.00  0.00    +0.130 A 
ATOM     20  C   LIG    1       -5.049   4.887  -0.110  0.00  0.00    -0.030 A 
ATOM     21  C   LIG    1       -5.365   6.221   0.038  0.00  0.00    +0.050 A 
ATOM     22  C   LIG    1       -6.631   6.675  -0.278  0.00  0.00    -0.010 A 
ATOM     23  C   LIG    1       -7.584   5.788  -0.745  0.00  0.00    +0.060 A 
ATOM     24  C   LIG    1       -7.272   4.451  -0.895  0.00  0.00    -0.130 A 
ATOM     25  C   LIG    1       -8.107   3.285  -1.377  0.00  0.00    +0.110 C 
ATOM     26  C   LIG    1       -7.160   2.076  -1.308  0.00  0.00    +0.230 C 
ATOM     27  C   LIG    1       -6.964   1.472  -2.700  0.00  0.00    +0.050 C 
ATOM     28  O   LIG    1       -4.755   0.706  -0.887  0.00  0.00    -0.490 OA
ENDBRANCH  15  17
ENDBRANCH   1  15
TORSDOF 5
