REMARK  Name = ZINCvU0000000DMN.0
REMARK                            x       y       z     vdW  Elec       q    Type
REMARK                         _______ _______ _______ _____ _____    ______ ____
ROOT
ATOM      1  C   LIG    1       -0.487   0.455   3.397  0.00  0.00    +0.570 C 
ATOM      2  N   LIG    1        0.093   0.959   2.290  0.00  0.00    -0.610 N 
ATOM      3  C   LIG    1        1.515   1.326   2.290  0.00  0.00    +0.280 C 
ATOM      4  C   LIG    1        2.208   0.617   1.122  0.00  0.00    +0.030 C 
ATOM      5  C   LIG    1        1.473   0.949  -0.179  0.00  0.00    +0.040 C 
ATOM      6  C   LIG    1        0.030   0.446  -0.095  0.00  0.00    +0.080 C 
ATOM      7  C   LIG    1       -0.687   1.153   1.060  0.00  0.00    +0.290 C 
ATOM      8  O   LIG    1        0.188   0.209   4.378  0.00  0.00    -0.520 OA
ENDROOT
BRANCH   6   9
ATOM      9  C   LIG    1       -0.683   0.744  -1.389  0.00  0.00    +0.100 A 
ATOM     10  N   LIG    1       -1.201  -0.146  -2.147  0.00  0.00    -0.460 NA
ATOM     11  C   LIG    1       -1.809   0.265  -3.276  0.00  0.00    +0.080 A 
ATOM     12  C   LIG    1       -2.454  -0.489  -4.277  0.00  0.00    +0.080 A 
ATOM     13  C   LIG    1       -3.013   0.130  -5.354  0.00  0.00    +0.030 A 
ATOM     14  C   LIG    1       -2.959   1.510  -5.487  0.00  0.00    +0.040 A 
ATOM     15  C   LIG    1       -2.335   2.272  -4.524  0.00  0.00    +0.060 A 
ATOM     16  C   LIG    1       -1.758   1.657  -3.416  0.00  0.00    -0.180 A 
ATOM     17  S   LIG    1       -0.906   2.313  -2.022  0.00  0.00    +0.100 S 
ENDBRANCH   6   9
BRANCH   1  22
ATOM     18  C   LIG    1       -4.173   0.785   2.732  0.00  0.00    +0.140 A 
ATOM     19  C   LIG    1       -4.674  -0.283   3.467  0.00  0.00    +0.050 A 
ATOM     20  C   LIG    1       -3.816  -1.104   4.173  0.00  0.00    +0.040 A 
ATOM     21  C   LIG    1       -2.457  -0.869   4.155  0.00  0.00    +0.060 A 
ATOM     22  C   LIG    1       -1.943   0.201   3.420  0.00  0.00    -0.110 A 
ATOM     23  C   LIG    1       -2.809   1.033   2.711  0.00  0.00    +0.010 A 
BRANCH  18  26
ATOM     24  O   LIG    1       -6.492  -0.047   1.722  0.00  0.00    -0.500 OA
ATOM     25  C   LIG    1       -6.226   1.132   1.581  0.00  0.00    +0.600 C 
ATOM     26  N   LIG    1       -5.046   1.614   2.019  0.00  0.00    -0.670 N 
ATOM     27  H   LIG    1       -4.802   2.536   1.840  0.00  0.00    +0.410 HD
BRANCH  25  28
ATOM     28  C   LIG    1       -7.189   2.028   0.934  0.00  0.00    -0.280 A 
ATOM     29  C   LIG    1       -8.410   1.659   0.445  0.00  0.00    +0.120 A 
ATOM     30  C   LIG    1       -9.112   2.703  -0.109  0.00  0.00    +0.000 A 
ATOM     31  C   LIG    1       -8.485   3.885  -0.084  0.00  0.00    -0.050 A 
ATOM     32  S   LIG    1       -6.954   3.748   0.656  0.00  0.00    +0.200 S 
ENDBRANCH  25  28
ENDBRANCH  18  26
ENDBRANCH   1  22
TORSDOF 4
