REMARK  Name = ZINCrg000000sMGU.0
REMARK                            x       y       z     vdW  Elec       q    Type
REMARK                         _______ _______ _______ _____ _____    ______ ____
ROOT
ATOM      1  C   LIG    1        2.438   6.166   1.453  0.00  0.00    +0.040 C 
ENDROOT
BRANCH   1   4
ATOM      2  N   LIG    1        2.478   8.341   2.631  0.00  0.00    -0.720 N 
ATOM      3  H   LIG    1        2.480   7.852   3.468  0.00  0.00    +0.400 HD
ATOM      4  C   LIG    1        2.458   7.673   1.460  0.00  0.00    +0.520 C 
ATOM      5  O   LIG    1        2.455   8.285   0.413  0.00  0.00    -0.530 OA
BRANCH   2  11
ATOM      6  C   LIG    1       -1.588  12.559   3.474  0.00  0.00    +0.360 C 
ATOM      7  N   LIG    1       -0.681  11.552   2.918  0.00  0.00    -0.370 N 
ATOM      8  N   LIG    1       -0.993  10.621   1.917  0.00  0.00    -0.300 NA
ATOM      9  C   LIG    1        0.071   9.891   1.687  0.00  0.00    +0.250 A 
ATOM     10  C   LIG    1        1.088  10.333   2.530  0.00  0.00    -0.260 A 
ATOM     11  C   LIG    1        2.497   9.806   2.638  0.00  0.00    +0.330 C 
ATOM     12  C   LIG    1        3.102  10.308   3.955  0.00  0.00    +0.020 C 
ATOM     13  C   LIG    1        2.888  11.819   4.073  0.00  0.00    +0.040 C 
ATOM     14  C   LIG    1        1.400  12.109   4.310  0.00  0.00    +0.110 C 
ATOM     15  C   LIG    1        0.599  11.357   3.276  0.00  0.00    +0.090 A 
ENDBRANCH   2  11
ENDBRANCH   1   4
BRANCH   1  16
ATOM     16  C   LIG    1        2.417   5.664   0.008  0.00  0.00    +0.350 C 
BRANCH  16  17
ATOM     17  N   LIG    1        2.398   4.199   0.001  0.00  0.00    -0.400 N 
ATOM     18  N   LIG    1        3.610   3.506  -0.015  0.00  0.00    -0.510 N 
ATOM     19  H   LIG    1        4.439   4.009  -0.020  0.00  0.00    +0.430 HD
ATOM     20  C   LIG    1        3.662   2.160  -0.021  0.00  0.00    +0.560 A 
ATOM     21  C   LIG    1        2.403   1.383  -0.013  0.00  0.00    -0.110 A 
ATOM     22  C   LIG    1        2.405  -0.005  -0.021  0.00  0.00    +0.090 A 
ATOM     23  C   LIG    1        1.203  -0.691  -0.013  0.00  0.00    +0.040 A 
ATOM     24  C   LIG    1        0.002  -0.004   0.002  0.00  0.00    +0.040 A 
ATOM     25  C   LIG    1       -0.017   1.380   0.010  0.00  0.00    +0.090 A 
ATOM     26  C   LIG    1        1.180   2.082   0.002  0.00  0.00    -0.110 A 
ATOM     27  O   LIG    1        4.734   1.589  -0.034  0.00  0.00    -0.510 OA
ATOM     28  C   LIG    1        1.211   3.561   0.009  0.00  0.00    +0.560 A 
ATOM     29  O   LIG    1        0.175   4.196   0.023  0.00  0.00    -0.510 OA
ENDBRANCH  16  17
ENDBRANCH   1  16
TORSDOF 4
