REMARK  Name = ZINCrH000004tODR.0
REMARK                            x       y       z     vdW  Elec       q    Type
REMARK                         _______ _______ _______ _____ _____    ______ ____
ROOT
ATOM      1  N   LIG    1       -0.011   0.964   0.033  0.00  0.00    -0.730 N 
ATOM      2  H   LIG    1        0.002  -0.006   0.024  0.00  0.00    +0.420 HD
ENDROOT
BRANCH   1   3
ATOM      3  C   LIG    1        1.189   1.678   0.037  0.00  0.00    +0.270 A 
ATOM      4  C   LIG    1        1.173   3.067   0.045  0.00  0.00    -0.090 A 
ATOM      5  C   LIG    1        2.361   3.770   0.053  0.00  0.00    +0.170 A 
ATOM      6  C   LIG    1        3.567   3.093   0.044  0.00  0.00    -0.710 A 
ATOM      7  C   LIG    1        3.587   1.710   0.031  0.00  0.00    +0.170 A 
ATOM      8  C   LIG    1        2.402   1.001   0.027  0.00  0.00    -0.080 A 
BRANCH   6   9
ATOM      9  S   LIG    1        5.081   3.994   0.049  0.00  0.00    +2.500 S 
ATOM     10  O   LIG    1        6.016   3.104   0.644  0.00  0.00    -0.940 OA
ATOM     11  O   LIG    1        4.752   5.230   0.666  0.00  0.00    -0.940 OA
BRANCH   9  12
ATOM     12  C   LIG    1        5.466   4.242  -1.706  0.00  0.00    -0.430 C 
ATOM     13  C   LIG    1        5.545   2.880  -2.428  0.00  0.00    +0.060 C 
ATOM     14  C   LIG    1        6.699   3.057  -3.447  0.00  0.00    +0.030 C 
ATOM     15  C   LIG    1        7.722   3.915  -2.661  0.00  0.00    +0.030 C 
ATOM     16  C   LIG    1        6.850   4.899  -1.855  0.00  0.00    +0.060 C 
ENDBRANCH   9  12
ENDBRANCH   6   9
ENDBRANCH   1   3
BRANCH   1  17
ATOM     17  C   LIG    1       -1.289   1.680   0.037  0.00  0.00    +0.300 C 
BRANCH  17  19
ATOM     18  O   LIG    1       -2.185  -0.504   0.013  0.00  0.00    -0.510 OA
ATOM     19  C   LIG    1       -2.422   0.686   0.025  0.00  0.00    +0.510 C 
ATOM     20  N   LIG    1       -3.698   1.118   0.026  0.00  0.00    -0.660 N 
ATOM     21  H   LIG    1       -3.889   2.066   0.100  0.00  0.00    +0.420 HD
BRANCH  20  22
ATOM     22  C   LIG    1       -4.749   0.199  -0.080  0.00  0.00    +0.140 A 
ATOM     23  C   LIG    1       -4.637  -1.055   0.503  0.00  0.00    +0.030 A 
ATOM     24  C   LIG    1       -5.680  -1.960   0.402  0.00  0.00    +0.110 A 
ATOM     25  C   LIG    1       -6.829  -1.618  -0.290  0.00  0.00    +0.010 A 
ATOM     26  C   LIG    1       -6.941  -0.371  -0.878  0.00  0.00    +0.050 A 
ATOM     27  F   LIG    1       -5.574  -3.179   0.975  0.00  0.00    -0.130 F 
ATOM     28  C   LIG    1       -5.905   0.539  -0.775  0.00  0.00    +0.070 A 
ATOM     29  F   LIG    1       -6.015   1.756  -1.349  0.00  0.00    -0.130 F 
ENDBRANCH  20  22
ENDBRANCH  17  19
ENDBRANCH   1  17
TORSDOF 6
