REMARK  Name = ZINCrg00000IZxZx.0
REMARK                            x       y       z     vdW  Elec       q    Type
REMARK                         _______ _______ _______ _____ _____    ______ ____
ROOT
ATOM      1  C   LIG    1        1.128  -1.073   0.062  0.00  0.00    +0.160 C 
ATOM      2  C   LIG    1        0.097  -1.966   0.784  0.00  0.00    +0.080 C 
ATOM      3  C   LIG    1       -1.090  -0.999   1.033  0.00  0.00    +0.040 C 
ATOM      4  C   LIG    1       -1.044  -0.116  -0.239  0.00  0.00    +0.260 C 
ATOM      5  N   LIG    1        0.391   0.054  -0.529  0.00  0.00    -0.610 N 
ATOM      6  C   LIG    1        0.937   1.070  -1.226  0.00  0.00    +0.570 C 
ATOM      7  O   LIG    1        2.146   1.176  -1.299  0.00  0.00    -0.480 OA
ENDROOT
BRANCH   6   8
ATOM      8  C   LIG    1        0.068   2.051  -1.904  0.00  0.00    -0.120 A 
ATOM      9  C   LIG    1       -1.315   1.849  -1.945  0.00  0.00    +0.060 A 
ATOM     10  C   LIG    1       -2.130   2.765  -2.573  0.00  0.00    +0.030 A 
ATOM     11  C   LIG    1       -1.578   3.887  -3.177  0.00  0.00    +0.120 A 
ATOM     12  N   LIG    1       -2.125   4.957  -3.873  0.00  0.00    -0.640 N 
ATOM     13  H   LIG    1       -3.068   5.090  -4.057  0.00  0.00    +0.440 HD
ATOM     14  C   LIG    1       -1.127   5.778  -4.249  0.00  0.00    +0.680 A 
ATOM     15  N   LIG    1        0.051   5.284  -3.825  0.00  0.00    -0.510 N 
ATOM     16  O   LIG    1       -1.268   6.810  -4.878  0.00  0.00    -0.540 OA
ATOM     17  C   LIG    1       -0.194   4.092  -3.145  0.00  0.00    +0.090 A 
ATOM     18  C   LIG    1        0.626   3.178  -2.511  0.00  0.00    +0.100 A 
BRANCH  15  19
ATOM     19  C   LIG    1        1.366   5.894  -4.041  0.00  0.00    +0.210 C 
ATOM     20  C   LIG    1        1.401   7.304  -4.633  0.00  0.00    +0.060 C 
ATOM     21  C   LIG    1        1.818   6.105  -5.487  0.00  0.00    +0.030 C 
ENDBRANCH  15  19
ENDBRANCH   6   8
BRANCH   1  25
ATOM     22  C   LIG    1        3.166   1.254   2.316  0.00  0.00    +0.280 C 
ATOM     23  N   LIG    1        2.231   0.761   1.302  0.00  0.00    -0.710 N 
ATOM     24  H   LIG    1        1.676   1.386   0.809  0.00  0.00    +0.400 HD
ATOM     25  C   LIG    1        2.140  -0.560   1.053  0.00  0.00    +0.530 C 
ATOM     26  O   LIG    1        2.874  -1.337   1.627  0.00  0.00    -0.540 OA
ENDBRANCH   1  25
BRANCH   1  27
ATOM     27  C   LIG    1        1.831  -1.870  -1.039  0.00  0.00    +0.190 C 
BRANCH  27  28
ATOM     28  O   LIG    1        2.771  -1.029  -1.710  0.00  0.00    -0.360 OA
ATOM     29  C   LIG    1        3.486  -1.680  -2.762  0.00  0.00    +0.200 C 
ENDBRANCH  27  28
ENDBRANCH   1  27
TORSDOF 5
