REMARK  Name = ZINCrD0000070VZO.0
REMARK                            x       y       z     vdW  Elec       q    Type
REMARK                         _______ _______ _______ _____ _____    ______ ____
ROOT
ATOM      1  C   LIG    1       -2.460  -0.278  -0.275  0.00  0.00    +0.570 C 
ATOM      2  N   LIG    1       -2.468   0.996  -0.714  0.00  0.00    -0.550 N 
ATOM      3  C   LIG    1       -3.702   1.619  -1.223  0.00  0.00    +0.270 C 
ATOM      4  C   LIG    1       -3.330   2.428  -2.474  0.00  0.00    +0.260 C 
ATOM      5  O   LIG    1       -2.345   3.404  -2.109  0.00  0.00    -0.300 OA
ATOM      6  C   LIG    1       -1.262   2.973  -1.411  0.00  0.00    +0.150 A 
ATOM      7  C   LIG    1       -0.102   3.734  -1.407  0.00  0.00    -0.200 A 
ATOM      8  C   LIG    1        1.002   3.308  -0.693  0.00  0.00    +0.090 A 
ATOM      9  C   LIG    1        0.958   2.124   0.020  0.00  0.00    +0.010 A 
ATOM     10  C   LIG    1       -0.193   1.358   0.019  0.00  0.00    +0.090 A 
ATOM     11  C   LIG    1       -1.301   1.777  -0.700  0.00  0.00    +0.080 A 
ATOM     12  O   LIG    1       -1.410  -0.809   0.031  0.00  0.00    -0.500 OA
ENDROOT
BRANCH   1  16
ATOM     13  C   LIG    1       -6.104  -2.438   0.042  0.00  0.00    -0.080 A 
ATOM     14  C   LIG    1       -4.930  -3.108  -0.255  0.00  0.00    +0.040 A 
ATOM     15  C   LIG    1       -3.743  -2.412  -0.359  0.00  0.00    +0.080 A 
ATOM     16  C   LIG    1       -3.728  -1.030  -0.164  0.00  0.00    -0.130 A 
ATOM     17  C   LIG    1       -4.915  -0.362   0.141  0.00  0.00    +0.040 A 
ATOM     18  C   LIG    1       -6.096  -1.069   0.237  0.00  0.00    +0.040 A 
BRANCH  13  19
ATOM     19  C   LIG    1       -7.396  -3.205   0.154  0.00  0.00    +0.310 C 
BRANCH  19  22
ATOM     20  C   LIG    1       -8.873  -4.808   3.301  0.00  0.00    +0.110 C 
ATOM     21  C   LIG    1       -8.680  -4.354   1.877  0.00  0.00    +0.510 C 
ATOM     22  N   LIG    1       -7.584  -3.646   1.538  0.00  0.00    -0.730 N 
ATOM     23  H   LIG    1       -6.920  -3.428   2.211  0.00  0.00    +0.400 HD
ATOM     24  O   LIG    1       -9.510  -4.626   1.035  0.00  0.00    -0.540 OA
ENDBRANCH  19  22
ENDBRANCH  13  19
ENDBRANCH   1  16
BRANCH   7  25
ATOM     25  C   LIG    1       -0.045   5.025  -2.181  0.00  0.00    +0.520 C 
ATOM     26  F   LIG    1       -1.025   5.901  -1.701  0.00  0.00    -0.170 F 
ATOM     27  F   LIG    1       -0.276   4.767  -3.537  0.00  0.00    -0.170 F 
ATOM     28  F   LIG    1        1.217   5.608  -2.025  0.00  0.00    -0.180 F 
ENDBRANCH   7  25
TORSDOF 4
