REMARK  Name = ZINCrH00000tj12l.0
REMARK                            x       y       z     vdW  Elec       q    Type
REMARK                         _______ _______ _______ _____ _____    ______ ____
ROOT
ATOM      1  O   LIG    1       -4.605  -1.367   4.687  0.00  0.00    -0.330 OA
ENDROOT
BRANCH   1   3
ATOM      2  C   LIG    1       -5.549  -0.288   6.655  0.00  0.00    +0.070 C 
ATOM      3  C   LIG    1       -4.943  -1.571   6.084  0.00  0.00    +0.190 C 
BRANCH   3   4
ATOM      4  C   LIG    1       -5.941  -2.694   6.201  0.00  0.00    +0.530 C 
ATOM      5  N   LIG    1       -6.226  -3.220   7.408  0.00  0.00    -0.550 N 
ATOM      6  C   LIG    1       -5.710  -2.720   8.685  0.00  0.00    +0.270 C 
ATOM      7  C   LIG    1       -6.316  -3.643   9.755  0.00  0.00    +0.090 C 
ATOM      8  C   LIG    1       -7.156  -4.629   8.975  0.00  0.00    -0.140 A 
ATOM      9  C   LIG    1       -7.933  -5.691   9.396  0.00  0.00    +0.050 A 
ATOM     10  C   LIG    1       -8.632  -6.449   8.476  0.00  0.00    -0.010 A 
ATOM     11  C   LIG    1       -8.540  -6.152   7.128  0.00  0.00    +0.040 A 
ATOM     12  C   LIG    1       -7.762  -5.096   6.702  0.00  0.00    +0.010 A 
ATOM     13  C   LIG    1       -7.061  -4.320   7.627  0.00  0.00    +0.140 A 
ATOM     14  O   LIG    1       -6.489  -3.123   5.208  0.00  0.00    -0.490 OA
ENDBRANCH   3   4
ENDBRANCH   1   3
BRANCH   1  15
ATOM     15  C   LIG    1       -3.368  -0.905   4.418  0.00  0.00    +0.510 C 
ATOM     16  O   LIG    1       -2.592  -0.680   5.326  0.00  0.00    -0.490 OA
BRANCH  15  17
ATOM     17  C   LIG    1       -2.955  -0.674   3.022  0.00  0.00    -0.150 A 
ATOM     18  C   LIG    1       -3.845  -0.933   1.978  0.00  0.00    +0.120 A 
ATOM     19  C   LIG    1       -3.462  -0.718   0.672  0.00  0.00    -0.020 A 
ATOM     20  C   LIG    1       -2.188  -0.247   0.392  0.00  0.00    +0.100 A 
ATOM     21  C   LIG    1       -1.301   0.009   1.413  0.00  0.00    -0.190 A 
ATOM     22  C   LIG    1        0.131   0.509   1.417  0.00  0.00    +0.020 C 
ATOM     23  C   LIG    1        0.973  -0.232   0.377  0.00  0.00    +0.060 C 
ATOM     24  C   LIG    1        0.588   0.156   2.852  0.00  0.00    +0.160 C 
ATOM     25  C   LIG    1        1.525   1.233   3.403  0.00  0.00    +0.070 C 
ATOM     26  O   LIG    1       -0.649   0.131   3.583  0.00  0.00    -0.280 OA
ATOM     27  C   LIG    1       -1.663  -0.193   2.739  0.00  0.00    +0.180 A 
ENDBRANCH  15  17
ENDBRANCH   1  15
TORSDOF 4
