REMARK  Name = ZINCqH0000004RHk.0
REMARK                            x       y       z     vdW  Elec       q    Type
REMARK                         _______ _______ _______ _____ _____    ______ ____
ROOT
ATOM      1  N   LIG    1       -1.144   2.267   0.019  0.00  0.00    -0.480 N 
ATOM      2  C   LIG    1       -0.743   3.588   0.028  0.00  0.00    +0.100 A 
ATOM      3  C   LIG    1       -1.416   4.802   0.040  0.00  0.00    +0.010 A 
ATOM      4  C   LIG    1       -0.699   5.980   0.038  0.00  0.00    +0.130 A 
ATOM      5  C   LIG    1        0.688   5.959   0.026  0.00  0.00    -0.680 A 
ATOM      6  C   LIG    1        1.367   4.773   0.013  0.00  0.00    +0.210 A 
ATOM      7  C   LIG    1        0.662   3.567   0.014  0.00  0.00    +0.020 A 
ATOM      8  N   LIG    1        1.038   2.263   0.004  0.00  0.00    -0.460 NA
ATOM      9  C   LIG    1       -0.018   1.503   0.010  0.00  0.00    +0.290 A 
ENDROOT
BRANCH   5  10
ATOM     10  S   LIG    1        1.583   7.476   0.026  0.00  0.00    +2.700 S 
ATOM     11  O   LIG    1        0.706   8.460  -0.505  0.00  0.00    -0.950 OA
ATOM     12  O   LIG    1        2.858   7.190  -0.531  0.00  0.00    -0.950 OA
BRANCH  10  13
ATOM     13  N   LIG    1        1.846   7.890   1.608  0.00  0.00    -1.000 NA
ATOM     14  C   LIG    1        0.870   8.718   2.321  0.00  0.00    +0.310 C 
ATOM     15  C   LIG    1        3.056   7.429   2.294  0.00  0.00    +0.300 C 
ENDBRANCH  10  13
ENDBRANCH   5  10
BRANCH   1  17
ATOM     16  C   LIG    1       -3.000   1.601   1.467  0.00  0.00    +0.030 C 
ATOM     17  C   LIG    1       -2.525   1.778   0.023  0.00  0.00    +0.300 C 
ENDBRANCH   1  17
BRANCH   9  18
ATOM     18  C   LIG    1        0.002  -0.004   0.002  0.00  0.00    +0.200 C 
BRANCH  18  19
ATOM     19  S   LIG    1        0.026  -0.618   1.709  0.00  0.00    -0.050 S 
BRANCH  19  20
ATOM     20  C   LIG    1        0.048  -2.367   1.501  0.00  0.00    -0.130 A 
ATOM     21  C   LIG    1        0.044  -2.917   0.225  0.00  0.00    +0.020 A 
ATOM     22  C   LIG    1        0.061  -4.289   0.066  0.00  0.00    +0.030 A 
ATOM     23  C   LIG    1        0.083  -5.116   1.173  0.00  0.00    +0.050 A 
ATOM     24  C   LIG    1        0.087  -4.574   2.446  0.00  0.00    +0.010 A 
ATOM     25  C   LIG    1        0.075  -3.202   2.614  0.00  0.00    +0.120 A 
ATOM     26  F   LIG    1        0.085  -2.673   3.857  0.00  0.00    -0.130 F 
ENDBRANCH  19  20
ENDBRANCH  18  19
ENDBRANCH   9  18
TORSDOF 6
