REMARK  Name = ZINCrH000004tsyP.0
REMARK                            x       y       z     vdW  Elec       q    Type
REMARK                         _______ _______ _______ _____ _____    ______ ____
ROOT
ATOM      1  C   LIG    1       -0.028   3.849   0.017  0.00  0.00    -0.150 A 
ATOM      2  C   LIG    1        1.192   3.171  -0.006  0.00  0.00    +0.040 A 
ATOM      3  C   LIG    1        1.210   1.786  -0.027  0.00  0.00    +0.090 A 
ATOM      4  C   LIG    1        0.017   1.071  -0.023  0.00  0.00    +0.020 A 
ATOM      5  C   LIG    1       -1.193   1.735  -0.005  0.00  0.00    +0.040 A 
ATOM      6  C   LIG    1       -1.227   3.122   0.020  0.00  0.00    +0.190 A 
ENDROOT
BRANCH   3   7
ATOM      7  N   LIG    1        2.432   1.105  -0.051  0.00  0.00    -0.490 N 
ATOM      8  C   LIG    1        3.254   1.538  -1.188  0.00  0.00    +0.180 C 
ATOM      9  C   LIG    1        4.634   0.882  -1.100  0.00  0.00    +0.020 C 
ATOM     10  C   LIG    1        4.472  -0.640  -1.113  0.00  0.00    +0.010 C 
ATOM     11  C   LIG    1        3.573  -1.060   0.052  0.00  0.00    +0.020 C 
ATOM     12  C   LIG    1        2.224  -0.348  -0.069  0.00  0.00    +0.180 C 
ENDBRANCH   3   7
BRANCH   1  16
ATOM     13  N   LIG    1        1.095   6.019   0.138  0.00  0.00    -0.850 N 
ATOM     14  H   LIG    1        1.077   6.988   0.153  0.00  0.00    +0.410 HD
ATOM     15  H   LIG    1        1.942   5.548   0.195  0.00  0.00    +0.400 HD
ATOM     16  C   LIG    1       -0.056   5.324   0.039  0.00  0.00    +0.570 C 
ATOM     17  O   LIG    1       -1.117   5.914  -0.031  0.00  0.00    -0.550 OA
ENDBRANCH   1  16
BRANCH   6  18
ATOM     18  N   LIG    1       -2.451   3.791   0.044  0.00  0.00    -0.660 N 
ATOM     19  H   LIG    1       -2.551   4.636  -0.421  0.00  0.00    +0.420 HD
ATOM     20  C   LIG    1       -3.495   3.263   0.713  0.00  0.00    +0.520 C 
ATOM     21  O   LIG    1       -3.346   2.256   1.373  0.00  0.00    -0.510 OA
BRANCH  20  22
ATOM     22  C   LIG    1       -4.848   3.923   0.641  0.00  0.00    +0.130 C 
BRANCH  22  23
ATOM     23  C   LIG    1       -5.833   3.141   1.471  0.00  0.00    -0.100 A 
ATOM     24  C   LIG    1       -6.565   2.117   0.894  0.00  0.00    +0.130 A 
ATOM     25  C   LIG    1       -7.466   1.395   1.660  0.00  0.00    -0.010 A 
ATOM     26  C   LIG    1       -7.642   1.704   2.995  0.00  0.00    +0.070 A 
ATOM     27  C   LIG    1       -6.916   2.731   3.569  0.00  0.00    +0.020 A 
ATOM     28  F   LIG    1       -6.397   1.818  -0.412  0.00  0.00    -0.130 F 
ATOM     29  C   LIG    1       -6.011   3.449   2.808  0.00  0.00    +0.000 A 
ATOM     30 CL   LIG    1       -5.099   4.738   3.530  0.00  0.00    -0.050 Cl
ENDBRANCH  22  23
ENDBRANCH  20  22
ENDBRANCH   6  18
TORSDOF 5
