REMARK  Name = ZINCrD000000CVUh.0
REMARK                            x       y       z     vdW  Elec       q    Type
REMARK                         _______ _______ _______ _____ _____    ______ ____
ROOT
ATOM      1  O   LIG    1        0.435   3.491   1.463  0.00  0.00    -0.520 OA
ATOM      2  C   LIG    1       -0.420   2.712   1.835  0.00  0.00    +0.700 C 
ATOM      3  N   LIG    1       -1.198   2.912   2.918  0.00  0.00    -0.720 N 
ATOM      4  H   LIG    1       -1.177   3.675   3.517  0.00  0.00    +0.440 HD
ATOM      5  C   LIG    1       -2.076   1.746   3.011  0.00  0.00    +0.170 C 
ATOM      6  C   LIG    1       -1.686   0.882   1.839  0.00  0.00    +0.540 C 
ATOM      7  O   LIG    1       -2.158  -0.189   1.526  0.00  0.00    -0.450 OA
ATOM      8  C   LIG    1       -1.880   1.002   4.338  0.00  0.00    +0.080 C 
ATOM      9  C   LIG    1       -3.298   0.453   4.616  0.00  0.00    +0.100 C 
ATOM     10  C   LIG    1       -4.237   1.390   3.886  0.00  0.00    -0.070 A 
ATOM     11  C   LIG    1       -5.602   1.575   4.021  0.00  0.00    +0.020 A 
ATOM     12  C   LIG    1       -6.262   2.497   3.231  0.00  0.00    +0.030 A 
ATOM     13  C   LIG    1       -5.556   3.237   2.301  0.00  0.00    +0.010 A 
ATOM     14  C   LIG    1       -4.194   3.055   2.165  0.00  0.00    +0.040 A 
ATOM     15  C   LIG    1       -3.529   2.133   2.956  0.00  0.00    -0.110 A 
ATOM     16  N   LIG    1       -0.698   1.558   1.213  0.00  0.00    -0.570 N 
ENDROOT
BRANCH  16  17
ATOM     17  C   LIG    1       -0.013   1.086   0.008  0.00  0.00    +0.400 C 
BRANCH  17  18
ATOM     18  C   LIG    1       -0.742   1.585  -1.213  0.00  0.00    -0.110 A 
ATOM     19  C   LIG    1       -1.604   0.748  -1.893  0.00  0.00    +0.050 A 
ATOM     20  C   LIG    1       -2.274   1.206  -3.015  0.00  0.00    +0.070 A 
ATOM     21  C   LIG    1       -2.081   2.504  -3.456  0.00  0.00    +0.040 A 
ATOM     22  C   LIG    1       -1.219   3.344  -2.777  0.00  0.00    -0.020 A 
ATOM     23  F   LIG    1       -3.117   0.386  -3.680  0.00  0.00    -0.130 F 
ATOM     24  C   LIG    1       -0.551   2.888  -1.651  0.00  0.00    +0.120 A 
BRANCH  24  25
ATOM     25  O   LIG    1        0.293   3.715  -0.979  0.00  0.00    -0.290 OA
BRANCH  25  26
ATOM     26  C   LIG    1        0.441   5.042  -1.486  0.00  0.00    +0.590 C 
ATOM     27  F   LIG    1       -0.801   5.686  -1.478  0.00  0.00    -0.200 F 
ATOM     28  F   LIG    1        0.930   4.989  -2.795  0.00  0.00    -0.200 F 
ENDBRANCH  25  26
ENDBRANCH  24  25
ENDBRANCH  17  18
ENDBRANCH  16  17
TORSDOF 4
