REMARK  Name = ZINCvU0000000HTG.0
REMARK                            x       y       z     vdW  Elec       q    Type
REMARK                         _______ _______ _______ _____ _____    ______ ____
ROOT
ATOM      1  C   LIG    1        5.181  -2.033  -3.384  0.00  0.00    +0.130 A 
ATOM      2  C   LIG    1        4.458  -1.609  -4.490  0.00  0.00    +0.050 A 
ATOM      3  C   LIG    1        4.988  -1.755  -5.758  0.00  0.00    +0.020 A 
ATOM      4  C   LIG    1        6.233  -2.333  -5.925  0.00  0.00    +0.110 A 
ATOM      5  C   LIG    1        6.954  -2.761  -4.825  0.00  0.00    -0.660 A 
ATOM      6  C   LIG    1        6.431  -2.613  -3.555  0.00  0.00    +0.140 A 
ENDROOT
BRANCH   1   9
ATOM      7  O   LIG    1        6.663  -1.565  -1.225  0.00  0.00    -0.500 OA
ATOM      8  C   LIG    1        5.462  -1.602  -1.061  0.00  0.00    +0.510 C 
ATOM      9  N   LIG    1        4.649  -1.882  -2.098  0.00  0.00    -0.680 N 
ATOM     10  H   LIG    1        3.694  -1.978  -1.954  0.00  0.00    +0.410 HD
BRANCH   8  11
ATOM     11  C   LIG    1        4.879  -1.336   0.303  0.00  0.00    +0.120 C 
BRANCH  11  12
ATOM     12  C   LIG    1        5.992  -1.052   1.279  0.00  0.00    -0.060 A 
ATOM     13  C   LIG    1        6.499  -2.054   2.049  0.00  0.00    +0.020 A 
ATOM     14  C   LIG    1        7.529  -1.810   2.956  0.00  0.00    +0.010 A 
ATOM     15  C   LIG    1        8.058  -0.564   3.098  0.00  0.00    +0.030 A 
ATOM     16  C   LIG    1        7.560   0.495   2.320  0.00  0.00    -0.050 A 
ATOM     17  C   LIG    1        8.080   1.795   2.439  0.00  0.00    +0.030 A 
ATOM     18  C   LIG    1        7.573   2.797   1.669  0.00  0.00    +0.000 A 
ATOM     19  C   LIG    1        6.543   2.553   0.762  0.00  0.00    +0.010 A 
ATOM     20  C   LIG    1        6.015   1.307   0.620  0.00  0.00    +0.010 A 
ATOM     21  C   LIG    1        6.513   0.248   1.397  0.00  0.00    -0.030 A 
ENDBRANCH  11  12
ENDBRANCH   8  11
ENDBRANCH   1   9
BRANCH   5  22
ATOM     22  S   LIG    1        8.539  -3.497  -5.044  0.00  0.00    +2.690 S 
ATOM     23  O   LIG    1        9.236  -3.321  -3.818  0.00  0.00    -0.940 OA
ATOM     24  O   LIG    1        9.031  -3.028  -6.292  0.00  0.00    -0.940 OA
BRANCH  22  25
ATOM     25  N   LIG    1        8.303  -5.127  -5.217  0.00  0.00    -1.050 N 
ATOM     26  H   LIG    1        8.708  -5.746  -4.589  0.00  0.00    +0.430 HD
BRANCH  25  27
ATOM     27  C   LIG    1        7.521  -5.612  -6.269  0.00  0.00    +0.170 A 
ATOM     28  C   LIG    1        7.544  -4.978  -7.503  0.00  0.00    +0.010 A 
ATOM     29  C   LIG    1        6.769  -5.460  -8.541  0.00  0.00    +0.060 A 
ATOM     30  C   LIG    1        5.971  -6.572  -8.351  0.00  0.00    +0.020 A 
ATOM     31  C   LIG    1        5.944  -7.207  -7.122  0.00  0.00    +0.050 A 
ATOM     32  C   LIG    1        6.721  -6.734  -6.082  0.00  0.00    -0.060 A 
ATOM     33 CL   LIG    1        6.693  -7.535  -4.543  0.00  0.00    -0.060 Cl
ENDBRANCH  25  27
ENDBRANCH  22  25
ENDBRANCH   5  22
TORSDOF 6
