REMARK  Name = ZINCah0000002HMl.0
REMARK                            x       y       z     vdW  Elec       q    Type
REMARK                         _______ _______ _______ _____ _____    ______ ____
ROOT
ATOM      1  O   LIG    1       -1.077   1.935   0.018  0.00  0.00    -0.310 OA
ATOM      2  C   LIG    1       -0.016   1.342   0.009  0.00  0.00    +0.450 A 
ATOM      3  N   LIG    1        0.002  -0.004   0.002  0.00  0.00    -0.080 NA
ATOM      4  N   LIG    1        1.211  -0.707  -0.013  0.00  0.00    -0.080 NA
ATOM      5  C   LIG    1        2.390  -0.057  -0.021  0.00  0.00    +0.450 A 
ATOM      6  C   LIG    1        2.419   1.420  -0.013  0.00  0.00    -0.100 A 
ATOM      7 CL   LIG    1        3.933   2.270  -0.024  0.00  0.00    +0.030 Cl
ATOM      8  O   LIG    1        3.430  -0.686  -0.034  0.00  0.00    -0.310 OA
ATOM      9  C   LIG    1        1.253   2.098   0.001  0.00  0.00    -0.100 A 
ATOM     10 CL   LIG    1        1.244   3.834   0.011  0.00  0.00    +0.030 Cl
ENDROOT
TORSDOF 0
