REMARK  Name = ZINCpe00000Jfya9.0
REMARK                            x       y       z     vdW  Elec       q    Type
REMARK                         _______ _______ _______ _____ _____    ______ ____
ROOT
ATOM      1  C   LIG    1        2.042   2.220   7.005  0.00  0.00    +0.240 C 
ATOM      2  C   LIG    1        3.032   3.338   7.390  0.00  0.00    +0.030 C 
ATOM      3  C   LIG    1        2.570   4.559   6.557  0.00  0.00    +0.020 C 
ATOM      4  C   LIG    1        1.026   4.435   6.597  0.00  0.00    +0.030 C 
ATOM      5  C   LIG    1        0.766   2.917   6.501  0.00  0.00    +0.230 C 
ENDROOT
BRANCH   1   7
ATOM      6  C   LIG    1        2.512   0.340   8.482  0.00  0.00    +0.610 C 
ATOM      7  N   LIG    1        1.734   1.397   8.177  0.00  0.00    -0.710 N 
ATOM      8  H   LIG    1        0.969   1.613   8.733  0.00  0.00    +0.410 HD
ATOM      9  O   LIG    1        3.471   0.070   7.784  0.00  0.00    -0.530 OA
BRANCH   6  13
ATOM     10  C   LIG    1        2.647  -3.236  12.071  0.00  0.00    +0.150 C 
ATOM     11  C   LIG    1        2.273  -2.051  11.218  0.00  0.00    +0.010 A 
ATOM     12  C   LIG    1        2.922  -1.623  10.109  0.00  0.00    -0.020 A 
ATOM     13  C   LIG    1        2.202  -0.490   9.664  0.00  0.00    -0.020 A 
ATOM     14  N   LIG    1        1.205  -0.311  10.507  0.00  0.00    -0.260 NA
ATOM     15  N   LIG    1        1.230  -1.218  11.417  0.00  0.00    -0.280 N 
ATOM     16  C   LIG    1        0.267  -1.328  12.516  0.00  0.00    +0.370 C 
ENDBRANCH   6  13
ENDBRANCH   1   7
BRANCH   5  17
ATOM     17  N   LIG    1        0.504   2.540   5.109  0.00  0.00    -0.710 N 
ATOM     18  H   LIG    1        1.235   2.252   4.540  0.00  0.00    +0.410 HD
ATOM     19  C   LIG    1       -0.751   2.594   4.621  0.00  0.00    +0.610 C 
ATOM     20  O   LIG    1       -1.666   2.955   5.335  0.00  0.00    -0.530 OA
BRANCH  19  21
ATOM     21  C   LIG    1       -1.014   2.214   3.219  0.00  0.00    -0.020 A 
ATOM     22  N   LIG    1       -0.125   1.805   2.336  0.00  0.00    -0.260 NA
ATOM     23  N   LIG    1       -0.698   1.558   1.213  0.00  0.00    -0.280 N 
ATOM     24  C   LIG    1       -2.023   1.802   1.302  0.00  0.00    +0.010 A 
ATOM     25  C   LIG    1       -3.039   1.639   0.201  0.00  0.00    +0.150 C 
ATOM     26  C   LIG    1       -0.013   1.086   0.008  0.00  0.00    +0.370 C 
ATOM     27  C   LIG    1       -2.271   2.218   2.567  0.00  0.00    -0.020 A 
ENDBRANCH  19  21
ENDBRANCH   5  17
TORSDOF 4
