REMARK  Name = ZINCrg00000IYxBb.1
REMARK                            x       y       z     vdW  Elec       q    Type
REMARK                         _______ _______ _______ _____ _____    ______ ____
ROOT
ATOM      1  C   LIG    1       -0.013   1.086   0.008  0.00  0.00    +0.280 C 
ATOM      2  C   LIG    1        1.425   1.617  -0.003  0.00  0.00    +0.280 C 
ATOM      3  N   LIG    1        2.032   1.287  -1.302  0.00  0.00    -0.610 N 
ATOM      4  C   LIG    1        1.290   1.640  -2.522  0.00  0.00    +0.250 C 
ATOM      5  C   LIG    1       -0.141   1.107  -2.389  0.00  0.00    +0.230 C 
ATOM      6  C   LIG    1        3.233   0.679  -1.371  0.00  0.00    +0.530 C 
ATOM      7  O   LIG    1        3.830   0.397  -0.354  0.00  0.00    -0.520 OA
ATOM      8  O   LIG    1       -0.699   1.560  -1.153  0.00  0.00    -0.360 OA
ENDROOT
BRANCH   1  12
ATOM      9  C   LIG    1       -2.099   1.094   4.560  0.00  0.00    +0.210 C 
ATOM     10  C   LIG    1       -1.617   1.564   3.212  0.00  0.00    +0.290 A 
ATOM     11  N   LIG    1       -0.999   0.834   2.320  0.00  0.00    -0.530 NA
ATOM     12  C   LIG    1       -0.720   1.573   1.246  0.00  0.00    +0.230 A 
ATOM     13  N   LIG    1       -1.155   2.790   1.444  0.00  0.00    -0.280 NA
ATOM     14  N   LIG    1       -1.749   2.807   2.716  0.00  0.00    -0.480 N 
ATOM     15  H   LIG    1       -2.167   3.565   3.152  0.00  0.00    +0.440 HD
ENDBRANCH   1  12
BRANCH   6  16
ATOM     16  C   LIG    1        3.835   0.350  -2.714  0.00  0.00    +0.000 C 
ATOM     17  C   LIG    1        3.015  -0.745  -3.434  0.00  0.00    +0.070 C 
ATOM     18  C   LIG    1        4.057  -1.587  -4.137  0.00  0.00    +0.520 C 
ATOM     19  N   LIG    1        5.275  -1.336  -3.626  0.00  0.00    -0.610 N 
ATOM     20  O   LIG    1        3.827  -2.373  -5.031  0.00  0.00    -0.520 OA
ATOM     21  C   LIG    1        5.207  -0.340  -2.550  0.00  0.00    +0.300 C 
BRANCH  19  22
ATOM     22  C   LIG    1        6.511  -1.975  -4.084  0.00  0.00    +0.350 C 
BRANCH  22  23
ATOM     23  C   LIG    1        6.750  -3.233  -3.291  0.00  0.00    -0.120 A 
ATOM     24  C   LIG    1        7.487  -3.184  -2.122  0.00  0.00    +0.020 A 
ATOM     25  C   LIG    1        7.702  -4.338  -1.392  0.00  0.00    +0.000 A 
ATOM     26  C   LIG    1        7.188  -5.543  -1.835  0.00  0.00    +0.010 A 
ATOM     27  C   LIG    1        6.455  -5.593  -3.006  0.00  0.00    +0.000 A 
ATOM     28  C   LIG    1        6.236  -4.438  -3.733  0.00  0.00    +0.030 A 
ENDBRANCH  22  23
ENDBRANCH  19  22
ENDBRANCH   6  16
TORSDOF 4
