REMARK  Name = ZINCrg00000IYxBb.0
REMARK                            x       y       z     vdW  Elec       q    Type
REMARK                         _______ _______ _______ _____ _____    ______ ____
ROOT
ATOM      1  C   LIG    1        6.377   5.087  -7.242  0.00  0.00    +0.270 C 
ATOM      2  C   LIG    1        6.041   3.770  -6.532  0.00  0.00    +0.300 C 
ATOM      3  N   LIG    1        4.828   3.975  -5.723  0.00  0.00    -0.620 N 
ATOM      4  C   LIG    1        3.655   4.576  -6.377  0.00  0.00    +0.260 C 
ATOM      5  C   LIG    1        4.109   5.858  -7.092  0.00  0.00    +0.240 C 
ATOM      6  C   LIG    1        4.792   3.618  -4.424  0.00  0.00    +0.530 C 
ATOM      7  O   LIG    1        5.796   3.208  -3.880  0.00  0.00    -0.520 OA
ATOM      8  O   LIG    1        5.220   5.554  -7.939  0.00  0.00    -0.380 OA
ENDROOT
BRANCH   1  13
ATOM      9  C   LIG    1        9.158   4.900 -11.455  0.00  0.00    +0.200 C 
ATOM     10  C   LIG    1        8.690   4.778 -10.028  0.00  0.00    +0.180 A 
ATOM     11  N   LIG    1        9.375   4.295  -9.027  0.00  0.00    -0.290 NA
ATOM     12  N   LIG    1        8.669   4.348  -7.954  0.00  0.00    -0.270 NA
ATOM     13  C   LIG    1        7.498   4.858  -8.222  0.00  0.00    +0.180 A 
ATOM     14  N   LIG    1        7.479   5.149  -9.546  0.00  0.00    -0.560 N 
ATOM     15  H   LIG    1        6.747   5.542 -10.046  0.00  0.00    +0.430 HD
ENDBRANCH   1  13
BRANCH   6  16
ATOM     16  C   LIG    1        3.505   3.728  -3.648  0.00  0.00    -0.020 C 
ATOM     17  C   LIG    1        3.432   5.070  -2.884  0.00  0.00    +0.080 C 
ATOM     18  C   LIG    1        2.754   4.718  -1.579  0.00  0.00    +0.520 C 
ATOM     19  N   LIG    1        2.784   3.388  -1.386  0.00  0.00    -0.610 N 
ATOM     20  O   LIG    1        2.257   5.519  -0.816  0.00  0.00    -0.520 OA
ATOM     21  C   LIG    1        3.473   2.705  -2.488  0.00  0.00    +0.310 C 
BRANCH  19  22
ATOM     22  C   LIG    1        2.208   2.708  -0.224  0.00  0.00    +0.350 C 
BRANCH  22  23
ATOM     23  C   LIG    1        0.773   2.347  -0.513  0.00  0.00    -0.110 A 
ATOM     24  C   LIG    1        0.470   1.127  -1.087  0.00  0.00    +0.010 A 
ATOM     25  C   LIG    1       -0.846   0.796  -1.352  0.00  0.00    +0.000 A 
ATOM     26  C   LIG    1       -1.858   1.688  -1.048  0.00  0.00    +0.010 A 
ATOM     27  C   LIG    1       -1.554   2.906  -0.468  0.00  0.00    +0.000 A 
ATOM     28  C   LIG    1       -0.239   3.236  -0.203  0.00  0.00    +0.030 A 
ENDBRANCH  22  23
ENDBRANCH  19  22
ENDBRANCH   6  16
TORSDOF 4
