REMARK  Name = ZINCnE00000rhnWx.0
REMARK                            x       y       z     vdW  Elec       q    Type
REMARK                         _______ _______ _______ _____ _____    ______ ____
ROOT
ATOM      1  N   LIG    1       -1.800   5.455   0.048  0.00  0.00    -0.720 N 
ATOM      2  H   LIG    1       -0.876   5.750   0.040  0.00  0.00    +0.400 HD
ATOM      3  C   LIG    1       -2.086   4.138   0.043  0.00  0.00    +0.580 C 
ATOM      4  O   LIG    1       -3.246   3.766   0.053  0.00  0.00    -0.520 OA
ENDROOT
BRANCH   3   5
ATOM      5  C   LIG    1       -1.004   3.154   0.028  0.00  0.00    -0.240 A 
ATOM      6  C   LIG    1       -1.173   1.797   0.017  0.00  0.00    +0.100 A 
ATOM      7  C   LIG    1       -0.013   1.076   0.008  0.00  0.00    +0.020 A 
ATOM      8  C   LIG    1        1.130   1.830   0.001  0.00  0.00    -0.120 A 
ATOM      9  S   LIG    1        0.712   3.538   0.014  0.00  0.00    +0.200 S 
BRANCH   8  10
ATOM     10  C   LIG    1        2.498   1.293  -0.014  0.00  0.00    -0.100 A 
ATOM     11  C   LIG    1        3.637   2.040  -0.021  0.00  0.00    +0.020 A 
ATOM     12  C   LIG    1        4.801   1.304  -0.035  0.00  0.00    +0.070 A 
ATOM     13  C   LIG    1        4.635  -0.024  -0.040  0.00  0.00    -0.220 A 
ATOM     14 BR   LIG    1        6.037  -1.293  -0.058  0.00  0.00    +0.010 Br
ATOM     15  S   LIG    1        2.921  -0.414  -0.018  0.00  0.00    +0.210 S 
ENDBRANCH   8  10
ENDBRANCH   3   5
BRANCH   1  16
ATOM     16  C   LIG    1       -2.884   6.440   0.064  0.00  0.00    +0.290 C 
BRANCH  16  18
ATOM     17  C   LIG    1       -1.545   8.091  -1.248  0.00  0.00    +0.050 C 
ATOM     18  C   LIG    1       -2.292   7.850   0.066  0.00  0.00    +0.080 C 
BRANCH  18  19
ATOM     19  C   LIG    1       -3.401   8.861   0.205  0.00  0.00    +0.180 A 
ATOM     20  N   LIG    1       -4.007   9.492  -0.779  0.00  0.00    -0.630 NA
ATOM     21  C   LIG    1       -4.919  10.288  -0.197  0.00  0.00    +0.470 A 
ATOM     22  O   LIG    1       -4.817  10.095   1.126  0.00  0.00    -0.070 OA
ATOM     23  O   LIG    1       -5.692  11.042  -0.763  0.00  0.00    -0.600 OA
ATOM     24  N   LIG    1       -3.952   9.274   1.351  0.00  0.00    -0.480 NA
ENDBRANCH  18  19
ENDBRANCH  16  18
ENDBRANCH   1  16
TORSDOF 5
