REMARK  Name = ZINCrH000004kxYj.0
REMARK                            x       y       z     vdW  Elec       q    Type
REMARK                         _______ _______ _______ _____ _____    ______ ____
ROOT
ATOM      1  C   LIG    1        3.028   3.308   2.986  0.00  0.00    -0.340 A 
ATOM      2  C   LIG    1        3.423   4.532   3.451  0.00  0.00    +0.130 A 
ATOM      3  C   LIG    1        4.768   4.760   3.317  0.00  0.00    -0.060 A 
ATOM      4  C   LIG    1        5.464   3.739   2.753  0.00  0.00    +0.040 A 
ATOM      5  S   LIG    1        4.427   2.438   2.373  0.00  0.00    +0.330 S 
ENDROOT
BRANCH   4   6
ATOM      6  N   LIG    1        6.834   3.750   2.521  0.00  0.00    -0.640 N 
ATOM      7  H   LIG    1        7.361   4.526   2.768  0.00  0.00    +0.420 HD
ATOM      8  C   LIG    1        7.430   2.683   1.953  0.00  0.00    +0.700 C 
ATOM      9  N   LIG    1        8.759   2.694   1.729  0.00  0.00    -0.670 N 
ATOM     10  H   LIG    1        9.275   3.494   1.913  0.00  0.00    +0.410 HD
ATOM     11  O   LIG    1        6.769   1.710   1.644  0.00  0.00    -0.540 OA
BRANCH   9  12
ATOM     12  C   LIG    1        9.393   1.551   1.229  0.00  0.00    +0.150 A 
ATOM     13  C   LIG    1       10.684   1.238   1.635  0.00  0.00    -0.010 A 
ATOM     14  C   LIG    1       11.306   0.107   1.143  0.00  0.00    +0.030 A 
ATOM     15  C   LIG    1       10.648  -0.708   0.240  0.00  0.00    +0.000 A 
ATOM     16  C   LIG    1        9.365  -0.397  -0.170  0.00  0.00    +0.030 A 
ATOM     17  C   LIG    1        8.736   0.731   0.322  0.00  0.00    +0.020 A 
ENDBRANCH   9  12
ENDBRANCH   4   6
BRANCH   1  20
ATOM     18  N   LIG    1        1.388   1.573   2.513  0.00  0.00    -0.720 N 
ATOM     19  H   LIG    1        2.104   1.027   2.151  0.00  0.00    +0.410 HD
ATOM     20  C   LIG    1        1.658   2.800   3.001  0.00  0.00    +0.610 C 
ATOM     21  O   LIG    1        0.759   3.485   3.455  0.00  0.00    -0.520 OA
BRANCH  18  22
ATOM     22  C   LIG    1        0.015   1.064   2.529  0.00  0.00    +0.300 C 
BRANCH  22  23
ATOM     23  C   LIG    1       -0.728   1.560   1.287  0.00  0.00    -0.070 C 
ATOM     24  C   LIG    1       -2.162   1.028   1.303  0.00  0.00    +0.050 C 
ATOM     25  C   LIG    1       -0.751   3.090   1.284  0.00  0.00    +0.060 C 
ATOM     26  C   LIG    1       -0.012   1.059   0.030  0.00  0.00    +0.030 C 
ENDBRANCH  22  23
BRANCH  22  27
ATOM     27  C   LIG    1        0.038  -0.443   2.531  0.00  0.00    +0.460 C 
ATOM     28  O   LIG    1        1.093  -1.031   2.521  0.00  0.00    -0.500 OA
BRANCH  27  30
ATOM     29  C   LIG    1       -1.016  -2.581   2.547  0.00  0.00    +0.280 C 
ATOM     30  O   LIG    1       -1.114  -1.132   2.545  0.00  0.00    -0.340 OA
ENDBRANCH  27  30
ENDBRANCH  22  27
ENDBRANCH  18  22
ENDBRANCH   1  20
TORSDOF 7
