REMARK  Name = ZINCtV00001bB3hr.0
REMARK                            x       y       z     vdW  Elec       q    Type
REMARK                         _______ _______ _______ _____ _____    ______ ____
ROOT
ATOM      1  C   LIG    1        1.135   6.453  -0.064  0.00  0.00    -0.070 A 
ATOM      2  C   LIG    1        2.341   5.747  -0.147  0.00  0.00    +0.110 A 
ATOM      3  C   LIG    1        3.536   6.430  -0.157  0.00  0.00    +0.030 A 
ATOM      4  C   LIG    1        3.547   7.819  -0.085  0.00  0.00    +0.160 A 
ATOM      5  C   LIG    1        2.351   8.525  -0.002  0.00  0.00    -0.060 A 
ATOM      6  C   LIG    1        1.151   7.852   0.003  0.00  0.00    +0.170 A 
ENDROOT
BRANCH   5   7
ATOM      7  N   LIG    1        2.370  10.003   0.075  0.00  0.00    +0.030 N 
ATOM      8  O   LIG    1        3.432  10.600   0.066  0.00  0.00    -0.140 OA
ATOM      9  O   LIG    1        1.324  10.623   0.147  0.00  0.00    -0.160 OA
ENDBRANCH   5   7
BRANCH   1  11
ATOM     10  C   LIG    1       -1.117   6.091   0.813  0.00  0.00    -0.080 C 
ATOM     11  C   LIG    1       -0.143   5.730  -0.053  0.00  0.00    +0.150 C 
BRANCH  10  13
ATOM     12  O   LIG    1        0.317   7.352   2.066  0.00  0.00    -0.430 OA
ATOM     13  C   LIG    1       -0.830   6.995   1.866  0.00  0.00    +0.420 C 
BRANCH  13  14
ATOM     14  C   LIG    1       -1.923   7.504   2.723  0.00  0.00    -0.150 A 
ATOM     15  C   LIG    1       -3.238   7.096   2.497  0.00  0.00    +0.100 A 
ATOM     16  C   LIG    1       -4.254   7.575   3.300  0.00  0.00    -0.050 A 
ATOM     17  C   LIG    1       -3.970   8.458   4.329  0.00  0.00    +0.090 A 
ATOM     18  C   LIG    1       -2.668   8.866   4.558  0.00  0.00    +0.040 A 
ATOM     19 CL   LIG    1       -5.891   7.069   3.020  0.00  0.00    -0.050 Cl
ATOM     20  C   LIG    1       -1.643   8.395   3.762  0.00  0.00    +0.020 A 
ATOM     21 CL   LIG    1       -0.010   8.908   4.053  0.00  0.00    -0.020 Cl
ENDBRANCH  13  14
ENDBRANCH  10  13
ENDBRANCH   1  11
BRANCH   4  22
ATOM     22  O   LIG    1        4.728   8.487  -0.095  0.00  0.00    -0.240 OA
BRANCH  22  23
ATOM     23  C   LIG    1        5.292   8.804   1.101  0.00  0.00    +0.120 A 
ATOM     24  C   LIG    1        4.724   8.344   2.280  0.00  0.00    -0.040 A 
ATOM     25  C   LIG    1        5.301   8.664   3.494  0.00  0.00    +0.030 A 
ATOM     26  C   LIG    1        6.439   9.450   3.535  0.00  0.00    +0.070 A 
ATOM     27  C   LIG    1        7.005   9.914   2.359  0.00  0.00    +0.040 A 
ATOM     28  F   LIG    1        6.999   9.766   4.723  0.00  0.00    -0.140 F 
ATOM     29  C   LIG    1        6.433   9.592   1.143  0.00  0.00    +0.050 A 
ENDBRANCH  22  23
ENDBRANCH   4  22
TORSDOF 6
