REMARK  Name = ZINCrD00000se32C.0
REMARK                            x       y       z     vdW  Elec       q    Type
REMARK                         _______ _______ _______ _____ _____    ______ ____
ROOT
ATOM      1  N   LIG    1       -0.400   3.713   0.447  0.00  0.00    -0.630 N 
ATOM      2  C   LIG    1        0.113   3.194  -0.828  0.00  0.00    +0.280 C 
ATOM      3  C   LIG    1        1.521   3.740  -1.057  0.00  0.00    +0.020 C 
ATOM      4  C   LIG    1        1.495   5.267  -0.965  0.00  0.00    +0.030 C 
ATOM      5  C   LIG    1        1.033   5.688   0.432  0.00  0.00    -0.040 C 
ATOM      6  C   LIG    1       -0.385   5.164   0.676  0.00  0.00    +0.300 C 
ENDROOT
BRANCH   1   9
ATOM      7  C   LIG    1       -3.159   3.867   1.143  0.00  0.00    +0.150 C 
ATOM      8  C   LIG    1       -2.208   2.889   1.786  0.00  0.00    -0.200 A 
ATOM      9  C   LIG    1       -0.880   2.855   1.412  0.00  0.00    +0.470 A 
ATOM     10  N   LIG    1       -0.049   1.958   2.021  0.00  0.00    -0.340 N 
ATOM     11  N   LIG    1        1.314   1.667   1.889  0.00  0.00    -0.330 NA
ATOM     12  C   LIG    1        1.583   0.697   2.728  0.00  0.00    +0.490 A 
ATOM     13  N   LIG    1        0.480   0.355   3.382  0.00  0.00    -0.520 NA
ATOM     14  C   LIG    1       -0.536   1.107   2.973  0.00  0.00    +0.470 A 
ATOM     15  N   LIG    1       -1.827   1.147   3.322  0.00  0.00    -0.460 NA
ATOM     16  C   LIG    1       -2.659   2.002   2.762  0.00  0.00    +0.280 A 
ATOM     17 CL   LIG    1       -4.327   2.022   3.243  0.00  0.00    +0.020 Cl
ENDBRANCH   1   9
BRANCH   5  18
ATOM     18  C   LIG    1        1.039   7.214   0.534  0.00  0.00    +0.310 C 
BRANCH  18  19
ATOM     19  N   LIG    1        2.414   7.707   0.419  0.00  0.00    -0.490 N 
ATOM     20  C   LIG    1        3.254   8.000   1.448  0.00  0.00    +0.470 A 
ATOM     21  N   LIG    1        4.400   8.409   0.988  0.00  0.00    -0.490 NA
ATOM     22  C   LIG    1        4.371   8.414  -0.369  0.00  0.00    +0.040 A 
ATOM     23  C   LIG    1        5.303   8.758  -1.352  0.00  0.00    +0.070 A 
ATOM     24  C   LIG    1        4.969   8.655  -2.673  0.00  0.00    +0.000 A 
ATOM     25  C   LIG    1        3.711   8.211  -3.052  0.00  0.00    +0.030 A 
ATOM     26  C   LIG    1        2.775   7.865  -2.100  0.00  0.00    +0.010 A 
ATOM     27  C   LIG    1        3.096   7.964  -0.753  0.00  0.00    +0.050 A 
ENDBRANCH  18  19
ENDBRANCH   5  18
TORSDOF 3
