REMARK  Name = ZINCrH000004sH9A.0
REMARK                            x       y       z     vdW  Elec       q    Type
REMARK                         _______ _______ _______ _____ _____    ______ ____
ROOT
ATOM      1  C   LIG    1       -1.293  -0.775   0.010  0.00  0.00    +0.240 C 
ATOM      2  C   LIG    1       -1.809  -0.920  -1.423  0.00  0.00    +0.080 C 
ENDROOT
BRANCH   1   3
ATOM      3  C   LIG    1       -1.060  -2.142   0.601  0.00  0.00    -0.090 A 
ATOM      4  C   LIG    1       -1.742  -2.528   1.740  0.00  0.00    +0.040 A 
ATOM      5  C   LIG    1       -1.532  -3.783   2.279  0.00  0.00    -0.010 A 
ATOM      6  C   LIG    1       -0.631  -4.649   1.686  0.00  0.00    +0.010 A 
ATOM      7  C   LIG    1        0.055  -4.260   0.550  0.00  0.00    -0.010 A 
ATOM      8  C   LIG    1       -0.159  -3.007   0.008  0.00  0.00    +0.040 A 
ENDBRANCH   1   3
BRANCH   1  10
ATOM      9  C   LIG    1       -3.524  -0.563   0.966  0.00  0.00    +0.600 C 
ATOM     10  N   LIG    1       -2.284  -0.057   0.816  0.00  0.00    -0.720 N 
ATOM     11  H   LIG    1       -2.047   0.782   1.241  0.00  0.00    +0.400 HD
ATOM     12  O   LIG    1       -3.820  -1.615   0.433  0.00  0.00    -0.520 OA
BRANCH   9  18
ATOM     13  C   LIG    1       -6.510  -1.495   1.502  0.00  0.00    +0.170 C 
ATOM     14  C   LIG    1       -5.853  -0.244   2.024  0.00  0.00    +0.140 A 
ATOM     15  N   LIG    1       -6.413   0.657   2.782  0.00  0.00    -0.300 NA
ATOM     16  N   LIG    1       -5.481   1.665   3.053  0.00  0.00    -0.350 N 
ATOM     17  C   LIG    1       -4.327   1.353   2.442  0.00  0.00    +0.280 A 
ATOM     18  C   LIG    1       -4.521   0.160   1.777  0.00  0.00    -0.290 A 
BRANCH  16  19
ATOM     19  C   LIG    1       -5.721   2.856   3.872  0.00  0.00    +0.260 C 
ATOM     20  C   LIG    1       -4.945   4.040   3.291  0.00  0.00    +0.060 C 
ATOM     21  C   LIG    1       -5.254   2.593   5.305  0.00  0.00    +0.040 C 
ENDBRANCH  16  19
ENDBRANCH   9  18
ENDBRANCH   1  10
BRANCH   1  22
ATOM     22  C   LIG    1        0.002  -0.004   0.002  0.00  0.00    +0.470 C 
ATOM     23  O   LIG    1        1.056  -0.594  -0.011  0.00  0.00    -0.480 OA
BRANCH  22  24
ATOM     24  O   LIG    1       -0.016   1.338   0.009  0.00  0.00    -0.350 OA
BRANCH  24  25
ATOM     25  C   LIG    1        1.268   2.015   0.001  0.00  0.00    +0.120 C 
ATOM     26  C   LIG    1        2.068   1.608   1.240  0.00  0.00    +0.030 C 
ATOM     27  C   LIG    1        1.048   3.529   0.011  0.00  0.00    +0.080 C 
ATOM     28  C   LIG    1        2.044   1.621  -1.258  0.00  0.00    +0.030 C 
ENDBRANCH  24  25
ENDBRANCH  22  24
ENDBRANCH   1  22
TORSDOF 7
