REMARK  Name = ZINCrH00000tj195.0
REMARK                            x       y       z     vdW  Elec       q    Type
REMARK                         _______ _______ _______ _____ _____    ______ ____
ROOT
ATOM      1  C   LIG    1        3.505  -2.794   1.450  0.00  0.00    +0.050 C 
ATOM      2  C   LIG    1        3.721  -2.122   0.093  0.00  0.00    +0.250 C 
ENDROOT
BRANCH   2   3
ATOM      3  C   LIG    1        5.006  -2.622  -0.515  0.00  0.00    +0.510 C 
ATOM      4  N   LIG    1        5.163  -3.935  -0.774  0.00  0.00    -0.670 N 
ATOM      5  H   LIG    1        4.481  -4.568  -0.499  0.00  0.00    +0.420 HD
ATOM      6  O   LIG    1        5.899  -1.842  -0.773  0.00  0.00    -0.500 OA
BRANCH   4   7
ATOM      7  C   LIG    1        6.308  -4.385  -1.439  0.00  0.00    +0.180 A 
ATOM      8  C   LIG    1        6.910  -3.589  -2.405  0.00  0.00    +0.030 A 
ATOM      9  C   LIG    1        8.044  -4.035  -3.057  0.00  0.00    +0.090 A 
ATOM     10  C   LIG    1        8.573  -5.276  -2.756  0.00  0.00    -0.200 A 
ATOM     11  C   LIG    1        7.973  -6.074  -1.798  0.00  0.00    +0.090 A 
ATOM     12  C   LIG    1        6.843  -5.632  -1.139  0.00  0.00    -0.010 A 
BRANCH  10  13
ATOM     13  C   LIG    1        9.807  -5.762  -3.473  0.00  0.00    +0.510 C 
ATOM     14  F   LIG    1       10.533  -6.609  -2.629  0.00  0.00    -0.180 F 
ATOM     15  F   LIG    1       10.600  -4.666  -3.829  0.00  0.00    -0.180 F 
ATOM     16  F   LIG    1        9.432  -6.460  -4.625  0.00  0.00    -0.180 F 
ENDBRANCH  10  13
ENDBRANCH   4   7
ENDBRANCH   2   3
BRANCH   2  17
ATOM     17  N   LIG    1        3.800  -0.670   0.275  0.00  0.00    -0.730 N 
ATOM     18  H   LIG    1        4.664  -0.238   0.367  0.00  0.00    +0.410 HD
BRANCH  17  19
ATOM     19  C   LIG    1        2.628   0.095   0.316  0.00  0.00    +0.240 A 
ATOM     20  C   LIG    1        1.392  -0.520   0.184  0.00  0.00    -0.050 A 
ATOM     21  C   LIG    1        0.235   0.238   0.224  0.00  0.00    +0.060 A 
ATOM     22  C   LIG    1        0.306   1.607   0.395  0.00  0.00    -0.040 A 
ATOM     23  C   LIG    1        1.535   2.229   0.527  0.00  0.00    +0.030 A 
ATOM     24  C   LIG    1        2.700   1.478   0.488  0.00  0.00    -0.170 A 
BRANCH  24  25
ATOM     25  S   LIG    1        4.266   2.267   0.654  0.00  0.00    -0.040 S 
BRANCH  25  26
ATOM     26  C   LIG    1        3.824   4.015   0.848  0.00  0.00    +0.090 C 
BRANCH  26  27
ATOM     27  C   LIG    1        5.078   4.837   1.005  0.00  0.00    +0.540 C 
ATOM     28  O   LIG    1        6.163   4.295   0.988  0.00  0.00    -0.520 OA
ATOM     29  N   LIG    1        4.993   6.172   1.164  0.00  0.00    -0.850 N 
ATOM     30  H   LIG    1        5.800   6.701   1.265  0.00  0.00    +0.410 HD
ATOM     31  H   LIG    1        4.125   6.605   1.178  0.00  0.00    +0.400 HD
ENDBRANCH  26  27
ENDBRANCH  25  26
ENDBRANCH  24  25
ENDBRANCH  17  19
ENDBRANCH   2  17
TORSDOF 8
