REMARK  Name = ZINCkj00000GeS3b.0
REMARK                            x       y       z     vdW  Elec       q    Type
REMARK                         _______ _______ _______ _____ _____    ______ ____
ROOT
ATOM      1  C   LIG    1       -1.685   5.304   2.635  0.00  0.00    +0.240 C 
ENDROOT
BRANCH   1   2
ATOM      2  N   LIG    1       -2.388   5.667   3.872  0.00  0.00    -0.500 N 
ATOM      3  H   LIG    1       -1.844   5.368   4.668  0.00  0.00    +0.430 HD
ATOM      4  H   LIG    1       -3.289   5.214   3.892  0.00  0.00    +0.430 HD
BRANCH   2   5
ATOM      5  C   LIG    1       -2.570   7.124   3.923  0.00  0.00    +0.250 C 
BRANCH   5   6
ATOM      6  C   LIG    1       -3.302   7.501   5.213  0.00  0.00    +0.100 C 
BRANCH   6   7
ATOM      7  C   LIG    1       -3.490   8.996   5.265  0.00  0.00    -0.110 A 
ATOM      8  C   LIG    1       -2.528   9.792   5.857  0.00  0.00    +0.010 A 
ATOM      9  C   LIG    1       -2.698  11.164   5.901  0.00  0.00    +0.020 A 
ATOM     10  C   LIG    1       -3.834  11.737   5.361  0.00  0.00    +0.030 A 
ATOM     11  C   LIG    1       -4.798  10.940   4.773  0.00  0.00    +0.020 A 
ATOM     12  C   LIG    1       -4.626   9.569   4.725  0.00  0.00    +0.010 A 
ENDBRANCH   6   7
ENDBRANCH   5   6
ENDBRANCH   2   5
ENDBRANCH   1   2
BRANCH   1  13
ATOM     13  C   LIG    1       -1.494   3.787   2.582  0.00  0.00    +0.220 C 
BRANCH  13  14
ATOM     14  O   LIG    1       -0.724   3.364   3.708  0.00  0.00    -0.540 OA
ATOM     15  H   LIG    1        0.157   3.761   3.754  0.00  0.00    +0.390 HD
ENDBRANCH  13  14
BRANCH  13  16
ATOM     16  C   LIG    1       -0.762   3.410   1.292  0.00  0.00    +0.160 C 
BRANCH  16  17
ATOM     17  O   LIG    1       -0.688   1.987   1.186  0.00  0.00    -0.370 OA
BRANCH  17  18
ATOM     18  C   LIG    1       -0.019   1.526   0.010  0.00  0.00    +0.190 C 
BRANCH  18  19
ATOM     19  C   LIG    1        0.002  -0.004   0.002  0.00  0.00    +0.160 C 
ATOM     20  C   LIG    1        0.643  -0.526  -1.309  0.00  0.00    +0.020 C 
ATOM     21  C   LIG    1        1.146  -1.924  -0.853  0.00  0.00    +0.010 C 
ATOM     22  C   LIG    1        1.543  -1.668   0.617  0.00  0.00    +0.190 C 
ATOM     23  O   LIG    1        0.844  -0.497   1.056  0.00  0.00    -0.370 OA
ENDBRANCH  18  19
ENDBRANCH  17  18
ENDBRANCH  16  17
ENDBRANCH  13  16
ENDBRANCH   1  13
TORSDOF 10
