REMARK  Name = ZINCtV00001bB3As.0
REMARK                            x       y       z     vdW  Elec       q    Type
REMARK                         _______ _______ _______ _____ _____    ______ ____
ROOT
ATOM      1  O   LIG    1        3.111   1.170   3.168  0.00  0.00    -0.520 OA
ATOM      2  C   LIG    1        2.970   1.138   1.960  0.00  0.00    +0.580 C 
ATOM      3  N   LIG    1        1.760   1.379   1.417  0.00  0.00    -0.580 N 
ATOM      4  C   LIG    1        0.576   1.710   2.082  0.00  0.00    +0.390 C 
ATOM      5  N   LIG    1       -0.500   1.518   1.347  0.00  0.00    -0.500 NA
ATOM      6  C   LIG    1       -0.074   0.866   0.126  0.00  0.00    +0.130 C 
ATOM      7  C   LIG    1       -0.756   1.188  -1.181  0.00  0.00    +0.050 C 
ATOM      8  C   LIG    1       -0.061   0.312  -2.260  0.00  0.00    +0.020 C 
ATOM      9  C   LIG    1        1.444   0.555  -2.304  0.00  0.00    +0.030 C 
ATOM     10  C   LIG    1        2.094   0.378  -0.918  0.00  0.00    +0.040 C 
ATOM     11  C   LIG    1        1.397   1.355   0.007  0.00  0.00    +0.180 C 
ENDROOT
BRANCH   4  12
ATOM     12  C   LIG    1        0.535   2.220   3.458  0.00  0.00    +0.030 C 
ATOM     13  C   LIG    1       -0.648   2.415   4.069  0.00  0.00    +0.100 C 
BRANCH  13  14
ATOM     14  C   LIG    1       -0.689   2.926   5.449  0.00  0.00    -0.070 A 
ATOM     15  C   LIG    1        0.500   3.204   6.131  0.00  0.00    +0.050 A 
ATOM     16  C   LIG    1        0.454   3.688   7.421  0.00  0.00    +0.030 A 
ATOM     17  C   LIG    1       -0.766   3.887   8.046  0.00  0.00    -0.030 A 
ATOM     18  C   LIG    1       -1.948   3.608   7.379  0.00  0.00    +0.030 A 
ATOM     19 CL   LIG    1       -0.814   4.490   9.674  0.00  0.00    -0.070 Cl
ATOM     20  C   LIG    1       -1.917   3.130   6.087  0.00  0.00    +0.060 A 
ENDBRANCH  13  14
ENDBRANCH   4  12
BRANCH   2  21
ATOM     21  C   LIG    1        4.112   0.837   1.097  0.00  0.00    -0.080 C 
ATOM     22  C   LIG    1        5.281   0.439   1.640  0.00  0.00    +0.140 C 
BRANCH  22  23
ATOM     23  C   LIG    1        6.430   0.137   0.772  0.00  0.00    -0.080 A 
ATOM     24  C   LIG    1        6.312   0.254  -0.617  0.00  0.00    +0.050 A 
ATOM     25  C   LIG    1        7.395  -0.025  -1.423  0.00  0.00    +0.030 A 
ATOM     26  C   LIG    1        8.594  -0.433  -0.862  0.00  0.00    -0.020 A 
ATOM     27  C   LIG    1        8.716  -0.557   0.513  0.00  0.00    +0.030 A 
ATOM     28 CL   LIG    1        9.950  -0.789  -1.885  0.00  0.00    -0.060 Cl
ATOM     29  C   LIG    1        7.644  -0.276   1.332  0.00  0.00    +0.060 A 
ENDBRANCH  22  23
ENDBRANCH   2  21
TORSDOF 4
