REMARK  Name = ZINCrH000004rHzb.0
REMARK                            x       y       z     vdW  Elec       q    Type
REMARK                         _______ _______ _______ _____ _____    ______ ____
ROOT
ATOM      1  C   LIG    1       -3.506   6.129   0.531  0.00  0.00    +0.570 C 
ATOM      2  N   LIG    1       -4.721   5.562   0.675  0.00  0.00    -0.720 N 
ATOM      3  H   LIG    1       -4.817   4.599   0.613  0.00  0.00    +0.400 HD
ATOM      4  O   LIG    1       -3.386   7.336   0.609  0.00  0.00    -0.520 OA
ENDROOT
BRANCH   1  11
ATOM      5  C   LIG    1        2.281   0.883  -0.690  0.00  0.00    +0.100 C 
ATOM      6  C   LIG    1        1.037   1.690  -0.423  0.00  0.00    -0.050 A 
ATOM      7  C   LIG    1        1.103   3.050  -0.454  0.00  0.00    +0.030 A 
ATOM      8  C   LIG    1       -0.053   3.810  -0.206  0.00  0.00    +0.160 A 
ATOM      9  N   LIG    1       -0.012   5.147  -0.231  0.00  0.00    -0.480 NA
ATOM     10  C   LIG    1       -1.077   5.873  -0.004  0.00  0.00    +0.210 A 
ATOM     11  C   LIG    1       -2.321   5.283   0.279  0.00  0.00    -0.190 A 
ATOM     12  C   LIG    1       -2.428   3.897   0.319  0.00  0.00    +0.130 A 
ATOM     13  C   LIG    1       -0.967   7.375  -0.045  0.00  0.00    +0.150 C 
ATOM     14  C   LIG    1       -1.271   3.140   0.071  0.00  0.00    -0.120 A 
ATOM     15  C   LIG    1       -1.303   1.735   0.089  0.00  0.00    +0.050 A 
ATOM     16  C   LIG    1       -0.161   1.033  -0.150  0.00  0.00    +0.010 A 
ENDBRANCH   1  11
BRANCH   2  17
ATOM     17  C   LIG    1       -5.895   6.401   0.925  0.00  0.00    +0.330 C 
BRANCH  17  18
ATOM     18  C   LIG    1       -7.119   5.529   1.046  0.00  0.00    -0.190 A 
ATOM     19  C   LIG    1       -7.504   5.029   2.283  0.00  0.00    +0.110 A 
ATOM     20  C   LIG    1       -8.633   4.233   2.350  0.00  0.00    -0.040 A 
ATOM     21  C   LIG    1       -9.340   3.962   1.183  0.00  0.00    +0.310 A 
ATOM     22  N   LIG    1       -8.940   4.457   0.022  0.00  0.00    -0.520 NA
ATOM     23  C   LIG    1       -7.871   5.224  -0.071  0.00  0.00    +0.310 A 
BRANCH  21  24
ATOM     24  N   LIG    1      -10.476   3.163   1.236  0.00  0.00    -0.460 N 
ATOM     25  C   LIG    1      -11.530   3.790   2.075  0.00  0.00    +0.190 C 
ATOM     26  C   LIG    1      -12.825   3.083   1.605  0.00  0.00    +0.040 C 
ATOM     27  C   LIG    1      -12.600   2.923   0.084  0.00  0.00    +0.020 C 
ATOM     28  C   LIG    1      -11.074   3.001  -0.107  0.00  0.00    +0.190 C 
ENDBRANCH  21  24
ENDBRANCH  17  18
ENDBRANCH   2  17
TORSDOF 4
