REMARK  Name = ZINCtV00001bB3av.0
REMARK                            x       y       z     vdW  Elec       q    Type
REMARK                         _______ _______ _______ _____ _____    ______ ____
ROOT
ATOM      1  C   LIG    1       -1.205   1.622   0.017  0.00  0.00    +0.490 A 
ATOM      2  N   LIG    1       -1.279   2.939   0.031  0.00  0.00    -0.580 NA
ATOM      3  C   LIG    1       -0.178   3.698   0.024  0.00  0.00    +0.540 A 
ATOM      4  C   LIG    1        1.147   3.045   0.007  0.00  0.00    -0.220 A 
ATOM      5  C   LIG    1        1.180   1.663  -0.000  0.00  0.00    +0.060 A 
ATOM      6  S   LIG    1        2.845   1.100  -0.019  0.00  0.00    +0.190 S 
ATOM      7  C   LIG    1        3.473   2.737  -0.016  0.00  0.00    -0.030 A 
ATOM      8  C   LIG    1        2.481   3.630  -0.002  0.00  0.00    +0.040 A 
ATOM      9  O   LIG    1       -0.267   4.916   0.032  0.00  0.00    -0.470 OA
ATOM     10  N   LIG    1       -0.011   0.966   0.007  0.00  0.00    -0.590 N 
ATOM     11  H   LIG    1        0.002  -0.004   0.002  0.00  0.00    +0.420 HD
ENDROOT
BRANCH   8  12
ATOM     12  C   LIG    1        2.717   5.089   0.003  0.00  0.00    -0.140 A 
ATOM     13  C   LIG    1        3.543   5.741   0.845  0.00  0.00    +0.020 A 
ATOM     14  C   LIG    1        3.600   7.108   0.653  0.00  0.00    +0.000 A 
ATOM     15  C   LIG    1        2.824   7.574  -0.328  0.00  0.00    -0.060 A 
ATOM     16  S   LIG    1        1.957   6.244  -1.085  0.00  0.00    +0.180 S 
ENDBRANCH   8  12
BRANCH   1  18
ATOM     17  C   LIG    1       -3.636   1.471   0.028  0.00  0.00    +0.190 C 
ATOM     18  C   LIG    1       -2.442   0.842   0.018  0.00  0.00    -0.050 C 
BRANCH  17  22
ATOM     19  C   LIG    1       -7.224  -0.792   0.031  0.00  0.00    +0.150 A 
ATOM     20  C   LIG    1       -7.281   0.597   0.040  0.00  0.00    -0.020 A 
ATOM     21  C   LIG    1       -6.119   1.336   0.039  0.00  0.00    +0.100 A 
ATOM     22  C   LIG    1       -4.880   0.686   0.029  0.00  0.00    -0.130 A 
ATOM     23  C   LIG    1       -4.828  -0.712   0.015  0.00  0.00    +0.080 A 
ATOM     24  C   LIG    1       -5.996  -1.442   0.021  0.00  0.00    -0.090 A 
BRANCH  19  25
ATOM     25  O   LIG    1       -8.373  -1.516   0.032  0.00  0.00    -0.310 OA
BRANCH  25  26
ATOM     26  C   LIG    1       -8.242  -2.939   0.022  0.00  0.00    +0.190 C 
BRANCH  26  27
ATOM     27  C   LIG    1       -9.632  -3.578   0.025  0.00  0.00    +0.040 C 
BRANCH  27  29
ATOM     28  C   LIG    1      -10.877  -5.741   0.142  0.00  0.00    +0.030 C 
ATOM     29  C   LIG    1       -9.493  -5.102   0.015  0.00  0.00    -0.020 C 
ATOM     30  C   LIG    1       -8.845  -5.546  -1.298  0.00  0.00    +0.020 C 
ENDBRANCH  27  29
ENDBRANCH  26  27
ENDBRANCH  25  26
ENDBRANCH  19  25
ENDBRANCH  17  22
ENDBRANCH   1  18
TORSDOF 7
