REMARK  Name = ZINCvU0000000C9m.0
REMARK                            x       y       z     vdW  Elec       q    Type
REMARK                         _______ _______ _______ _____ _____    ______ ____
ROOT
ATOM      1  N   LIG    1       -4.128  -6.980  -2.492  0.00  0.00    -0.480 N 
ATOM      2  C   LIG    1       -3.882  -8.287  -2.247  0.00  0.00    +0.560 A 
ATOM      3  C   LIG    1       -4.076  -8.770  -0.873  0.00  0.00    -0.200 A 
ATOM      4  C   LIG    1       -3.853 -10.101  -0.523  0.00  0.00    +0.100 A 
ATOM      5  C   LIG    1       -4.049 -10.503   0.780  0.00  0.00    +0.000 A 
ATOM      6  C   LIG    1       -4.468  -9.595   1.744  0.00  0.00    +0.070 A 
ATOM      7  C   LIG    1       -4.694  -8.277   1.421  0.00  0.00    +0.030 A 
ATOM      8  C   LIG    1       -4.502  -7.843   0.106  0.00  0.00    +0.160 A 
ATOM      9  N   LIG    1       -4.714  -6.555  -0.252  0.00  0.00    -0.530 NA
ATOM     10  O   LIG    1       -3.516  -9.038  -3.133  0.00  0.00    -0.490 OA
ATOM     11  C   LIG    1       -4.533  -6.148  -1.484  0.00  0.00    +0.370 A 
ENDROOT
BRANCH   1  15
ATOM     12  C   LIG    1       -3.633  -5.470  -6.345  0.00  0.00    -0.060 A 
ATOM     13  C   LIG    1       -4.859  -5.976  -5.955  0.00  0.00    +0.020 A 
ATOM     14  C   LIG    1       -5.026  -6.477  -4.678  0.00  0.00    +0.050 A 
ATOM     15  C   LIG    1       -3.962  -6.472  -3.787  0.00  0.00    +0.080 A 
ATOM     16  C   LIG    1       -2.733  -5.958  -4.180  0.00  0.00    +0.050 A 
ATOM     17  C   LIG    1       -2.571  -5.464  -5.460  0.00  0.00    +0.020 A 
BRANCH  12  19
ATOM     18  C   LIG    1       -3.786  -3.432  -7.748  0.00  0.00    +0.030 C 
ATOM     19  C   LIG    1       -3.454  -4.925  -7.739  0.00  0.00    +0.070 C 
ENDBRANCH  12  19
ENDBRANCH   1  15
BRANCH  11  20
ATOM     20  S   LIG    1       -4.833  -4.454  -1.862  0.00  0.00    +0.050 S 
BRANCH  20  21
ATOM     21  C   LIG    1       -5.330  -3.851  -0.230  0.00  0.00    +0.270 C 
BRANCH  21  22
ATOM     22  C   LIG    1       -5.645  -2.379  -0.312  0.00  0.00    +0.170 A 
ATOM     23  N   LIG    1       -6.809  -1.855  -0.576  0.00  0.00    -0.250 NA
ATOM     24  N   LIG    1       -6.716  -0.572  -0.566  0.00  0.00    -0.260 NA
ATOM     25  C   LIG    1       -5.476  -0.229  -0.292  0.00  0.00    +0.260 A 
ATOM     26  O   LIG    1       -4.774  -1.370  -0.132  0.00  0.00    -0.210 OA
BRANCH  25  27
ATOM     27  C   LIG    1       -4.953   1.141  -0.186  0.00  0.00    -0.160 A 
ATOM     28  C   LIG    1       -5.682   2.278  -0.357  0.00  0.00    +0.110 A 
ATOM     29  C   LIG    1       -4.963   3.443  -0.207  0.00  0.00    +0.020 A 
ATOM     30  C   LIG    1       -3.668   3.280   0.082  0.00  0.00    -0.010 A 
ATOM     31  S   LIG    1       -3.286   1.567   0.181  0.00  0.00    +0.180 S 
ENDBRANCH  25  27
ENDBRANCH  21  22
ENDBRANCH  20  21
ENDBRANCH  11  20
TORSDOF 6
