REMARK  Name = ZINCvU0000000EgN.0
REMARK                            x       y       z     vdW  Elec       q    Type
REMARK                         _______ _______ _______ _____ _____    ______ ____
ROOT
ATOM      1  C   LIG    1       -8.849   2.145   1.583  0.00  0.00    +0.040 C 
ATOM      2  C   LIG    1       -8.441   1.884   0.131  0.00  0.00    +0.300 C 
ENDROOT
BRANCH   2   3
ATOM      3  C   LIG    1       -7.099   1.198   0.102  0.00  0.00    -0.080 A 
ATOM      4  C   LIG    1       -6.261   1.274   1.199  0.00  0.00    +0.000 A 
ATOM      5  C   LIG    1       -5.029   0.646   1.176  0.00  0.00    +0.030 A 
ATOM      6  C   LIG    1       -4.635  -0.065   0.059  0.00  0.00    -0.010 A 
ATOM      7  C   LIG    1       -5.473  -0.139  -1.046  0.00  0.00    +0.140 A 
ATOM      8  C   LIG    1       -6.709   0.493  -1.020  0.00  0.00    +0.040 A 
BRANCH   7   9
ATOM      9  N   LIG    1       -5.074  -0.853  -2.181  0.00  0.00    -0.670 N 
ATOM     10  H   LIG    1       -4.545  -1.660  -2.085  0.00  0.00    +0.410 HD
ATOM     11  C   LIG    1       -5.426  -0.419  -3.407  0.00  0.00    +0.560 C 
ATOM     12  O   LIG    1       -6.151   0.549  -3.525  0.00  0.00    -0.510 OA
BRANCH  11  13
ATOM     13  C   LIG    1       -4.931  -1.122  -4.610  0.00  0.00    -0.140 A 
ATOM     14  C   LIG    1       -5.293  -0.676  -5.882  0.00  0.00    +0.080 A 
ATOM     15  C   LIG    1       -4.822  -1.333  -7.000  0.00  0.00    +0.000 A 
ATOM     16  C   LIG    1       -3.998  -2.435  -6.862  0.00  0.00    +0.040 A 
ATOM     17  C   LIG    1       -3.639  -2.886  -5.604  0.00  0.00    +0.000 A 
ATOM     18  C   LIG    1       -4.103  -2.238  -4.478  0.00  0.00    +0.040 A 
ENDBRANCH  11  13
ENDBRANCH   7   9
ENDBRANCH   2   3
BRANCH   2  19
ATOM     19  N   LIG    1       -9.441   1.028  -0.511  0.00  0.00    -0.590 N 
ATOM     20  C   LIG    1      -10.178   1.504  -1.534  0.00  0.00    +0.570 C 
ATOM     21  O   LIG    1       -9.960   2.615  -1.975  0.00  0.00    -0.530 OA
ATOM     22  C   LIG    1       -9.641  -0.345  -0.041  0.00  0.00    +0.300 C 
BRANCH  20  23
ATOM     23  C   LIG    1      -11.255   0.672  -2.122  0.00  0.00    +0.120 A 
ATOM     24  N   LIG    1      -11.543  -0.492  -1.573  0.00  0.00    -0.440 NA
ATOM     25  C   LIG    1      -12.506  -1.270  -2.064  0.00  0.00    +0.120 A 
ATOM     26  C   LIG    1      -12.811  -2.509  -1.469  0.00  0.00    +0.050 A 
ATOM     27  C   LIG    1      -13.796  -3.286  -1.995  0.00  0.00    +0.030 A 
ATOM     28  C   LIG    1      -14.514  -2.876  -3.118  0.00  0.00    +0.020 A 
ATOM     29  C   LIG    1      -14.247  -1.686  -3.722  0.00  0.00    +0.030 A 
ATOM     30  C   LIG    1      -13.238  -0.856  -3.208  0.00  0.00    -0.090 A 
ATOM     31  C   LIG    1      -12.935   0.382  -3.804  0.00  0.00    +0.090 A 
ATOM     32  C   LIG    1      -11.941   1.139  -3.253  0.00  0.00    +0.030 A 
ENDBRANCH  20  23
ENDBRANCH   2  19
TORSDOF 5
