REMARK  Name = ZINCpk00000eau5W.0
REMARK                            x       y       z     vdW  Elec       q    Type
REMARK                         _______ _______ _______ _____ _____    ______ ____
ROOT
ATOM      1  C   LIG    1       -3.211  -0.588   1.446  0.00  0.00    +0.510 C 
ATOM      2  N   LIG    1       -3.653  -1.838   1.689  0.00  0.00    -0.610 N 
ATOM      3  C   LIG    1       -4.099  -2.697   0.566  0.00  0.00    +0.280 C 
ATOM      4  C   LIG    1       -3.053  -3.685   0.239  0.00  0.00    -0.000 C 
ATOM      5  C   LIG    1       -2.704  -4.571   1.446  0.00  0.00    +0.290 C 
ATOM      6  N   LIG    1       -1.846  -3.818   2.315  0.00  0.00    -0.990 NA
ATOM      7  C   LIG    1       -2.376  -3.024   3.457  0.00  0.00    +0.270 C 
ATOM      8  C   LIG    1       -3.697  -2.334   3.036  0.00  0.00    +0.280 C 
ATOM      9  O   LIG    1       -2.851   0.117   2.364  0.00  0.00    -0.520 OA
ENDROOT
BRANCH   6  10
ATOM     10  S   LIG    1       -0.214  -3.831   2.037  0.00  0.00    +2.600 S 
ATOM     11  O   LIG    1        0.245  -2.603   2.587  0.00  0.00    -0.950 OA
ATOM     12  O   LIG    1       -0.097  -4.100   0.647  0.00  0.00    -0.950 OA
ATOM     13  C   LIG    1        0.400  -5.233   3.011  0.00  0.00    -0.290 C 
ENDBRANCH   6  10
BRANCH   1  14
ATOM     14  C   LIG    1       -3.165  -0.067   0.033  0.00  0.00    +0.140 C 
BRANCH  14  19
ATOM     15  C   LIG    1        1.148   3.169   0.008  0.00  0.00    +0.150 A 
ATOM     16  C   LIG    1        1.161   1.778   0.001  0.00  0.00    -0.070 A 
ATOM     17  C   LIG    1       -0.013   1.076   0.008  0.00  0.00    +0.110 A 
ATOM     18  C   LIG    1       -1.228   1.758   0.017  0.00  0.00    -0.150 A 
ATOM     19  C   LIG    1       -2.636   1.344   0.035  0.00  0.00    -0.150 A 
ATOM     20  C   LIG    1       -3.358   2.473   0.048  0.00  0.00    +0.220 A 
ATOM     21  O   LIG    1       -2.543   3.544   0.046  0.00  0.00    -0.190 OA
ATOM     22  C   LIG    1       -1.250   3.164   0.030  0.00  0.00    +0.090 A 
ATOM     23  C   LIG    1       -0.050   3.862   0.023  0.00  0.00    -0.010 A 
BRANCH  15  25
ATOM     24  C   LIG    1        3.524   3.080  -0.015  0.00  0.00    +0.250 C 
ATOM     25  O   LIG    1        2.322   3.854   0.000  0.00  0.00    -0.310 OA
ENDBRANCH  15  25
ENDBRANCH  14  19
ENDBRANCH   1  14
TORSDOF 4
