REMARK  Name = ZINCpe000000YTQi.0
REMARK                            x       y       z     vdW  Elec       q    Type
REMARK                         _______ _______ _______ _____ _____    ______ ____
ROOT
ATOM      1  N   LIG    1       -1.999   1.336  -3.704  0.00  0.00    -0.520 NA
ATOM      2  C   LIG    1       -0.802   2.155  -3.466  0.00  0.00    +0.190 C 
ATOM      3  C   LIG    1       -0.036   1.597  -2.264  0.00  0.00    +0.190 C 
ATOM      4  N   LIG    1       -0.913   1.596  -1.085  0.00  0.00    -0.520 NA
ATOM      5  C   LIG    1       -2.110   0.777  -1.323  0.00  0.00    +0.190 C 
ATOM      6  C   LIG    1       -2.876   1.335  -2.524  0.00  0.00    +0.190 C 
ENDROOT
BRANCH   1   7
ATOM      7  C   LIG    1       -2.723   1.794  -4.897  0.00  0.00    +0.210 C 
BRANCH   7   9
ATOM      8  O   LIG    1       -0.835   0.939  -6.026  0.00  0.00    -0.520 OA
ATOM      9  C   LIG    1       -1.879   1.548  -6.121  0.00  0.00    +0.510 C 
ATOM     10  N   LIG    1       -2.285   2.005  -7.322  0.00  0.00    -0.740 N 
ATOM     11  H   LIG    1       -3.120   2.493  -7.399  0.00  0.00    +0.400 HD
BRANCH  10  12
ATOM     12  C   LIG    1       -1.465   1.766  -8.512  0.00  0.00    +0.270 C 
BRANCH  12  13
ATOM     13  C   LIG    1       -2.147   2.384  -9.735  0.00  0.00    +0.050 C 
BRANCH  13  14
ATOM     14  C   LIG    1       -1.304   2.137 -10.959  0.00  0.00    -0.120 C 
ATOM     15  C   LIG    1       -1.581   1.106 -11.690  0.00  0.00    -0.050 C 
ATOM     16  C   LIG    1       -0.829   0.729 -12.932  0.00  0.00    +0.050 C 
ATOM     17  C   LIG    1        0.000   1.915 -13.428  0.00  0.00    +0.010 C 
ATOM     18  C   LIG    1        0.795   2.480 -12.244  0.00  0.00    +0.010 C 
ATOM     19  C   LIG    1       -0.191   3.100 -11.252  0.00  0.00    +0.060 C 
ENDBRANCH  13  14
ENDBRANCH  12  13
ENDBRANCH  10  12
ENDBRANCH   7   9
ENDBRANCH   1   7
BRANCH   4  20
ATOM     20  C   LIG    1       -0.190   1.137   0.109  0.00  0.00    +0.220 C 
BRANCH  20  21
ATOM     21  C   LIG    1       -1.035   1.379   1.333  0.00  0.00    +0.520 C 
ATOM     22  N   LIG    1       -0.572   1.035   2.550  0.00  0.00    -0.710 N 
ATOM     23  H   LIG    1        0.306   0.631   2.639  0.00  0.00    +0.400 HD
ATOM     24  O   LIG    1       -2.132   1.884   1.222  0.00  0.00    -0.520 OA
BRANCH  22  25
ATOM     25  C   LIG    1       -1.393   1.270   3.740  0.00  0.00    +0.220 C 
ATOM     26  C   LIG    1       -0.701   1.855   4.973  0.00  0.00    +0.010 C 
ATOM     27  C   LIG    1       -1.136   0.387   4.963  0.00  0.00    +0.010 C 
ENDBRANCH  22  25
ENDBRANCH  20  21
ENDBRANCH   4  20
TORSDOF 8
