REMARK  Name = ZINCrH000004v9JJ.0
REMARK                            x       y       z     vdW  Elec       q    Type
REMARK                         _______ _______ _______ _____ _____    ______ ____
ROOT
ATOM      1  O   LIG    1       -0.267   3.503   0.487  0.00  0.00    -0.510 OA
ATOM      2  C   LIG    1        0.798   3.000   0.190  0.00  0.00    +0.560 C 
ATOM      3  N   LIG    1        1.865   3.782  -0.068  0.00  0.00    -0.670 N 
ATOM      4  H   LIG    1        2.696   3.384  -0.371  0.00  0.00    +0.420 HD
ENDROOT
BRANCH   3   5
ATOM      5  C   LIG    1        1.773   5.169   0.100  0.00  0.00    +0.170 A 
ATOM      6  C   LIG    1        2.866   5.886   0.566  0.00  0.00    +0.030 A 
ATOM      7  C   LIG    1        2.777   7.255   0.733  0.00  0.00    +0.090 A 
ATOM      8  C   LIG    1        1.596   7.916   0.435  0.00  0.00    +0.010 A 
ATOM      9  O   LIG    1        1.255   9.236   0.510  0.00  0.00    -0.290 OA
ATOM     10  C   LIG    1       -0.184   9.264   0.475  0.00  0.00    +0.570 C 
ATOM     11  O   LIG    1       -0.531   8.070  -0.251  0.00  0.00    -0.280 OA
ATOM     12  F   LIG    1       -0.637  10.403  -0.201  0.00  0.00    -0.120 F 
ATOM     13  F   LIG    1       -0.709   9.223   1.771  0.00  0.00    -0.150 F 
ATOM     14  C   LIG    1        0.497   7.199  -0.033  0.00  0.00    +0.050 A 
ATOM     15  C   LIG    1        0.589   5.828  -0.205  0.00  0.00    +0.070 A 
ENDBRANCH   3   5
BRANCH   2  16
ATOM     16  C   LIG    1        0.925   1.529   0.112  0.00  0.00    -0.120 A 
ATOM     17  C   LIG    1        2.147   0.948  -0.229  0.00  0.00    +0.020 A 
ATOM     18  C   LIG    1        2.262  -0.426  -0.301  0.00  0.00    +0.040 A 
ATOM     19  C   LIG    1        1.170  -1.230  -0.037  0.00  0.00    +0.010 A 
ATOM     20  C   LIG    1       -0.052  -0.662   0.304  0.00  0.00    +0.160 A 
ATOM     21  C   LIG    1       -0.178   0.717   0.380  0.00  0.00    +0.100 A 
BRANCH  20  22
ATOM     22  N   LIG    1       -1.153  -1.480   0.571  0.00  0.00    -0.640 N 
ATOM     23  H   LIG    1       -1.262  -2.319   0.095  0.00  0.00    +0.430 HD
BRANCH  22  24
ATOM     24  C   LIG    1       -2.090  -1.095   1.516  0.00  0.00    +0.550 A 
ATOM     25  N   LIG    1       -1.869  -0.007   2.240  0.00  0.00    -0.550 NA
ATOM     26  C   LIG    1       -2.745   0.392   3.146  0.00  0.00    +0.360 A 
ATOM     27  C   LIG    1       -3.901  -0.348   3.341  0.00  0.00    -0.130 A 
ATOM     28  C   LIG    1       -4.098  -1.484   2.571  0.00  0.00    +0.360 A 
ATOM     29  N   LIG    1       -3.184  -1.825   1.678  0.00  0.00    -0.560 NA
ENDBRANCH  22  24
ENDBRANCH  20  22
ENDBRANCH   2  16
TORSDOF 4
