REMARK  Name = ZINCqH00000h28ul.0
REMARK                            x       y       z     vdW  Elec       q    Type
REMARK                         _______ _______ _______ _____ _____    ______ ____
ROOT
ATOM      1  C   LIG    1        1.012   1.397   0.191  0.00  0.00    +0.170 C 
ATOM      2  C   LIG    1        0.701  -0.076   0.125  0.00  0.00    +0.110 A 
ATOM      3  N   LIG    1        0.182  -0.790   1.094  0.00  0.00    -0.300 NA
ATOM      4  N   LIG    1        0.042  -2.113   0.656  0.00  0.00    -0.340 N 
ATOM      5  C   LIG    1        0.501  -2.179  -0.631  0.00  0.00    +0.300 A 
ATOM      6  N   LIG    1        0.498  -3.328  -1.331  0.00  0.00    -0.540 NA
ATOM      7  C   LIG    1        0.053  -4.455  -0.820  0.00  0.00    +0.480 A 
ATOM      8  C   LIG    1       -0.455  -4.459   0.559  0.00  0.00    -0.150 A 
ATOM      9  C   LIG    1       -0.941  -5.621   1.158  0.00  0.00    +0.080 A 
ATOM     10  C   LIG    1       -1.407  -5.572   2.454  0.00  0.00    +0.000 A 
ATOM     11  C   LIG    1       -1.396  -4.379   3.162  0.00  0.00    +0.080 A 
ATOM     12  C   LIG    1       -0.918  -3.222   2.582  0.00  0.00    +0.020 A 
ATOM     13  C   LIG    1       -0.446  -3.250   1.278  0.00  0.00    +0.210 A 
ATOM     14  C   LIG    1        0.913  -0.898  -0.975  0.00  0.00    -0.100 A 
ENDROOT
BRANCH   7  15
ATOM     15  N   LIG    1        0.065  -5.616  -1.566  0.00  0.00    -0.590 N 
ATOM     16  C   LIG    1        0.199  -6.914  -0.900  0.00  0.00    +0.310 C 
BRANCH  15  17
ATOM     17  C   LIG    1       -0.057  -5.550  -3.025  0.00  0.00    +0.370 C 
BRANCH  17  18
ATOM     18  C   LIG    1        1.314  -5.441  -3.639  0.00  0.00    -0.110 A 
ATOM     19  C   LIG    1        1.872  -4.197  -3.867  0.00  0.00    +0.120 A 
ATOM     20  C   LIG    1        3.132  -4.096  -4.427  0.00  0.00    +0.030 A 
ATOM     21  C   LIG    1        3.830  -5.239  -4.768  0.00  0.00    +0.100 A 
ATOM     22  C   LIG    1        3.270  -6.483  -4.544  0.00  0.00    -0.050 A 
ATOM     23  C   LIG    1        2.012  -6.584  -3.981  0.00  0.00    +0.110 A 
BRANCH  22  24
ATOM     24  N   LIG    1        4.018  -7.707  -4.909  0.00  0.00    +0.030 N 
ATOM     25  O   LIG    1        5.127  -7.619  -5.406  0.00  0.00    -0.160 OA
ATOM     26  O   LIG    1        3.525  -8.803  -4.713  0.00  0.00    -0.160 OA
ENDBRANCH  22  24
ENDBRANCH  17  18
ENDBRANCH  15  17
ENDBRANCH   7  15
TORSDOF 4
