REMARK  Name = ZINCtV000002zUjU.0
REMARK                            x       y       z     vdW  Elec       q    Type
REMARK                         _______ _______ _______ _____ _____    ______ ____
ROOT
ATOM      1  S   LIG    1       -1.101   3.037   1.564  0.00  0.00    -0.170 S 
ENDROOT
BRANCH   1   2
ATOM      2  C   LIG    1       -2.628   4.007   1.692  0.00  0.00    +0.070 C 
BRANCH   2   3
ATOM      3  C   LIG    1       -2.589   4.842   2.946  0.00  0.00    +0.450 C 
ATOM      4  O   LIG    1       -1.625   4.788   3.681  0.00  0.00    -0.450 OA
BRANCH   3   8
ATOM      5  N   LIG    1       -5.016   7.176   4.307  0.00  0.00    -0.430 N 
ATOM      6  C   LIG    1       -5.691   6.796   3.183  0.00  0.00    +0.010 A 
ATOM      7  C   LIG    1       -4.950   5.903   2.505  0.00  0.00    +0.000 A 
ATOM      8  C   LIG    1       -3.715   5.719   3.277  0.00  0.00    -0.260 A 
ATOM      9  C   LIG    1       -7.051   7.297   2.769  0.00  0.00    +0.130 C 
ATOM     10  C   LIG    1       -3.835   6.538   4.384  0.00  0.00    +0.120 A 
ATOM     11  C   LIG    1       -2.817   6.692   5.485  0.00  0.00    +0.150 C 
BRANCH   5  12
ATOM     12  C   LIG    1       -5.512   8.138   5.294  0.00  0.00    +0.300 C 
BRANCH  12  13
ATOM     13  C   LIG    1       -6.306   7.399   6.373  0.00  0.00    +0.170 C 
BRANCH  13  15
ATOM     14  C   LIG    1       -7.549   7.747   8.393  0.00  0.00    +0.210 C 
ATOM     15  O   LIG    1       -6.790   8.337   7.336  0.00  0.00    -0.390 OA
ENDBRANCH  13  15
ENDBRANCH  12  13
ENDBRANCH   5  12
ENDBRANCH   3   8
ENDBRANCH   2   3
ENDBRANCH   1   2
BRANCH   1  16
ATOM     16  C   LIG    1       -1.332   2.114   0.020  0.00  0.00    +0.110 C 
BRANCH  16  17
ATOM     17  C   LIG    1       -0.185   1.155  -0.169  0.00  0.00    -0.060 A 
ATOM     18  C   LIG    1       -0.435  -0.181  -0.422  0.00  0.00    +0.040 A 
ATOM     19  C   LIG    1        0.617  -1.061  -0.590  0.00  0.00    +0.030 A 
ATOM     20  C   LIG    1        1.921  -0.606  -0.505  0.00  0.00    -0.030 A 
ATOM     21  C   LIG    1        2.171   0.731  -0.252  0.00  0.00    +0.030 A 
ATOM     22 CL   LIG    1        3.243  -1.711  -0.716  0.00  0.00    -0.070 Cl
ATOM     23  C   LIG    1        1.118   1.611  -0.084  0.00  0.00    +0.050 A 
ENDBRANCH  16  17
BRANCH  16  24
ATOM     24  C   LIG    1       -1.378   3.076  -1.139  0.00  0.00    -0.090 A 
ATOM     25  C   LIG    1       -0.380   4.019  -1.294  0.00  0.00    +0.030 A 
ATOM     26  C   LIG    1       -0.420   4.900  -2.359  0.00  0.00    +0.000 A 
ATOM     27  C   LIG    1       -1.463   4.843  -3.264  0.00  0.00    +0.000 A 
ATOM     28  C   LIG    1       -2.465   3.903  -3.105  0.00  0.00    +0.000 A 
ATOM     29  C   LIG    1       -2.422   3.020  -2.043  0.00  0.00    +0.010 A 
ENDBRANCH  16  24
ENDBRANCH   1  16
TORSDOF 9
