REMARK  Name = ZINCpe00000MJLhW.2
REMARK                            x       y       z     vdW  Elec       q    Type
REMARK                         _______ _______ _______ _____ _____    ______ ____
ROOT
ATOM      1  C   LIG    1        5.084  -3.652   0.780  0.00  0.00    +0.070 C 
ATOM      2  C   LIG    1        3.996  -4.715   0.612  0.00  0.00    +0.130 C 
ENDROOT
BRANCH   2   3
ATOM      3  C   LIG    1        2.649  -4.045   0.526  0.00  0.00    +0.520 C 
ATOM      4  N   LIG    1        2.164  -3.655  -0.669  0.00  0.00    -0.620 N 
ATOM      5  C   LIG    1        2.985  -3.768  -1.882  0.00  0.00    +0.260 C 
ATOM      6  C   LIG    1        3.032  -2.402  -2.575  0.00  0.00    +0.020 C 
ATOM      7  C   LIG    1        1.604  -1.912  -2.825  0.00  0.00    +0.030 C 
ATOM      8  C   LIG    1        0.876  -1.752  -1.489  0.00  0.00    -0.020 C 
ATOM      9  C   LIG    1        0.804  -3.111  -0.784  0.00  0.00    +0.310 C 
ATOM     10  O   LIG    1        2.001  -3.857   1.534  0.00  0.00    -0.510 OA
BRANCH   8  11
ATOM     11  C   LIG    1       -0.520  -1.240  -1.735  0.00  0.00    +0.520 C 
ATOM     12  O   LIG    1       -1.478  -1.894  -1.381  0.00  0.00    -0.540 OA
ATOM     13  N   LIG    1       -0.704  -0.053  -2.348  0.00  0.00    -0.850 N 
ATOM     14  H   LIG    1       -1.602   0.275  -2.510  0.00  0.00    +0.400 HD
ATOM     15  H   LIG    1        0.062   0.470  -2.631  0.00  0.00    +0.400 HD
ENDBRANCH   8  11
ENDBRANCH   2   3
BRANCH   2  16
ATOM     16  N   LIG    1        4.018  -5.625   1.764  0.00  0.00    -0.510 NA
ATOM     17  C   LIG    1        5.397  -5.939   2.160  0.00  0.00    +0.190 C 
ATOM     18  C   LIG    1        5.384  -6.768   3.447  0.00  0.00    +0.020 C 
ATOM     19  C   LIG    1        4.595  -8.059   3.208  0.00  0.00    +0.010 C 
ATOM     20  C   LIG    1        3.178  -7.704   2.750  0.00  0.00    +0.030 C 
ATOM     21  C   LIG    1        3.255  -6.848   1.484  0.00  0.00    +0.140 C 
BRANCH  21  22
ATOM     22  C   LIG    1        1.842  -6.475   1.033  0.00  0.00    +0.330 C 
BRANCH  22  23
ATOM     23  N   LIG    1        1.074  -7.695   0.772  0.00  0.00    -0.370 N 
ATOM     24  C   LIG    1       -0.091  -8.041   1.359  0.00  0.00    +0.230 A 
ATOM     25  C   LIG    1       -0.474  -9.232   0.844  0.00  0.00    -0.130 A 
ATOM     26  C   LIG    1        0.495  -9.633  -0.083  0.00  0.00    +0.220 A 
ATOM     27  N   LIG    1        1.423  -8.712  -0.126  0.00  0.00    -0.300 NA
ENDBRANCH  22  23
ENDBRANCH  21  22
ENDBRANCH   2  16
TORSDOF 5
