REMARK  Name = ZINCvU0000000C9Z.0
REMARK                            x       y       z     vdW  Elec       q    Type
REMARK                         _______ _______ _______ _____ _____    ______ ____
ROOT
ATOM      1  C   LIG    1      -10.074   0.430  -0.246  0.00  0.00    -0.100 A 
ATOM      2  C   LIG    1       -9.027  -0.473  -0.263  0.00  0.00    +0.040 A 
ATOM      3  C   LIG    1       -7.724  -0.023  -0.182  0.00  0.00    -0.090 A 
ATOM      4  C   LIG    1       -7.466   1.336  -0.071  0.00  0.00    +0.130 A 
ATOM      5  C   LIG    1       -8.518   2.240  -0.054  0.00  0.00    -0.090 A 
ATOM      6  C   LIG    1       -9.819   1.785  -0.142  0.00  0.00    +0.050 A 
ENDROOT
BRANCH   1   7
ATOM      7  C   LIG    1      -11.495  -0.063  -0.342  0.00  0.00    -0.020 C 
ATOM      8  C   LIG    1      -12.160   0.535  -1.583  0.00  0.00    +0.040 C 
ATOM      9  C   LIG    1      -12.268   0.363   0.908  0.00  0.00    +0.040 C 
BRANCH   7  11
ATOM     10  C   LIG    1      -12.941  -2.091  -0.544  0.00  0.00    +0.010 C 
ATOM     11  C   LIG    1      -11.499  -1.590  -0.448  0.00  0.00    +0.000 C 
ENDBRANCH   7  11
ENDBRANCH   1   7
BRANCH   5  12
ATOM     12  C   LIG    1       -8.242   3.717   0.060  0.00  0.00    -0.010 C 
ATOM     13  C   LIG    1       -7.497   3.997   1.367  0.00  0.00    +0.030 C 
ATOM     14  C   LIG    1       -9.564   4.486   0.052  0.00  0.00    +0.030 C 
BRANCH  12  15
ATOM     15  C   LIG    1       -7.382   4.168  -1.123  0.00  0.00    +0.030 C 
ATOM     16  C   LIG    1       -8.109   3.851  -2.431  0.00  0.00    +0.000 C 
ENDBRANCH  12  15
ENDBRANCH   5  12
BRANCH   4  17
ATOM     17  O   LIG    1       -6.185   1.781   0.016  0.00  0.00    -0.300 OA
BRANCH  17  18
ATOM     18  C   LIG    1       -5.152   0.793  -0.008  0.00  0.00    +0.180 C 
BRANCH  18  19
ATOM     19  C   LIG    1       -3.788   1.479   0.099  0.00  0.00    +0.070 C 
BRANCH  19  20
ATOM     20  C   LIG    1       -2.683   0.421   0.074  0.00  0.00    +0.070 C 
BRANCH  20  21
ATOM     21  C   LIG    1       -1.340   1.096   0.179  0.00  0.00    +0.530 C 
ATOM     22  N   LIG    1       -0.212   0.358   0.177  0.00  0.00    -0.590 N 
ATOM     23  H   LIG    1       -0.265  -0.608   0.107  0.00  0.00    +0.390 HD
ATOM     24  O   LIG    1       -1.273   2.305   0.266  0.00  0.00    -0.490 OA
BRANCH  22  25
ATOM     25  N   LIG    1        1.037   0.986   0.269  0.00  0.00    -0.230 NA
ATOM     26  C   LIG    1        2.122   0.275   0.261  0.00  0.00    +0.230 C 
BRANCH  26  27
ATOM     27  C   LIG    1        3.437   0.937   0.358  0.00  0.00    -0.110 A 
ATOM     28  C   LIG    1        4.617   0.181   0.357  0.00  0.00    +0.090 A 
ATOM     29  C   LIG    1        5.824   0.850   0.444  0.00  0.00    -0.040 A 
ATOM     30  C   LIG    1        5.829   2.230   0.541  0.00  0.00    +0.270 A 
ATOM     31  N   LIG    1        4.702   2.917   0.545  0.00  0.00    -0.490 NA
ATOM     32  C   LIG    1        3.528   2.327   0.459  0.00  0.00    +0.310 A 
ENDBRANCH  26  27
ENDBRANCH  22  25
ENDBRANCH  20  21
ENDBRANCH  19  20
ENDBRANCH  18  19
ENDBRANCH  17  18
ENDBRANCH   4  17
TORSDOF 11
