REMARK  Name = ZINCpe000000YfTp.0
REMARK                            x       y       z     vdW  Elec       q    Type
REMARK                         _______ _______ _______ _____ _____    ______ ____
ROOT
ATOM      1  C   LIG    1        1.302  -2.147  -0.022  0.00  0.00    +0.580 C 
ATOM      2  N   LIG    1        0.164  -2.863   0.086  0.00  0.00    -0.600 N 
ATOM      3  C   LIG    1       -1.143  -2.192   0.110  0.00  0.00    +0.270 C 
ATOM      4  C   LIG    1       -1.913  -2.647   1.348  0.00  0.00    +0.030 C 
ATOM      5  C   LIG    1       -1.990  -4.175   1.364  0.00  0.00    +0.060 C 
ATOM      6  C   LIG    1       -0.577  -4.759   1.431  0.00  0.00    -0.470 C 
ATOM      7  C   LIG    1        0.208  -4.328   0.189  0.00  0.00    +0.330 C 
ATOM      8  O   LIG    1        2.370  -2.717  -0.132  0.00  0.00    -0.520 OA
ENDROOT
BRANCH   1  12
ATOM      9  C   LIG    1        0.762   2.046   2.460  0.00  0.00    +0.320 C 
ATOM     10  N   LIG    1        0.990   1.348   1.192  0.00  0.00    -0.490 N 
ATOM     11  C   LIG    1        1.036   0.003   1.175  0.00  0.00    +0.340 A 
ATOM     12  C   LIG    1        1.250  -0.674  -0.009  0.00  0.00    -0.240 A 
ATOM     13  C   LIG    1        1.420   0.057  -1.209  0.00  0.00    +0.150 A 
ATOM     14  C   LIG    1        1.368   1.415  -1.167  0.00  0.00    -0.070 A 
ATOM     15  C   LIG    1        1.148   2.063   0.063  0.00  0.00    +0.510 A 
ATOM     16  O   LIG    1        1.100   3.281   0.106  0.00  0.00    -0.540 OA
ENDBRANCH   1  12
BRANCH   6  17
ATOM     17  S   LIG    1       -0.672  -6.569   1.490  0.00  0.00    +2.610 S 
ATOM     18  O   LIG    1       -1.149  -7.084   0.255  0.00  0.00    -0.950 OA
ATOM     19  O   LIG    1       -1.225  -7.000   2.726  0.00  0.00    -0.950 OA
BRANCH  17  20
ATOM     20  N   LIG    1        0.907  -7.064   1.555  0.00  0.00    -1.110 NA
ATOM     21  H   LIG    1        1.287  -7.573   0.822  0.00  0.00    +0.420 HD
BRANCH  20  22
ATOM     22  C   LIG    1        1.732  -6.732   2.720  0.00  0.00    +0.240 C 
ATOM     23  C   LIG    1        2.577  -5.474   2.428  0.00  0.00    +0.000 C 
ATOM     24  C   LIG    1        3.929  -5.756   3.130  0.00  0.00    +0.020 C 
ATOM     25  C   LIG    1        4.138  -7.270   2.878  0.00  0.00    +0.010 C 
ATOM     26  C   LIG    1        2.724  -7.873   3.006  0.00  0.00    +0.030 C 
ENDBRANCH  20  22
ENDBRANCH  17  20
ENDBRANCH   6  17
TORSDOF 4
