REMARK  Name = ZINCpe000000W2Qn.0
REMARK                            x       y       z     vdW  Elec       q    Type
REMARK                         _______ _______ _______ _____ _____    ______ ____
ROOT
ATOM      1  N   LIG    1        0.147   2.989  -1.061  0.00  0.00    -0.720 N 
ATOM      2  H   LIG    1       -0.508   3.675  -0.862  0.00  0.00    +0.400 HD
ATOM      3  C   LIG    1        0.475   2.721  -2.341  0.00  0.00    +0.720 C 
ATOM      4  N   LIG    1       -0.108   3.407  -3.344  0.00  0.00    -0.680 N 
ATOM      5  H   LIG    1       -0.812   4.045  -3.149  0.00  0.00    +0.410 HD
ATOM      6  O   LIG    1        1.297   1.861  -2.591  0.00  0.00    -0.560 OA
ENDROOT
BRANCH   4   7
ATOM      7  C   LIG    1        0.301   3.200  -4.662  0.00  0.00    +0.210 A 
ATOM      8  C   LIG    1        1.623   2.873  -4.955  0.00  0.00    +0.000 A 
ATOM      9  C   LIG    1        1.992   2.670  -6.273  0.00  0.00    +0.280 A 
ATOM     10  N   LIG    1        1.117   2.791  -7.248  0.00  0.00    -0.470 NA
ATOM     11  C   LIG    1       -0.152   3.106  -7.015  0.00  0.00    +0.100 A 
ATOM     12  C   LIG    1       -0.601   3.321  -5.717  0.00  0.00    +0.010 A 
BRANCH  11  13
ATOM     13  C   LIG    1       -1.098   3.230  -8.149  0.00  0.00    +0.570 C 
ATOM     14  N   LIG    1       -0.646   3.143  -9.416  0.00  0.00    -0.600 N 
ATOM     15  C   LIG    1        0.793   3.048  -9.676  0.00  0.00    +0.300 C 
ATOM     16  C   LIG    1       -1.593   3.142 -10.533  0.00  0.00    +0.290 C 
ATOM     17  O   LIG    1       -2.280   3.410  -7.937  0.00  0.00    -0.540 OA
ENDBRANCH  11  13
ENDBRANCH   4   7
BRANCH   1  18
ATOM     18  C   LIG    1        0.781   2.243   0.029  0.00  0.00    +0.220 C 
ATOM     19  C   LIG    1        2.295   2.459  -0.018  0.00  0.00    +0.060 C 
BRANCH  18  20
ATOM     20  C   LIG    1        0.475   0.752  -0.128  0.00  0.00    +0.190 C 
BRANCH  20  22
ATOM     21  C   LIG    1       -1.336  -0.803  -0.349  0.00  0.00    +0.210 C 
ATOM     22  O   LIG    1       -0.940   0.562  -0.201  0.00  0.00    -0.390 OA
ENDBRANCH  20  22
ENDBRANCH  18  20
BRANCH  18  23
ATOM     23  C   LIG    1        0.237   2.737   1.370  0.00  0.00    +0.120 C 
BRANCH  23  24
ATOM     24  C   LIG    1        0.889   1.970   2.491  0.00  0.00    +0.470 C 
ATOM     25  O   LIG    1        1.706   1.115   2.243  0.00  0.00    -0.500 OA
BRANCH  24  26
ATOM     26  O   LIG    1        0.562   2.236   3.765  0.00  0.00    -0.360 OA
ATOM     27  C   LIG    1        1.230   1.458   4.793  0.00  0.00    +0.270 C 
ENDBRANCH  24  26
ENDBRANCH  23  24
ENDBRANCH  18  23
ENDBRANCH   1  18
TORSDOF 8
