REMARK  Name = ZINCqH0000032YL4.0
REMARK                            x       y       z     vdW  Elec       q    Type
REMARK                         _______ _______ _______ _____ _____    ______ ____
ROOT
ATOM      1  C   LIG    1       -0.934  -0.770   0.321  0.00  0.00    +0.010 A 
ATOM      2  C   LIG    1        0.348  -0.214   0.511  0.00  0.00    -0.220 A 
ATOM      3  C   LIG    1        1.696  -0.775   0.580  0.00  0.00    +0.150 A 
ATOM      4  N   LIG    1        2.517   0.212   0.774  0.00  0.00    -0.270 NA
ATOM      5  O   LIG    1        1.796   1.426   0.842  0.00  0.00    -0.080 OA
ATOM      6  C   LIG    1        2.065  -2.230   0.450  0.00  0.00    +0.200 C 
ATOM      7  C   LIG    1        0.481   1.175   0.683  0.00  0.00    +0.310 A 
ATOM      8  N   LIG    1       -0.590   1.952   0.671  0.00  0.00    -0.470 NA
ATOM      9  C   LIG    1       -1.808   1.463   0.491  0.00  0.00    +0.300 A 
ATOM     10  C   LIG    1       -2.024   0.094   0.313  0.00  0.00    -0.020 A 
ENDROOT
BRANCH   9  11
ATOM     11  C   LIG    1       -2.966   2.387   0.482  0.00  0.00    -0.180 A 
ATOM     12  C   LIG    1       -2.940   3.738   0.639  0.00  0.00    +0.080 A 
ATOM     13  O   LIG    1       -4.197   4.197   0.567  0.00  0.00    -0.170 OA
ATOM     14  C   LIG    1       -5.061   3.190   0.367  0.00  0.00    -0.000 A 
ATOM     15  C   LIG    1       -6.555   3.334   0.235  0.00  0.00    +0.180 C 
ATOM     16  C   LIG    1       -1.707   4.576   0.856  0.00  0.00    +0.190 C 
ATOM     17  C   LIG    1       -4.379   2.035   0.295  0.00  0.00    -0.040 A 
ENDBRANCH   9  11
BRANCH   1  19
ATOM     18  N   LIG    1       -1.951  -2.910   0.943  0.00  0.00    -0.600 N 
ATOM     19  C   LIG    1       -1.114  -2.228   0.138  0.00  0.00    +0.570 C 
ATOM     20  O   LIG    1       -0.506  -2.809  -0.740  0.00  0.00    -0.490 OA
BRANCH  18  21
ATOM     21  C   LIG    1       -2.054  -4.367   0.827  0.00  0.00    +0.300 C 
BRANCH  21  23
ATOM     22  C   LIG    1       -1.141  -6.548   1.635  0.00  0.00    +0.030 C 
ATOM     23  C   LIG    1       -1.033  -5.027   1.756  0.00  0.00    +0.000 C 
ENDBRANCH  21  23
ENDBRANCH  18  21
BRANCH  18  24
ATOM     24  C   LIG    1       -2.758  -2.196   1.935  0.00  0.00    +0.470 C 
BRANCH  24  25
ATOM     25  C   LIG    1       -4.097  -1.933   1.382  0.00  0.00    +0.170 C 
ATOM     26  N   LIG    1       -5.130  -1.731   0.955  0.00  0.00    -0.390 NA
ENDBRANCH  24  25
ENDBRANCH  18  24
ENDBRANCH   1  19
TORSDOF 6
