REMARK  Name = ZINCpe000000WChL.0
REMARK                            x       y       z     vdW  Elec       q    Type
REMARK                         _______ _______ _______ _____ _____    ______ ____
ROOT
ATOM      1  C   LIG    1       -0.087   1.081  -2.513  0.00  0.00    +0.570 C 
ATOM      2  N   LIG    1       -0.861   0.604  -1.518  0.00  0.00    -0.590 N 
ATOM      3  C   LIG    1       -0.210  -0.021  -0.350  0.00  0.00    +0.270 C 
ATOM      4  C   LIG    1       -0.889   0.407   0.962  0.00  0.00    +0.030 C 
ATOM      5  C   LIG    1       -1.243   1.875   0.896  0.00  0.00    +0.180 C 
ATOM      6  N   LIG    1       -2.610   2.014   0.397  0.00  0.00    -0.550 NA
ATOM      7  C   LIG    1       -2.764   2.061  -1.008  0.00  0.00    +0.180 C 
ATOM      8  C   LIG    1       -2.300   0.725  -1.636  0.00  0.00    +0.300 C 
ATOM      9  O   LIG    1        1.124   1.001  -2.433  0.00  0.00    -0.530 OA
ENDROOT
BRANCH   1  12
ATOM     10  C   LIG    1       -2.647   2.483  -4.722  0.00  0.00    +0.360 A 
ATOM     11  N   LIG    1       -2.026   1.936  -3.703  0.00  0.00    -0.520 NA
ATOM     12  C   LIG    1       -0.710   1.702  -3.702  0.00  0.00    +0.090 A 
ATOM     13  C   LIG    1        0.083   2.031  -4.786  0.00  0.00    +0.030 A 
ATOM     14  C   LIG    1       -0.524   2.616  -5.913  0.00  0.00    -0.010 A 
ATOM     15  C   LIG    1        0.210   2.973  -7.052  0.00  0.00    +0.030 A 
ATOM     16  C   LIG    1       -0.430   3.541  -8.113  0.00  0.00    +0.040 A 
ATOM     17  C   LIG    1       -1.803   3.771  -8.081  0.00  0.00    +0.010 A 
ATOM     18  C   LIG    1       -2.547   3.436  -6.988  0.00  0.00    +0.070 A 
ATOM     19  C   LIG    1       -1.923   2.851  -5.880  0.00  0.00    -0.100 A 
BRANCH  10  21
ATOM     20  C   LIG    1       -4.634   2.412  -3.425  0.00  0.00    +0.260 C 
ATOM     21  O   LIG    1       -3.984   2.696  -4.666  0.00  0.00    -0.300 OA
ENDBRANCH  10  21
ENDBRANCH   1  12
BRANCH   6  22
ATOM     22  C   LIG    1       -3.292   3.146   1.039  0.00  0.00    +0.200 C 
BRANCH  22  23
ATOM     23  C   LIG    1       -4.780   3.017   0.836  0.00  0.00    +0.510 C 
ATOM     24  O   LIG    1       -5.228   2.074   0.218  0.00  0.00    -0.520 OA
ATOM     25  N   LIG    1       -5.612   3.948   1.342  0.00  0.00    -0.860 N 
ATOM     26  H   LIG    1       -6.570   3.865   1.212  0.00  0.00    +0.400 HD
ATOM     27  H   LIG    1       -5.254   4.702   1.837  0.00  0.00    +0.400 HD
ENDBRANCH  22  23
ENDBRANCH   6  22
TORSDOF 4
