REMARK  Name = ZINCvU0000000EmI.0
REMARK                            x       y       z     vdW  Elec       q    Type
REMARK                         _______ _______ _______ _____ _____    ______ ____
ROOT
ATOM      1  C   LIG    1       -2.871   4.397   4.110  0.00  0.00    +0.250 C 
ENDROOT
BRANCH   1   2
ATOM      2  C   LIG    1       -4.319   4.145   3.774  0.00  0.00    -0.010 A 
ATOM      3  C   LIG    1       -5.316   4.702   4.552  0.00  0.00    +0.070 A 
ATOM      4  C   LIG    1       -6.644   4.476   4.241  0.00  0.00    +0.010 A 
ATOM      5  C   LIG    1       -6.975   3.683   3.159  0.00  0.00    +0.010 A 
ATOM      6  C   LIG    1       -5.977   3.121   2.382  0.00  0.00    -0.030 A 
ATOM      7 CL   LIG    1       -6.392   2.126   1.022  0.00  0.00    -0.090 Cl
ATOM      8  C   LIG    1       -4.649   3.352   2.691  0.00  0.00    +0.030 A 
ENDBRANCH   1   2
BRANCH   1  14
ATOM      9  C   LIG    1       -2.143   5.910   2.248  0.00  0.00    +0.140 A 
ATOM     10  C   LIG    1       -1.774   7.159   1.769  0.00  0.00    -0.080 A 
ATOM     11  C   LIG    1       -1.719   8.239   2.629  0.00  0.00    +0.040 A 
ATOM     12  C   LIG    1       -2.033   8.076   3.966  0.00  0.00    -0.030 A 
ATOM     13  C   LIG    1       -2.402   6.832   4.445  0.00  0.00    +0.070 A 
ATOM     14  C   LIG    1       -2.463   5.751   3.588  0.00  0.00    -0.120 A 
BRANCH   9  16
ATOM     15  C   LIG    1       -1.861   5.086   0.036  0.00  0.00    +0.250 C 
ATOM     16  O   LIG    1       -2.197   4.847   1.404  0.00  0.00    -0.310 OA
ENDBRANCH   9  16
ENDBRANCH   1  14
BRANCH   1  17
ATOM     17  N   LIG    1       -2.694   4.361   5.568  0.00  0.00    -0.670 NA
ATOM     18  H   LIG    1       -1.929   4.953   5.854  0.00  0.00    +0.350 HD
BRANCH  17  19
ATOM     19  C   LIG    1       -2.498   2.983   6.040  0.00  0.00    +0.160 C 
ATOM     20  C   LIG    1       -1.715   3.003   7.355  0.00  0.00    +0.030 C 
ATOM     21  C   LIG    1       -1.760   1.597   7.967  0.00  0.00    +0.030 C 
ATOM     22  C   LIG    1       -3.197   1.295   8.395  0.00  0.00    +0.260 C 
ATOM     23  N   LIG    1       -4.122   1.564   7.301  0.00  0.00    -0.570 N 
ATOM     24  C   LIG    1       -3.835   2.333   6.251  0.00  0.00    +0.520 C 
ATOM     25  O   LIG    1       -4.700   2.518   5.421  0.00  0.00    -0.490 OA
BRANCH  23  26
ATOM     26  C   LIG    1       -5.392   0.977   7.357  0.00  0.00    +0.140 A 
ATOM     27  C   LIG    1       -6.436   1.637   7.991  0.00  0.00    +0.020 A 
ATOM     28  C   LIG    1       -7.689   1.057   8.040  0.00  0.00    +0.010 A 
ATOM     29  C   LIG    1       -7.901  -0.183   7.468  0.00  0.00    -0.080 A 
ATOM     30  C   LIG    1       -6.862  -0.845   6.840  0.00  0.00    +0.010 A 
ATOM     31  C   LIG    1       -9.268  -0.816   7.529  0.00  0.00    +0.090 C 
ATOM     32  C   LIG    1       -5.608  -0.269   6.783  0.00  0.00    +0.020 A 
ENDBRANCH  23  26
ENDBRANCH  17  19
ENDBRANCH   1  17
TORSDOF 6
