REMARK  Name = ZINCvU0000000Hed.0
REMARK                            x       y       z     vdW  Elec       q    Type
REMARK                         _______ _______ _______ _____ _____    ______ ____
ROOT
ATOM      1  O   LIG    1       -2.811  -3.444  -0.413  0.00  0.00    -0.520 OA
ATOM      2  C   LIG    1       -1.640  -3.741  -0.313  0.00  0.00    +0.540 C 
ATOM      3  N   LIG    1       -1.286  -5.028  -0.122  0.00  0.00    -0.590 N 
ENDROOT
BRANCH   3   4
ATOM      4  C   LIG    1        0.119  -5.374   0.109  0.00  0.00    +0.230 C 
ATOM      5  C   LIG    1        0.588  -6.350  -0.971  0.00  0.00    +0.010 C 
ATOM      6  C   LIG    1        2.055  -6.712  -0.729  0.00  0.00    +0.020 C 
ATOM      7  C   LIG    1        2.199  -7.366   0.646  0.00  0.00    +0.010 C 
ATOM      8  C   LIG    1        1.730  -6.390   1.727  0.00  0.00    +0.020 C 
ATOM      9  C   LIG    1        0.263  -6.029   1.485  0.00  0.00    +0.010 C 
ENDBRANCH   3   4
BRANCH   3  10
ATOM     10  C   LIG    1       -2.305  -6.080  -0.147  0.00  0.00    +0.350 C 
BRANCH  10  11
ATOM     11  C   LIG    1       -2.578  -6.481  -1.574  0.00  0.00    -0.120 A 
ATOM     12  C   LIG    1       -3.455  -5.740  -2.344  0.00  0.00    +0.070 A 
ATOM     13  C   LIG    1       -3.702  -6.104  -3.654  0.00  0.00    -0.020 A 
ATOM     14  C   LIG    1       -3.079  -7.217  -4.192  0.00  0.00    +0.100 A 
ATOM     15  C   LIG    1       -2.205  -7.962  -3.418  0.00  0.00    -0.020 A 
ATOM     16  F   LIG    1       -3.325  -7.577  -5.471  0.00  0.00    -0.140 F 
ATOM     17  C   LIG    1       -1.955  -7.593  -2.110  0.00  0.00    +0.050 A 
ENDBRANCH  10  11
ENDBRANCH   3  10
BRANCH   2  18
ATOM     18  C   LIG    1       -0.581  -2.673  -0.401  0.00  0.00    +0.090 C 
BRANCH  18  19
ATOM     19  S   LIG    1       -1.355  -1.088  -0.803  0.00  0.00    +0.160 S 
BRANCH  19  20
ATOM     20  C   LIG    1        0.070  -0.052  -0.843  0.00  0.00    +0.120 A 
ATOM     21  N   LIG    1        1.309  -0.427  -0.624  0.00  0.00    -0.290 NA
ATOM     22  N   LIG    1        2.090   0.589  -0.734  0.00  0.00    -0.260 NA
ATOM     23  C   LIG    1        1.382   1.653  -1.026  0.00  0.00    +0.220 A 
ATOM     24  O   LIG    1        0.089   1.269  -1.101  0.00  0.00    -0.200 OA
BRANCH  23  25
ATOM     25  C   LIG    1        1.903   3.019  -1.235  0.00  0.00    -0.040 A 
ATOM     26  C   LIG    1        1.029   4.062  -1.549  0.00  0.00    +0.090 A 
ATOM     27  C   LIG    1        1.520   5.337  -1.739  0.00  0.00    +0.000 A 
ATOM     28  C   LIG    1        2.879   5.582  -1.629  0.00  0.00    +0.130 A 
ATOM     29  C   LIG    1        3.752   4.550  -1.322  0.00  0.00    +0.000 A 
ATOM     30  F   LIG    1        3.356   6.832  -1.820  0.00  0.00    -0.130 F 
ATOM     31  C   LIG    1        3.272   3.272  -1.125  0.00  0.00    +0.110 A 
ENDBRANCH  23  25
ENDBRANCH  19  20
ENDBRANCH  18  19
ENDBRANCH   2  18
TORSDOF 7
