REMARK  Name = ZINCvU00000004Ra.0
REMARK                            x       y       z     vdW  Elec       q    Type
REMARK                         _______ _______ _______ _____ _____    ______ ____
ROOT
ATOM      1  C   LIG    1        4.500   3.900   0.080  0.00  0.00    +0.170 A 
ATOM      2  N   LIG    1        3.380   3.192   0.091  0.00  0.00    -0.460 NA
ATOM      3  C   LIG    1        2.187   3.783   0.123  0.00  0.00    +0.380 A 
ATOM      4  N   LIG    1        2.040   5.094   0.156  0.00  0.00    -0.500 NA
ATOM      5  C   LIG    1        3.112   5.898   0.153  0.00  0.00    +0.180 A 
ATOM      6  C   LIG    1        2.992   7.294   0.188  0.00  0.00    +0.060 A 
ATOM      7  C   LIG    1        4.116   8.067   0.184  0.00  0.00    +0.060 A 
ATOM      8  C   LIG    1        5.382   7.491   0.146  0.00  0.00    +0.030 A 
ATOM      9  C   LIG    1        5.534   6.135   0.112  0.00  0.00    +0.050 A 
ATOM     10  C   LIG    1        4.403   5.314   0.115  0.00  0.00    -0.140 A 
ENDROOT
BRANCH   3  11
ATOM     11  C   LIG    1        0.973   2.931   0.127  0.00  0.00    -0.110 A 
ATOM     12  C   LIG    1        1.082   1.538   0.093  0.00  0.00    +0.150 A 
ATOM     13  C   LIG    1       -0.081   0.788   0.098  0.00  0.00    -0.040 A 
ATOM     14  C   LIG    1       -1.303   1.435   0.131  0.00  0.00    +0.280 A 
ATOM     15  N   LIG    1       -1.375   2.752   0.168  0.00  0.00    -0.490 NA
ATOM     16  C   LIG    1       -0.296   3.507   0.165  0.00  0.00    +0.320 A 
ENDBRANCH   3  11
BRANCH   1  17
ATOM     17  S   LIG    1        6.071   3.103   0.031  0.00  0.00    +0.210 S 
BRANCH  17  19
ATOM     18  N   LIG    1        6.375   0.324  -0.038  0.00  0.00    -0.450 N 
ATOM     19  C   LIG    1        5.559   1.418   0.003  0.00  0.00    +0.120 A 
ATOM     20  N   LIG    1        4.321   0.979   0.023  0.00  0.00    -0.210 NA
ATOM     21  N   LIG    1        4.307  -0.305  -0.011  0.00  0.00    -0.280 NA
ATOM     22  C   LIG    1        5.537  -0.765  -0.046  0.00  0.00    +0.240 A 
BRANCH  22  23
ATOM     23  C   LIG    1        5.942  -2.187  -0.086  0.00  0.00    -0.020 A 
ATOM     24  C   LIG    1        5.032  -3.164  -0.491  0.00  0.00    +0.070 A 
ATOM     25  C   LIG    1        5.419  -4.488  -0.532  0.00  0.00    +0.010 A 
ATOM     26  C   LIG    1        6.702  -4.848  -0.162  0.00  0.00    +0.030 A 
ATOM     27  C   LIG    1        7.608  -3.885   0.246  0.00  0.00    +0.010 A 
ATOM     28  C   LIG    1        7.235  -2.557   0.286  0.00  0.00    +0.010 A 
ENDBRANCH  22  23
BRANCH  18  29
ATOM     29  C   LIG    1        7.840   0.313  -0.068  0.00  0.00    +0.350 C 
BRANCH  29  31
ATOM     30  C   LIG    1        9.238  -0.444   1.785  0.00  0.00    +0.080 C 
ATOM     31  C   LIG    1        8.372   0.430   1.337  0.00  0.00    -0.070 C 
ENDBRANCH  29  31
ENDBRANCH  18  29
ENDBRANCH  17  19
ENDBRANCH   1  17
TORSDOF 6
