REMARK  Name = ZINCrg000000qIYr.0
REMARK                            x       y       z     vdW  Elec       q    Type
REMARK                         _______ _______ _______ _____ _____    ______ ____
ROOT
ATOM      1  C   LIG    1       -2.550  -2.680   0.012  0.00  0.00    +0.510 C 
ATOM      2  N   LIG    1       -2.778  -4.008   0.007  0.00  0.00    -0.720 N 
ATOM      3  H   LIG    1       -2.032  -4.629  -0.003  0.00  0.00    +0.410 HD
ATOM      4  O   LIG    1       -3.482  -1.905   0.025  0.00  0.00    -0.530 OA
ENDROOT
BRANCH   2   5
ATOM      5  C   LIG    1       -4.152  -4.516   0.018  0.00  0.00    +0.250 C 
ATOM      6  C   LIG    1       -4.173  -5.925   0.616  0.00  0.00    +0.020 C 
ATOM      7  C   LIG    1       -5.603  -6.471   0.568  0.00  0.00    +0.060 C 
ATOM      8  C   LIG    1       -6.097  -6.465  -0.881  0.00  0.00    +0.210 C 
ATOM      9  N   LIG    1       -6.059  -5.095  -1.407  0.00  0.00    -0.460 N 
ATOM     10  C   LIG    1       -4.689  -4.567  -1.415  0.00  0.00    +0.200 C 
BRANCH   9  11
ATOM     11  C   LIG    1       -6.622  -5.033  -2.670  0.00  0.00    +0.490 A 
ATOM     12  N   LIG    1       -5.911  -4.534  -3.671  0.00  0.00    -0.550 NA
ATOM     13  C   LIG    1       -6.417  -4.465  -4.891  0.00  0.00    +0.340 A 
ATOM     14  C   LIG    1       -7.710  -4.913  -5.113  0.00  0.00    -0.110 A 
ATOM     15  C   LIG    1       -8.427  -5.424  -4.043  0.00  0.00    +0.350 A 
ATOM     16  N   LIG    1       -7.860  -5.469  -2.849  0.00  0.00    -0.530 NA
ENDBRANCH   9  11
ENDBRANCH   2   5
BRANCH   1  17
ATOM     17  C   LIG    1       -1.136  -2.159   0.001  0.00  0.00    +0.300 C 
BRANCH  17  19
ATOM     18  C   LIG    1        0.002  -0.004   0.002  0.00  0.00    +0.570 C 
ATOM     19  N   LIG    1       -1.156  -0.694   0.009  0.00  0.00    -0.720 N 
ATOM     20  H   LIG    1       -2.002  -0.220   0.020  0.00  0.00    +0.410 HD
ATOM     21  O   LIG    1        1.063  -0.598  -0.011  0.00  0.00    -0.540 OA
BRANCH  18  25
ATOM     22  C   LIG    1       -0.056   4.242   0.025  0.00  0.00    +0.160 A 
ATOM     23  C   LIG    1        1.159   3.566   0.010  0.00  0.00    -0.020 A 
ATOM     24  C   LIG    1        1.181   2.189   0.003  0.00  0.00    +0.130 A 
ATOM     25  C   LIG    1       -0.018   1.472   0.010  0.00  0.00    -0.180 A 
ATOM     26  C   LIG    1       -1.236   2.156   0.020  0.00  0.00    +0.090 A 
ATOM     27  C   LIG    1       -1.251   3.533   0.033  0.00  0.00    -0.080 A 
BRANCH  22  29
ATOM     28  C   LIG    1       -1.356   6.231   0.048  0.00  0.00    +0.240 C 
ATOM     29  O   LIG    1       -0.074   5.599   0.033  0.00  0.00    -0.310 OA
ENDBRANCH  22  29
ENDBRANCH  18  25
ENDBRANCH  17  19
ENDBRANCH   1  17
TORSDOF 6
