REMARK  Name = ZINCvU0000000IRr.0
REMARK                            x       y       z     vdW  Elec       q    Type
REMARK                         _______ _______ _______ _____ _____    ______ ____
ROOT
ATOM      1  N   LIG    1        0.171   5.115   0.630  0.00  0.00    -0.560 N 
ATOM      2  C   LIG    1        0.538   4.852   1.900  0.00  0.00    +0.550 C 
ATOM      3  O   LIG    1        0.811   3.713   2.231  0.00  0.00    -0.510 OA
ENDROOT
BRANCH   1  13
ATOM      4  C   LIG    1       -1.394  -0.897  -0.215  0.00  0.00    +0.110 C 
ATOM      5  C   LIG    1       -0.063  -0.204  -0.355  0.00  0.00    +0.520 C 
ATOM      6  N   LIG    1       -0.014   1.132  -0.526  0.00  0.00    -0.550 N 
ATOM      7  C   LIG    1        1.211   1.812  -0.478  0.00  0.00    +0.170 A 
ATOM      8  C   LIG    1        2.393   1.083  -0.532  0.00  0.00    +0.020 A 
ATOM      9  C   LIG    1        3.610   1.734  -0.482  0.00  0.00    +0.020 A 
ATOM     10  C   LIG    1        3.651   3.111  -0.378  0.00  0.00    -0.020 A 
ATOM     11  C   LIG    1        2.477   3.838  -0.324  0.00  0.00    +0.030 A 
ATOM     12  C   LIG    1        1.253   3.194  -0.376  0.00  0.00    -0.110 A 
ATOM     13  C   LIG    1       -0.007   4.017  -0.323  0.00  0.00    +0.300 C 
ATOM     14  C   LIG    1       -1.192   3.155   0.114  0.00  0.00    +0.030 C 
ATOM     15  C   LIG    1       -1.242   1.899  -0.772  0.00  0.00    +0.230 C 
ATOM     16  C   LIG    1       -2.464   1.054  -0.405  0.00  0.00    +0.050 C 
ATOM     17  O   LIG    1        0.964  -0.848  -0.315  0.00  0.00    -0.520 OA
ENDBRANCH   1  13
BRANCH   1  18
ATOM     18  C   LIG    1       -0.040   6.436   0.223  0.00  0.00    +0.130 A 
ATOM     19  C   LIG    1       -1.308   6.850  -0.163  0.00  0.00    +0.010 A 
ATOM     20  C   LIG    1       -1.515   8.157  -0.559  0.00  0.00    +0.030 A 
ATOM     21  C   LIG    1       -0.459   9.050  -0.582  0.00  0.00    +0.010 A 
ATOM     22  C   LIG    1        0.806   8.638  -0.204  0.00  0.00    +0.030 A 
ATOM     23  C   LIG    1        1.018   7.334   0.199  0.00  0.00    +0.010 A 
ENDBRANCH   1  18
BRANCH   2  24
ATOM     24  C   LIG    1        0.610   5.936   2.881  0.00  0.00    -0.090 C 
ATOM     25  C   LIG    1        1.074   5.692   4.123  0.00  0.00    +0.130 C 
BRANCH  25  26
ATOM     26  C   LIG    1        1.145   6.782   5.110  0.00  0.00    -0.080 A 
ATOM     27  C   LIG    1        0.738   8.073   4.761  0.00  0.00    +0.030 A 
ATOM     28  C   LIG    1        0.801   9.088   5.692  0.00  0.00    +0.010 A 
ATOM     29  C   LIG    1        1.279   8.833   6.966  0.00  0.00    +0.020 A 
ATOM     30  C   LIG    1        1.690   7.559   7.317  0.00  0.00    +0.010 A 
ATOM     31  C   LIG    1        1.626   6.532   6.399  0.00  0.00    +0.040 A 
ENDBRANCH  25  26
ENDBRANCH   2  24
TORSDOF 4
