REMARK  Name = ZINCpk00000e906H.0
REMARK                            x       y       z     vdW  Elec       q    Type
REMARK                         _______ _______ _______ _____ _____    ______ ____
ROOT
ATOM      1  O   LIG    1        1.152   2.151   0.149  0.00  0.00    -0.340 OA
ENDROOT
BRANCH   1   2
ATOM      2  C   LIG    1       -0.008   1.466   0.113  0.00  0.00    +0.510 C 
ATOM      3  O   LIG    1       -1.067   2.063   0.126  0.00  0.00    -0.460 OA
BRANCH   2   4
ATOM      4  C   LIG    1        0.007  -0.005   0.052  0.00  0.00    -0.160 A 
ATOM      5  C   LIG    1        1.215  -0.701  -0.069  0.00  0.00    +0.150 A 
ATOM      6  C   LIG    1        1.175  -2.083  -0.122  0.00  0.00    -0.040 A 
ATOM      7  C   LIG    1       -0.044  -2.733  -0.054  0.00  0.00    +0.320 A 
ATOM      8  N   LIG    1       -1.172  -2.060   0.060  0.00  0.00    -0.520 NA
ATOM      9  C   LIG    1       -1.192  -0.737   0.121  0.00  0.00    +0.350 A 
BRANCH   9  10
ATOM     10  N   LIG    1       -2.397  -0.072   0.246  0.00  0.00    -0.460 N 
ATOM     11  C   LIG    1       -3.089   0.029  -1.064  0.00  0.00    +0.190 C 
ATOM     12  C   LIG    1       -4.564   0.290  -0.668  0.00  0.00    +0.040 C 
ATOM     13  C   LIG    1       -4.745  -0.590   0.591  0.00  0.00    +0.010 C 
ATOM     14  C   LIG    1       -3.321  -0.812   1.134  0.00  0.00    +0.180 C 
ENDBRANCH   9  10
ENDBRANCH   2   4
ENDBRANCH   1   2
BRANCH   1  15
ATOM     15  C   LIG    1        1.061   3.599   0.208  0.00  0.00    +0.280 C 
BRANCH  15  21
ATOM     16  N   LIG    1        4.013   7.389   0.385  0.00  0.00    -0.730 N 
ATOM     17  H   LIG    1        3.238   7.972   0.404  0.00  0.00    +0.400 HD
ATOM     18  C   LIG    1        3.850   6.052   0.329  0.00  0.00    +0.700 C 
ATOM     19  N   LIG    1        2.610   5.525   0.299  0.00  0.00    -0.690 N 
ATOM     20  H   LIG    1        1.835   6.108   0.318  0.00  0.00    +0.410 HD
ATOM     21  C   LIG    1        2.447   4.189   0.242  0.00  0.00    +0.520 C 
ATOM     22  O   LIG    1        3.416   3.460   0.218  0.00  0.00    -0.440 OA
ATOM     23  O   LIG    1        4.822   5.322   0.305  0.00  0.00    -0.520 OA
BRANCH  16  25
ATOM     24  C   LIG    1        6.121   7.550  -0.845  0.00  0.00    +0.030 C 
ATOM     25  C   LIG    1        5.361   7.962   0.418  0.00  0.00    +0.180 C 
ATOM     26  C   LIG    1        6.104   7.447   1.652  0.00  0.00    +0.030 C 
ATOM     27  C   LIG    1        5.265   9.488   0.480  0.00  0.00    +0.040 C 
ENDBRANCH  16  25
ENDBRANCH  15  21
ENDBRANCH   1  15
TORSDOF 6
