REMARK  Name = ZINCb70000002ELH.0
REMARK                            x       y       z     vdW  Elec       q    Type
REMARK                         _______ _______ _______ _____ _____    ______ ____
ROOT
ATOM      1  C   LIG    1        3.483   2.062  -1.192  0.00  0.00    +0.220 C 
ENDROOT
BRANCH   1   2
ATOM      2  C   LIG    1        2.049   1.532  -1.236  0.00  0.00    +0.130 C 
ATOM      3  C   LIG    1        1.286   2.017   0.001  0.00  0.00    +0.190 C 
ATOM      4  O   LIG    1       -0.017   1.427   0.010  0.00  0.00    -0.360 OA
ATOM      5  C   LIG    1        0.002  -0.004   0.002  0.00  0.00    +0.210 C 
ATOM      6  C   LIG    1        0.765  -0.489  -1.234  0.00  0.00    +0.220 C 
ATOM      7  O   LIG    1        2.068   0.101  -1.243  0.00  0.00    -0.350 OA
ENDBRANCH   1   2
BRANCH   1   8
ATOM      8  N   LIG    1        3.462   3.531  -1.184  0.00  0.00    -0.630 N 
ATOM      9  H   LIG    1        3.004   3.865  -2.019  0.00  0.00    +0.440 HD
ATOM     10  H   LIG    1        4.408   3.881  -1.156  0.00  0.00    +0.440 HD
ATOM     11  H   LIG    1        2.958   3.856  -0.372  0.00  0.00    +0.430 HD
ENDBRANCH   1   8
BRANCH   1  12
ATOM     12  C   LIG    1        4.246   1.570  -2.424  0.00  0.00    -0.070 C 
ATOM     13  C   LIG    1        5.365   0.551  -2.201  0.00  0.00    +0.100 C 
ATOM     14  C   LIG    1        5.709   1.996  -2.566  0.00  0.00    +0.040 C 
ENDBRANCH   1  12
TORSDOF 3
