REMARK  Name = ZINCvU00000008u1.0
REMARK                            x       y       z     vdW  Elec       q    Type
REMARK                         _______ _______ _______ _____ _____    ______ ____
ROOT
ATOM      1  C   LIG    1       -4.638   0.541   0.186  0.00  0.00    +0.170 A 
ATOM      2  N   LIG    1       -3.945  -0.521  -0.164  0.00  0.00    -0.280 NA
ATOM      3  N   LIG    1       -2.699  -0.222  -0.267  0.00  0.00    -0.250 NA
ATOM      4  C   LIG    1       -2.517   1.046   0.019  0.00  0.00    +0.220 A 
ATOM      5  N   LIG    1       -3.754   1.576   0.314  0.00  0.00    -0.410 N 
ENDROOT
BRANCH   5   6
ATOM      6  C   LIG    1       -4.045   2.900   0.673  0.00  0.00    +0.100 A 
ATOM      7  C   LIG    1       -3.560   3.421   1.865  0.00  0.00    +0.060 A 
ATOM      8  C   LIG    1       -3.845   4.726   2.213  0.00  0.00    +0.050 A 
ATOM      9  C   LIG    1       -4.622   5.513   1.381  0.00  0.00    -0.020 A 
ATOM     10  C   LIG    1       -5.111   4.994   0.194  0.00  0.00    +0.060 A 
ATOM     11 CL   LIG    1       -4.983   7.151   1.824  0.00  0.00    -0.050 Cl
ATOM     12  C   LIG    1       -4.825   3.691  -0.161  0.00  0.00    +0.050 A 
ENDBRANCH   5   6
BRANCH   4  13
ATOM     13  C   LIG    1       -1.229   1.770   0.017  0.00  0.00    +0.030 A 
ATOM     14  C   LIG    1       -0.013   1.076   0.008  0.00  0.00    +0.020 A 
ATOM     15  C   LIG    1        1.166   1.792   0.001  0.00  0.00    +0.280 A 
ATOM     16  N   LIG    1        1.157   3.111   0.008  0.00  0.00    -0.470 NA
ATOM     17  C   LIG    1        0.034   3.805   0.023  0.00  0.00    +0.270 A 
ATOM     18  C   LIG    1       -1.190   3.170   0.031  0.00  0.00    -0.020 A 
ENDBRANCH   4  13
BRANCH   1  19
ATOM     19  S   LIG    1       -6.380   0.616   0.441  0.00  0.00    +0.030 S 
BRANCH  19  20
ATOM     20  C   LIG    1       -6.823  -1.103   0.088  0.00  0.00    +0.170 C 
BRANCH  20  26
ATOM     21  C   LIG    1       -9.153  -1.083  -0.841  0.00  0.00    +0.180 A 
ATOM     22  C   LIG    1      -10.527  -1.246  -0.702  0.00  0.00    -0.080 A 
ATOM     23  C   LIG    1      -11.058  -1.604   0.517  0.00  0.00    +0.120 A 
ATOM     24  C   LIG    1      -10.209  -1.803   1.613  0.00  0.00    -0.210 A 
ATOM     25  C   LIG    1       -8.827  -1.641   1.460  0.00  0.00    +0.150 A 
ATOM     26  C   LIG    1       -8.311  -1.281   0.248  0.00  0.00    -0.130 A 
BRANCH  24  27
ATOM     27  C   LIG    1      -10.767  -2.184   2.917  0.00  0.00    +0.400 C 
ATOM     28  O   LIG    1      -10.030  -2.356   3.865  0.00  0.00    -0.460 OA
ATOM     29  C   LIG    1      -12.255  -2.363   3.077  0.00  0.00    +0.070 C 
ENDBRANCH  24  27
BRANCH  21  31
ATOM     30  C   LIG    1       -9.554  -0.544  -3.119  0.00  0.00    +0.250 C 
ATOM     31  O   LIG    1       -8.632  -0.731  -2.043  0.00  0.00    -0.300 OA
ENDBRANCH  21  31
ENDBRANCH  20  26
ENDBRANCH  19  20
ENDBRANCH   1  19
TORSDOF 7
