REMARK  Name = ZINCrD000000BSyI.0
REMARK                            x       y       z     vdW  Elec       q    Type
REMARK                         _______ _______ _______ _____ _____    ______ ____
ROOT
ATOM      1  O   LIG    1        1.981   6.607  -0.614  0.00  0.00    -0.580 OA
ATOM      2  C   LIG    1        1.430   6.156  -1.600  0.00  0.00    +0.710 C 
ATOM      3  N   LIG    1        1.842   4.985  -2.125  0.00  0.00    -0.740 N 
ATOM      4  H   LIG    1        1.452   4.660  -2.951  0.00  0.00    +0.400 HD
ATOM      5  N   LIG    1        0.408   6.826  -2.167  0.00  0.00    -0.730 N 
ATOM      6  H   LIG    1       -0.031   6.466  -2.954  0.00  0.00    +0.400 HD
ENDROOT
BRANCH   5   7
ATOM      7  C   LIG    1       -0.040   8.099  -1.596  0.00  0.00    +0.290 C 
ATOM      8  C   LIG    1        0.785   9.279  -2.161  0.00  0.00    +0.240 C 
ATOM      9  O   LIG    1       -0.002   9.710  -3.284  0.00  0.00    -0.300 OA
ATOM     10  C   LIG    1       -1.310   9.407  -3.059  0.00  0.00    +0.120 A 
ATOM     11  C   LIG    1       -2.460   9.911  -3.661  0.00  0.00    -0.010 A 
ATOM     12  C   LIG    1       -3.703   9.451  -3.279  0.00  0.00    +0.060 A 
ATOM     13  C   LIG    1       -3.819   8.485  -2.297  0.00  0.00    -0.020 A 
ATOM     14  C   LIG    1       -2.681   7.981  -1.691  0.00  0.00    +0.080 A 
ATOM     15  C   LIG    1       -1.440   8.442  -2.068  0.00  0.00    -0.200 A 
ENDBRANCH   5   7
BRANCH   3  16
ATOM     16  C   LIG    1        2.879   4.202  -1.447  0.00  0.00    +0.210 C 
ATOM     17  C   LIG    1        3.147   2.916  -2.234  0.00  0.00    +0.020 C 
ATOM     18  C   LIG    1        3.691   3.279  -3.618  0.00  0.00    +0.210 C 
ATOM     19  O   LIG    1        4.875   4.066  -3.474  0.00  0.00    -0.380 OA
ATOM     20  C   LIG    1        4.673   5.303  -2.788  0.00  0.00    +0.200 C 
ATOM     21  C   LIG    1        4.171   5.022  -1.369  0.00  0.00    +0.010 C 
BRANCH  16  22
ATOM     22  C   LIG    1        2.411   3.849  -0.033  0.00  0.00    +0.090 C 
BRANCH  22  23
ATOM     23  C   LIG    1        1.142   3.040  -0.112  0.00  0.00    -0.040 A 
ATOM     24  C   LIG    1        1.206   1.661  -0.186  0.00  0.00    +0.000 A 
ATOM     25  C   LIG    1        0.043   0.917  -0.258  0.00  0.00    +0.040 A 
ATOM     26  C   LIG    1       -1.185   1.552  -0.262  0.00  0.00    -0.030 A 
ATOM     27  C   LIG    1       -1.250   2.933  -0.182  0.00  0.00    +0.100 A 
ATOM     28  F   LIG    1       -2.450   3.554  -0.179  0.00  0.00    -0.140 F 
ATOM     29  C   LIG    1       -0.085   3.676  -0.110  0.00  0.00    -0.010 A 
ENDBRANCH  22  23
ENDBRANCH  16  22
ENDBRANCH   3  16
TORSDOF 4
