REMARK  Name = ZINCrD00000l1bqF.0
REMARK                            x       y       z     vdW  Elec       q    Type
REMARK                         _______ _______ _______ _____ _____    ______ ____
ROOT
ATOM      1  N   LIG    1        3.106   3.893   1.525  0.00  0.00    -0.990 NA
ENDROOT
BRANCH   1   2
ATOM      2  S   LIG    1        4.184   2.846   2.220  0.00  0.00    +2.700 S 
ATOM      3  O   LIG    1        4.277   1.728   1.347  0.00  0.00    -0.920 OA
ATOM      4  O   LIG    1        3.813   2.736   3.587  0.00  0.00    -0.940 OA
BRANCH   2   5
ATOM      5  C   LIG    1        5.763   3.629   2.194  0.00  0.00    -0.480 A 
ATOM      6  C   LIG    1        6.683   3.538   1.204  0.00  0.00    -0.140 A 
ATOM      7  C   LIG    1        6.929   2.916  -0.153  0.00  0.00    +0.110 C 
ATOM      8  C   LIG    1        8.098   3.719  -0.762  0.00  0.00    +0.050 C 
ATOM      9  C   LIG    1        8.841   4.236   0.488  0.00  0.00    +0.150 C 
ATOM     10  C   LIG    1        7.790   4.308   1.574  0.00  0.00    +0.040 A 
ATOM     11  N   LIG    1        7.546   4.836   2.748  0.00  0.00    -0.230 NA
ATOM     12  N   LIG    1        6.273   4.421   3.159  0.00  0.00    -0.310 N 
ATOM     13  C   LIG    1        5.612   4.784   4.415  0.00  0.00    +0.370 C 
ENDBRANCH   2   5
ENDBRANCH   1   2
BRANCH   1  14
ATOM     14  C   LIG    1        2.750   3.747   0.112  0.00  0.00    +0.360 C 
BRANCH  14  20
ATOM     15  C   LIG    1       -2.017   4.602  -1.147  0.00  0.00    +0.100 C 
ATOM     16  C   LIG    1       -0.957   3.680  -0.603  0.00  0.00    -0.100 A 
ATOM     17  C   LIG    1       -1.292   2.397  -0.213  0.00  0.00    +0.040 A 
ATOM     18  C   LIG    1       -0.321   1.553   0.292  0.00  0.00    -0.010 A 
ATOM     19  C   LIG    1        0.989   1.988   0.396  0.00  0.00    +0.110 A 
ATOM     20  C   LIG    1        1.324   3.272  -0.000  0.00  0.00    -0.130 A 
ATOM     21  F   LIG    1        1.939   1.162   0.885  0.00  0.00    -0.120 F 
ATOM     22  C   LIG    1        0.351   4.116  -0.500  0.00  0.00    +0.060 A 
ENDBRANCH  14  20
ENDBRANCH   1  14
BRANCH   1  23
ATOM     23  C   LIG    1        2.508   4.966   2.324  0.00  0.00    +0.290 C 
BRANCH  23  24
ATOM     24  C   LIG    1        1.215   4.462   2.968  0.00  0.00    -0.030 C 
ATOM     25  C   LIG    1       -0.034   4.687   2.100  0.00  0.00    +0.020 C 
ATOM     26  C   LIG    1       -0.771   5.062   3.399  0.00  0.00    +0.010 C 
ATOM     27  C   LIG    1        0.601   5.452   3.973  0.00  0.00    +0.020 C 
ENDBRANCH  23  24
ENDBRANCH   1  23
TORSDOF 6
