REMARK  Name = ZINCrD000000CYOT.0
REMARK                            x       y       z     vdW  Elec       q    Type
REMARK                         _______ _______ _______ _____ _____    ______ ____
ROOT
ATOM      1  C   LIG    1       -4.332  -0.107   0.760  0.00  0.00    +0.250 C 
ATOM      2  C   LIG    1       -4.132  -0.471  -0.730  0.00  0.00    +0.070 C 
ATOM      3  C   LIG    1       -3.148   0.630  -1.191  0.00  0.00    +0.280 C 
ATOM      4  N   LIG    1       -2.427   1.041   0.019  0.00  0.00    -0.590 N 
ATOM      5  C   LIG    1       -3.075   0.648   1.130  0.00  0.00    +0.500 C 
ATOM      6  O   LIG    1       -2.704   0.867   2.264  0.00  0.00    -0.480 OA
ENDROOT
BRANCH   4   7
ATOM      7  C   LIG    1       -1.224   1.754   0.017  0.00  0.00    +0.190 A 
ATOM      8  C   LIG    1       -0.013   1.076   0.008  0.00  0.00    +0.030 A 
ATOM      9  C   LIG    1        1.174   1.783   0.000  0.00  0.00    +0.060 A 
ATOM     10  C   LIG    1        1.156   3.166   0.008  0.00  0.00    +0.030 A 
ATOM     11  C   LIG    1       -0.049   3.845   0.023  0.00  0.00    +0.080 A 
ATOM     12  C   LIG    1       -1.238   3.143   0.031  0.00  0.00    -0.180 A 
BRANCH  12  13
ATOM     13  C   LIG    1       -2.551   3.884   0.048  0.00  0.00    +0.510 C 
ATOM     14  F   LIG    1       -3.270   3.532   1.196  0.00  0.00    -0.170 F 
ATOM     15  F   LIG    1       -3.292   3.545  -1.089  0.00  0.00    -0.180 F 
ATOM     16  F   LIG    1       -2.309   5.262   0.054  0.00  0.00    -0.170 F 
ENDBRANCH  12  13
ENDBRANCH   4   7
BRANCH   1  17
ATOM     17  N   LIG    1       -4.460  -1.320   1.572  0.00  0.00    -0.720 N 
ATOM     18  H   LIG    1       -4.118  -2.164   1.239  0.00  0.00    +0.410 HD
BRANCH  17  25
ATOM     19  O   LIG    1       -7.076  -3.192   7.864  0.00  0.00    -0.490 OA
ATOM     20  C   LIG    1       -6.697  -2.664   6.836  0.00  0.00    +0.640 A 
ATOM     21  N   LIG    1       -6.074  -3.295   5.822  0.00  0.00    -0.650 N 
ATOM     22  H   LIG    1       -5.852  -4.239   5.783  0.00  0.00    +0.440 HD
ATOM     23  C   LIG    1       -5.806  -2.344   4.837  0.00  0.00    +0.120 A 
ATOM     24  C   LIG    1       -5.201  -2.410   3.593  0.00  0.00    -0.040 A 
ATOM     25  C   LIG    1       -5.075  -1.260   2.826  0.00  0.00    +0.240 A 
ATOM     26  C   LIG    1       -5.565  -0.050   3.303  0.00  0.00    -0.020 A 
ATOM     27  C   LIG    1       -6.173   0.016   4.541  0.00  0.00    +0.110 A 
ATOM     28  C   LIG    1       -6.297  -1.128   5.313  0.00  0.00    -0.020 A 
ATOM     29  O   LIG    1       -6.833  -1.363   6.537  0.00  0.00    -0.230 OA
ENDBRANCH  17  25
ENDBRANCH   1  17
TORSDOF 4
