REMARK  Name = ZINCrD000000AE57.0
REMARK                            x       y       z     vdW  Elec       q    Type
REMARK                         _______ _______ _______ _____ _____    ______ ____
ROOT
ATOM      1  C   LIG    1       -0.014   1.209   0.009  0.00  0.00    +0.500 C 
ATOM      2  N   LIG    1        1.143   1.898   0.001  0.00  0.00    -0.610 N 
ATOM      3  C   LIG    1        1.140   3.368   0.003  0.00  0.00    +0.260 C 
ATOM      4  C   LIG    1        2.010   3.857   1.170  0.00  0.00    +0.020 C 
ATOM      5  C   LIG    1        3.403   3.233   1.057  0.00  0.00    +0.000 C 
ATOM      6  C   LIG    1        3.290   1.709   1.147  0.00  0.00    +0.020 C 
ATOM      7  C   LIG    1        2.433   1.195  -0.015  0.00  0.00    +0.270 C 
ATOM      8  O   LIG    1        0.002  -0.004   0.002  0.00  0.00    -0.520 OA
ENDROOT
BRANCH   1   9
ATOM      9  C   LIG    1       -1.330   1.944   0.019  0.00  0.00    +0.340 C 
BRANCH   9  16
ATOM     10  O   LIG    1       -2.484   0.966  -2.204  0.00  0.00    -0.520 OA
ATOM     11  C   LIG    1       -2.939   0.548  -1.152  0.00  0.00    +0.550 A 
ATOM     12  C   LIG    1       -3.991  -0.383  -1.162  0.00  0.00    -0.320 A 
ATOM     13  C   LIG    1       -4.494  -0.836   0.023  0.00  0.00    +0.210 A 
ATOM     14  C   LIG    1       -3.945  -0.365   1.224  0.00  0.00    -0.080 A 
ATOM     15  C   LIG    1       -2.929   0.528   1.199  0.00  0.00    +0.350 A 
ATOM     16  N   LIG    1       -2.430   0.977   0.019  0.00  0.00    -0.480 N 
BRANCH  12  17
ATOM     17  C   LIG    1       -4.563  -0.872  -2.467  0.00  0.00    +0.530 C 
ATOM     18  F   LIG    1       -3.558  -1.504  -3.209  0.00  0.00    -0.170 F 
ATOM     19  F   LIG    1       -5.065   0.213  -3.192  0.00  0.00    -0.170 F 
ATOM     20  F   LIG    1       -5.596  -1.781  -2.213  0.00  0.00    -0.180 F 
ENDBRANCH  12  17
ENDBRANCH   9  16
ENDBRANCH   1   9
BRANCH   5  21
ATOM     21  C   LIG    1        4.286   3.746   2.196  0.00  0.00    +0.070 C 
BRANCH  21  22
ATOM     22  C   LIG    1        4.498   5.230   2.038  0.00  0.00    -0.080 A 
ATOM     23  C   LIG    1        5.574   5.700   1.308  0.00  0.00    +0.000 A 
ATOM     24  C   LIG    1        5.767   7.060   1.159  0.00  0.00    +0.000 A 
ATOM     25  C   LIG    1        4.888   7.951   1.747  0.00  0.00    +0.000 A 
ATOM     26  C   LIG    1        3.815   7.481   2.481  0.00  0.00    +0.000 A 
ATOM     27  C   LIG    1        3.620   6.120   2.626  0.00  0.00    +0.000 A 
ENDBRANCH  21  22
ENDBRANCH   5  21
TORSDOF 5
