REMARK  Name = ZINCpk00000e8XST.0
REMARK                            x       y       z     vdW  Elec       q    Type
REMARK                         _______ _______ _______ _____ _____    ______ ____
ROOT
ATOM      1  C   LIG    1       -0.949   3.344   0.583  0.00  0.00    +0.520 C 
ATOM      2  N   LIG    1       -1.927   4.268   0.663  0.00  0.00    -0.610 N 
ATOM      3  C   LIG    1       -3.295   3.950   0.232  0.00  0.00    +0.280 C 
ATOM      4  C   LIG    1       -4.259   4.276   1.383  0.00  0.00    +0.030 C 
ATOM      5  C   LIG    1       -4.059   5.731   1.812  0.00  0.00    +0.010 C 
ATOM      6  C   LIG    1       -2.626   5.923   2.315  0.00  0.00    +0.060 C 
ATOM      7  C   LIG    1       -1.645   5.614   1.179  0.00  0.00    +0.280 C 
ATOM      8  O   LIG    1        0.162   3.600   0.995  0.00  0.00    -0.530 OA
ENDROOT
BRANCH   5   9
ATOM      9  C   LIG    1       -5.028   6.067   2.916  0.00  0.00    +0.520 C 
ATOM     10  N   LIG    1       -6.354   5.970   2.701  0.00  0.00    -0.670 N 
ATOM     11  H   LIG    1       -6.688   5.755   1.815  0.00  0.00    +0.410 HD
ATOM     12  O   LIG    1       -4.613   6.425   3.998  0.00  0.00    -0.510 OA
BRANCH  10  13
ATOM     13  C   LIG    1       -7.249   6.177   3.752  0.00  0.00    +0.190 A 
ATOM     14  C   LIG    1       -6.868   5.940   5.071  0.00  0.00    -0.030 A 
ATOM     15  C   LIG    1       -7.781   6.162   6.082  0.00  0.00    +0.280 A 
ATOM     16  N   LIG    1       -9.002   6.583   5.811  0.00  0.00    -0.500 NA
ATOM     17  C   LIG    1       -9.401   6.813   4.575  0.00  0.00    +0.280 A 
ATOM     18  C   LIG    1       -8.548   6.621   3.508  0.00  0.00    -0.070 A 
ENDBRANCH  10  13
ENDBRANCH   5   9
BRANCH   1  19
ATOM     19  C   LIG    1       -1.237   1.993  -0.021  0.00  0.00    +0.240 C 
BRANCH  19  22
ATOM     20  C   LIG    1        0.322  -1.315   1.111  0.00  0.00    +0.110 C 
ATOM     21  C   LIG    1       -0.641  -0.298   0.554  0.00  0.00    +0.510 C 
ATOM     22  N   LIG    1       -0.303   1.006   0.525  0.00  0.00    -0.720 N 
ATOM     23  H   LIG    1        0.561   1.290   0.863  0.00  0.00    +0.410 HD
ATOM     24  O   LIG    1       -1.722  -0.654   0.133  0.00  0.00    -0.540 OA
ENDBRANCH  19  22
BRANCH  19  25
ATOM     25  C   LIG    1       -1.070   2.067  -1.540  0.00  0.00    -0.020 C 
ATOM     26  C   LIG    1       -1.975   3.167  -2.099  0.00  0.00    +0.040 C 
ATOM     27  C   LIG    1       -1.456   0.724  -2.161  0.00  0.00    +0.030 C 
ENDBRANCH  19  25
ENDBRANCH   1  19
TORSDOF 5
