REMARK  Name = ZINCAx0000000iuk.1
REMARK                            x       y       z     vdW  Elec       q    Type
REMARK                         _______ _______ _______ _____ _____    ______ ____
ROOT
ATOM      1  C   LIG    1       -8.350   2.711  -1.204  0.00  0.00    +0.190 C 
ATOM      2  C   LIG    1       -8.269   1.245  -0.866  0.00  0.00    +0.400 A 
ATOM      3  N   LIG    1       -7.097   0.720  -0.675  0.00  0.00    -0.510 NA
ATOM      4  C   LIG    1       -6.947  -0.591  -0.364  0.00  0.00    +0.130 A 
ATOM      5  C   LIG    1       -5.681  -1.160  -0.164  0.00  0.00    +0.160 A 
ATOM      6  C   LIG    1       -5.578  -2.504   0.147  0.00  0.00    +0.070 A 
ATOM      7  C   LIG    1       -6.713  -3.295   0.259  0.00  0.00    +0.030 A 
ATOM      8  C   LIG    1       -7.966  -2.757   0.061  0.00  0.00    +0.080 A 
ATOM      9  C   LIG    1       -8.095  -1.405  -0.253  0.00  0.00    -0.170 A 
ATOM     10  C   LIG    1       -9.408  -0.781  -0.474  0.00  0.00    +0.550 A 
ATOM     11  O   LIG    1      -10.437  -1.425  -0.390  0.00  0.00    -0.480 OA
ATOM     12  N   LIG    1       -9.427   0.539  -0.775  0.00  0.00    -0.530 N 
ENDROOT
BRANCH  12  13
ATOM     13  C   LIG    1      -10.708   1.212  -1.006  0.00  0.00    +0.240 C 
ATOM     14  C   LIG    1      -10.976   2.205   0.130  0.00  0.00    +0.070 C 
ATOM     15  C   LIG    1      -11.131   1.422   1.437  0.00  0.00    +0.080 C 
ATOM     16  C   LIG    1      -12.214   0.389   1.269  0.00  0.00    +0.520 C 
ATOM     17  N   LIG    1      -12.479  -0.154   0.071  0.00  0.00    -0.660 N 
ATOM     18  H   LIG    1      -13.180  -0.822   0.007  0.00  0.00    +0.420 HD
ATOM     19  O   LIG    1      -12.858   0.041   2.235  0.00  0.00    -0.500 OA
ATOM     20  C   LIG    1      -11.814   0.191  -1.041  0.00  0.00    +0.550 C 
ATOM     21  O   LIG    1      -12.109  -0.329  -2.095  0.00  0.00    -0.490 OA
ENDBRANCH  12  13
BRANCH   5  22
ATOM     22  N   LIG    1       -4.531  -0.373  -0.274  0.00  0.00    -0.650 N 
ATOM     23  H   LIG    1       -4.544   0.432  -0.814  0.00  0.00    +0.420 HD
ATOM     24  C   LIG    1       -3.404  -0.733   0.372  0.00  0.00    +0.580 C 
ATOM     25  O   LIG    1       -3.414  -1.686   1.128  0.00  0.00    -0.510 OA
BRANCH  24  26
ATOM     26  C   LIG    1       -2.159   0.029   0.163  0.00  0.00    -0.180 A 
ATOM     27  C   LIG    1       -0.988  -0.408   0.709  0.00  0.00    +0.190 A 
ATOM     28  N   LIG    1        0.168   0.291   0.519  0.00  0.00    -0.370 N 
ATOM     29  C   LIG    1        0.175   1.452  -0.228  0.00  0.00    +0.000 A 
ATOM     30  C   LIG    1       -1.016   1.942  -0.809  0.00  0.00    +0.080 A 
ATOM     31  C   LIG    1        1.477   1.907  -0.227  0.00  0.00    +0.180 A 
ATOM     32  N   LIG    1        2.204   1.050   0.491  0.00  0.00    -0.440 NA
ATOM     33  C   LIG    1        1.444   0.086   0.941  0.00  0.00    +0.220 A 
ATOM     34  C   LIG    1       -0.972  -1.673   1.528  0.00  0.00    +0.160 C 
ATOM     35  C   LIG    1       -2.173   1.258  -0.634  0.00  0.00    +0.030 A 
BRANCH  33  36
ATOM     36  C   LIG    1        1.907  -1.068   1.791  0.00  0.00    +0.030 C 
ATOM     37  C   LIG    1        3.380  -1.093   2.206  0.00  0.00    +0.060 C 
ATOM     38  C   LIG    1        2.866  -2.075   1.152  0.00  0.00    +0.050 C 
ENDBRANCH  33  36
ENDBRANCH  24  26
ENDBRANCH   5  22
TORSDOF 4
