REMARK  Name = ZINCnE000001rUaU.0
REMARK                            x       y       z     vdW  Elec       q    Type
REMARK                         _______ _______ _______ _____ _____    ______ ____
ROOT
ATOM      1  N   LIG    1        2.675  -0.760   3.690  0.00  0.00    -0.650 N 
ATOM      2  H   LIG    1        3.052  -1.114   2.869  0.00  0.00    +0.410 HD
ATOM      3  C   LIG    1        3.258  -1.037   4.873  0.00  0.00    +0.590 C 
ATOM      4  O   LIG    1        2.734  -0.675   5.909  0.00  0.00    -0.510 OA
ENDROOT
BRANCH   1   7
ATOM      5  C   LIG    1       -0.579   0.579   2.643  0.00  0.00    +0.170 A 
ATOM      6  C   LIG    1        0.555  -0.212   2.690  0.00  0.00    -0.130 A 
ATOM      7  C   LIG    1        1.532   0.034   3.646  0.00  0.00    +0.170 A 
ATOM      8  C   LIG    1        1.371   1.069   4.565  0.00  0.00    -0.040 A 
ATOM      9  C   LIG    1        0.255   1.853   4.532  0.00  0.00    +0.110 A 
ATOM     10  C   LIG    1       -0.738   1.622   3.572  0.00  0.00    -0.170 A 
BRANCH  10  11
ATOM     11  C   LIG    1       -1.940   2.465   3.535  0.00  0.00    +0.520 C 
ATOM     12  O   LIG    1       -2.805   2.261   2.695  0.00  0.00    -0.670 OA
ATOM     13  O   LIG    1       -2.075   3.373   4.345  0.00  0.00    -0.700 OA
ENDBRANCH  10  11
BRANCH   5  15
ATOM     14  C   LIG    1       -1.304  -0.731   0.799  0.00  0.00    +0.210 C 
ATOM     15  O   LIG    1       -1.535   0.346   1.709  0.00  0.00    -0.260 OA
ENDBRANCH   5  15
ENDBRANCH   1   7
BRANCH   3  16
ATOM     16  C   LIG    1        4.530  -1.778   4.912  0.00  0.00    +0.010 A 
ATOM     17  C   LIG    1        5.173  -2.084   6.061  0.00  0.00    -0.040 A 
ATOM     18  S   LIG    1        6.600  -2.945   5.683  0.00  0.00    +0.210 S 
ATOM     19  C   LIG    1        6.262  -2.838   4.012  0.00  0.00    +0.040 A 
ATOM     20  N   LIG    1        5.160  -2.205   3.814  0.00  0.00    -0.440 NA
BRANCH  19  21
ATOM     21  C   LIG    1        7.134  -3.405   2.922  0.00  0.00    +0.010 C 
ATOM     22  C   LIG    1        6.337  -4.431   2.114  0.00  0.00    +0.060 C 
ATOM     23  C   LIG    1        8.354  -4.085   3.546  0.00  0.00    +0.040 C 
ATOM     24  C   LIG    1        7.596  -2.276   1.998  0.00  0.00    +0.060 C 
ENDBRANCH  19  21
ENDBRANCH   3  16
TORSDOF 5
