REMARK  Name = ZINCb80000006kDY.0
REMARK                            x       y       z     vdW  Elec       q    Type
REMARK                         _______ _______ _______ _____ _____    ______ ____
ROOT
ATOM      1  C   LIG    1       -0.699   1.479   1.216  0.00  0.00    +0.190 C 
ENDROOT
BRANCH   1   2
ATOM      2  N   LIG    1       -0.012   1.005   0.008  0.00  0.00    -0.630 N 
ATOM      3  H   LIG    1       -0.500   1.339  -0.810  0.00  0.00    +0.430 HD
ATOM      4  H   LIG    1        0.935   1.354   0.000  0.00  0.00    +0.450 HD
ATOM      5  H   LIG    1        0.002  -0.004   0.002  0.00  0.00    +0.430 HD
ENDBRANCH   1   2
BRANCH   1   7
ATOM      6  C   LIG    1       -2.911   1.555   0.056  0.00  0.00    +0.030 C 
ATOM      7  C   LIG    1       -2.135   0.949   1.227  0.00  0.00    +0.050 C 
ENDBRANCH   1   7
BRANCH   1   8
ATOM      8  C   LIG    1        0.041   0.972   2.456  0.00  0.00    +0.170 C 
BRANCH   8   9
ATOM      9  O   LIG    1        1.343   1.559   2.507  0.00  0.00    -0.370 OA
BRANCH   9  10
ATOM     10  C   LIG    1        2.121   1.149   3.633  0.00  0.00    +0.080 C 
ATOM     11  C   LIG    1        2.927  -0.100   3.269  0.00  0.00    +0.020 C 
BRANCH  10  12
ATOM     12  C   LIG    1        3.064   2.259   4.022  0.00  0.00    +0.500 C 
ATOM     13  O   LIG    1        3.133   3.267   3.340  0.00  0.00    -0.680 OA
ATOM     14  O   LIG    1        3.756   2.149   5.019  0.00  0.00    -0.680 OA
ENDBRANCH  10  12
ENDBRANCH   9  10
ENDBRANCH   8   9
ENDBRANCH   1   8
TORSDOF 6
