REMARK  Name = ZINCrH000004mDQH.0
REMARK                            x       y       z     vdW  Elec       q    Type
REMARK                         _______ _______ _______ _____ _____    ______ ____
ROOT
ATOM      1  N   LIG    1        0.756  -0.472  -1.170  0.00  0.00    -0.530 NA
ATOM      2  C   LIG    1        2.130   0.050  -1.148  0.00  0.00    +0.150 C 
ATOM      3  C   LIG    1        2.088   1.581  -1.128  0.00  0.00    +0.220 C 
ATOM      4  O   LIG    1        1.325   2.017   0.000  0.00  0.00    -0.370 OA
ATOM      5  C   LIG    1       -0.019   1.527   0.010  0.00  0.00    +0.220 C 
ATOM      6  C   LIG    1        0.002  -0.004   0.002  0.00  0.00    +0.170 C 
ENDROOT
BRANCH   5   7
ATOM      7  C   LIG    1       -0.723   2.014   1.251  0.00  0.00    -0.050 A 
ATOM      8  C   LIG    1       -0.021   2.149   2.435  0.00  0.00    +0.020 A 
ATOM      9  C   LIG    1       -0.664   2.596   3.574  0.00  0.00    +0.050 A 
ATOM     10  C   LIG    1       -2.009   2.908   3.533  0.00  0.00    -0.060 A 
ATOM     11  C   LIG    1       -2.715   2.773   2.346  0.00  0.00    +0.100 A 
ATOM     12  C   LIG    1       -2.067   2.330   1.203  0.00  0.00    +0.020 A 
BRANCH  11  13
ATOM     13  O   LIG    1       -4.038   3.080   2.302  0.00  0.00    -0.320 OA
BRANCH  13  14
ATOM     14  C   LIG    1       -4.639   3.536   3.516  0.00  0.00    +0.590 C 
ATOM     15  F   LIG    1       -3.996   4.703   3.945  0.00  0.00    -0.200 F 
ATOM     16  F   LIG    1       -4.514   2.548   4.498  0.00  0.00    -0.200 F 
ENDBRANCH  13  14
ENDBRANCH  11  13
ENDBRANCH   5   7
BRANCH   1  17
ATOM     17  C   LIG    1        0.752  -1.939  -1.247  0.00  0.00    +0.240 C 
BRANCH  17  21
ATOM     18  C   LIG    1        2.334  -3.176  -5.031  0.00  0.00    +0.180 A 
ATOM     19  C   LIG    1        0.975  -2.945  -4.882  0.00  0.00    -0.070 A 
ATOM     20  C   LIG    1        0.470  -2.551  -3.658  0.00  0.00    +0.120 A 
ATOM     21  C   LIG    1        1.316  -2.374  -2.575  0.00  0.00    -0.120 A 
ATOM     22  C   LIG    1        2.669  -2.600  -2.706  0.00  0.00    +0.110 A 
ATOM     23  C   LIG    1        3.192  -3.004  -3.936  0.00  0.00    -0.060 A 
BRANCH  18  25
ATOM     24  C   LIG    1        1.895  -3.723  -7.301  0.00  0.00    +0.250 C 
ATOM     25  O   LIG    1        2.830  -3.568  -6.232  0.00  0.00    -0.310 OA
ENDBRANCH  18  25
BRANCH  23  26
ATOM     26  C   LIG    1        4.598  -3.240  -4.079  0.00  0.00    +0.260 C 
ATOM     27  N   LIG    1        5.712  -3.427  -4.192  0.00  0.00    -0.410 NA
ENDBRANCH  23  26
ENDBRANCH  17  21
ENDBRANCH   1  17
TORSDOF 7
