REMARK  Name = ZINCkj00000xXbRH.1
REMARK                            x       y       z     vdW  Elec       q    Type
REMARK                         _______ _______ _______ _____ _____    ______ ____
ROOT
ATOM      1  C   LIG    1       -1.988   4.211   0.043  0.00  0.00    +0.610 C 
ATOM      2  N   LIG    1       -1.595   5.496  -0.056  0.00  0.00    -0.610 N 
ATOM      3  C   LIG    1       -0.170   5.836  -0.174  0.00  0.00    +0.320 C 
ATOM      4  C   LIG    1        0.191   6.848   0.912  0.00  0.00    +0.080 C 
ATOM      5  C   LIG    1       -0.752   8.049   0.822  0.00  0.00    +0.100 C 
ATOM      6  C   LIG    1       -0.372   9.078   1.890  0.00  0.00    +0.250 C 
ATOM      7  N   LIG    1       -1.242  10.255   1.763  0.00  0.00    -0.390 N 
ATOM      8  C   LIG    1       -1.073  10.846   0.429  0.00  0.00    +0.240 C 
ATOM      9  C   LIG    1       -1.451   9.814  -0.636  0.00  0.00    +0.260 C 
ATOM     10  C   LIG    1       -0.880  11.245   2.787  0.00  0.00    +0.330 C 
ATOM     11  H   LIG    1       -2.204   9.978   1.889  0.00  0.00    +0.420 HD
ATOM     12  C   LIG    1       -2.193   7.588   1.048  0.00  0.00    +0.010 C 
ATOM     13  O   LIG    1       -0.640   8.648  -0.472  0.00  0.00    -0.340 OA
ATOM     14  C   LIG    1       -2.582   6.585  -0.043  0.00  0.00    +0.280 C 
ATOM     15  O   LIG    1       -1.159   3.326   0.134  0.00  0.00    -0.500 OA
ENDROOT
BRANCH   1  18
ATOM     16  C   LIG    1       -3.391   1.986   1.760  0.00  0.00    +0.150 C 
ATOM     17  C   LIG    1       -4.072   2.908   0.781  0.00  0.00    -0.070 A 
ATOM     18  C   LIG    1       -3.421   3.878   0.040  0.00  0.00    -0.290 A 
ATOM     19  S   LIG    1       -4.713   4.632  -0.908  0.00  0.00    +0.410 S 
ATOM     20  N   LIG    1       -5.875   3.744  -0.356  0.00  0.00    -0.510 NA
ATOM     21  C   LIG    1       -5.420   2.890   0.505  0.00  0.00    +0.260 A 
ENDBRANCH   1  18
TORSDOF 1
