REMARK  Name = ZINCkj00000xXbRH.0
REMARK                            x       y       z     vdW  Elec       q    Type
REMARK                         _______ _______ _______ _____ _____    ______ ____
ROOT
ATOM      1  C   LIG    1        1.340   1.702   2.775  0.00  0.00    +0.610 C 
ATOM      2  N   LIG    1        1.763   1.908   4.038  0.00  0.00    -0.610 N 
ATOM      3  C   LIG    1        0.811   2.269   5.098  0.00  0.00    +0.310 C 
ATOM      4  C   LIG    1        1.292   3.544   5.786  0.00  0.00    +0.010 C 
ATOM      5  C   LIG    1        2.730   3.349   6.272  0.00  0.00    +0.100 C 
ATOM      6  C   LIG    1        3.203   4.616   6.988  0.00  0.00    +0.250 C 
ATOM      7  N   LIG    1        2.361   4.851   8.170  0.00  0.00    -0.390 N 
ATOM      8  C   LIG    1        2.466   3.703   9.081  0.00  0.00    +0.240 C 
ATOM      9  C   LIG    1        1.995   2.438   8.360  0.00  0.00    +0.250 C 
ATOM     10  C   LIG    1        2.813   6.067   8.859  0.00  0.00    +0.330 C 
ATOM     11  H   LIG    1        1.401   4.965   7.882  0.00  0.00    +0.420 HD
ATOM     12  C   LIG    1        3.642   3.068   5.076  0.00  0.00    +0.080 C 
ATOM     13  O   LIG    1        2.780   2.246   7.180  0.00  0.00    -0.340 OA
ATOM     14  C   LIG    1        3.186   1.782   4.381  0.00  0.00    +0.290 C 
ATOM     15  O   LIG    1        0.178   1.911   2.482  0.00  0.00    -0.510 OA
ENDROOT
BRANCH   1  18
ATOM     16  C   LIG    1        1.425   2.582  -0.239  0.00  0.00    +0.150 C 
ATOM     17  C   LIG    1        2.349   1.590   0.419  0.00  0.00    -0.070 A 
ATOM     18  C   LIG    1        2.283   1.226   1.752  0.00  0.00    -0.300 A 
ATOM     19  S   LIG    1        3.596   0.053   1.942  0.00  0.00    +0.420 S 
ATOM     20  N   LIG    1        4.090   0.103   0.459  0.00  0.00    -0.510 NA
ATOM     21  C   LIG    1        3.365   0.926  -0.230  0.00  0.00    +0.260 A 
ENDBRANCH   1  18
TORSDOF 1
