REMARK  Name = ZINCnE00000dbjoM.1
REMARK                            x       y       z     vdW  Elec       q    Type
REMARK                         _______ _______ _______ _____ _____    ______ ____
ROOT
ATOM      1  C   LIG    1        3.675   3.285  -0.289  0.00  0.00    +0.100 A 
ATOM      2  C   LIG    1        3.638   1.940   0.053  0.00  0.00    +0.060 A 
ATOM      3  C   LIG    1        2.425   1.287   0.152  0.00  0.00    +0.020 A 
ATOM      4  C   LIG    1        1.248   1.972  -0.088  0.00  0.00    -0.090 A 
ATOM      5  C   LIG    1        1.282   3.310  -0.434  0.00  0.00    +0.080 A 
ATOM      6  C   LIG    1        2.491   3.970  -0.530  0.00  0.00    -0.020 A 
ENDROOT
BRANCH   1   7
ATOM      7  N   LIG    1        4.902   3.949  -0.391  0.00  0.00    -0.620 N 
ATOM      8  H   LIG    1        5.015   4.825   0.009  0.00  0.00    +0.400 HD
BRANCH   7   9
ATOM      9  C   LIG    1        5.929   3.371  -1.047  0.00  0.00    +0.550 C 
ATOM     10  S   LIG    1        5.767   1.780  -1.658  0.00  0.00    -0.610 S 
BRANCH   9  11
ATOM     11  N   LIG    1        7.082   4.046  -1.220  0.00  0.00    -0.680 N 
ATOM     12  H   LIG    1        7.174   4.947  -0.874  0.00  0.00    +0.400 HD
BRANCH  11  13
ATOM     13  C   LIG    1        8.198   3.418  -1.932  0.00  0.00    +0.340 C 
BRANCH  13  15
ATOM     14  C   LIG    1       10.534   4.008  -1.538  0.00  0.00    +0.040 C 
ATOM     15  C   LIG    1        9.361   4.375  -1.989  0.00  0.00    -0.060 C 
ENDBRANCH  13  15
ENDBRANCH  11  13
ENDBRANCH   9  11
ENDBRANCH   7   9
ENDBRANCH   1   7
BRANCH   4  16
ATOM     16  C   LIG    1       -0.074   1.256   0.021  0.00  0.00    +0.170 C 
ATOM     17  O   LIG    1       -1.132   2.158  -0.310  0.00  0.00    -0.780 OA
BRANCH  16  18
ATOM     18  C   LIG    1       -0.093   0.071  -0.947  0.00  0.00    +0.420 C 
ATOM     19  F   LIG    1       -1.321  -0.593  -0.846  0.00  0.00    -0.190 F 
ATOM     20  F   LIG    1        0.943  -0.812  -0.623  0.00  0.00    -0.200 F 
ATOM     21  F   LIG    1        0.080   0.534  -2.255  0.00  0.00    -0.180 F 
ENDBRANCH  16  18
BRANCH  16  22
ATOM     22  C   LIG    1       -0.263   0.750   1.452  0.00  0.00    +0.420 C 
ATOM     23  F   LIG    1       -0.206   1.830   2.340  0.00  0.00    -0.180 F 
ATOM     24  F   LIG    1        0.751  -0.163   1.762  0.00  0.00    -0.200 F 
ATOM     25  F   LIG    1       -1.508   0.120   1.563  0.00  0.00    -0.180 F 
ENDBRANCH  16  22
ENDBRANCH   4  16
TORSDOF 8
