REMARK  Name = ZINCrD00000e2de2.0
REMARK                            x       y       z     vdW  Elec       q    Type
REMARK                         _______ _______ _______ _____ _____    ______ ____
ROOT
ATOM      1  N   LIG    1        2.409   1.665  -0.128  0.00  0.00    -0.660 N 
ATOM      2  H   LIG    1        2.576   0.711  -0.079  0.00  0.00    +0.410 HD
ATOM      3  C   LIG    1        3.442   2.530  -0.151  0.00  0.00    +0.730 C 
ATOM      4  N   LIG    1        4.708   2.069  -0.105  0.00  0.00    -0.630 N 
ATOM      5  C   LIG    1        5.104   0.651  -0.029  0.00  0.00    +0.250 C 
ATOM      6  C   LIG    1        6.515   0.667   0.608  0.00  0.00    +0.060 C 
ATOM      7  C   LIG    1        7.130   1.941  -0.028  0.00  0.00    +0.160 C 
ATOM      8  F   LIG    1        7.642   1.662  -1.300  0.00  0.00    -0.180 F 
ATOM      9  C   LIG    1        5.923   2.897  -0.129  0.00  0.00    +0.300 C 
ATOM     10  O   LIG    1        3.233   3.726  -0.213  0.00  0.00    -0.560 OA
ENDROOT
BRANCH   7  11
ATOM     11  C   LIG    1        8.202   2.517   0.861  0.00  0.00    -0.080 A 
ATOM     12  C   LIG    1        9.098   3.440   0.355  0.00  0.00    +0.030 A 
ATOM     13  C   LIG    1       10.078   3.974   1.171  0.00  0.00    -0.050 A 
ATOM     14  C   LIG    1       10.171   3.576   2.491  0.00  0.00    -0.010 A 
ATOM     15  C   LIG    1        9.278   2.646   2.998  0.00  0.00    +0.110 A 
ATOM     16  F   LIG    1        9.368   2.256   4.288  0.00  0.00    -0.130 F 
ATOM     17  C   LIG    1       11.050   4.985   0.619  0.00  0.00    +0.100 C 
ATOM     18  C   LIG    1        8.293   2.117   2.181  0.00  0.00    -0.010 A 
ENDBRANCH   7  11
BRANCH   1  21
ATOM     19  C   LIG    1       -0.680   3.516  -0.274  0.00  0.00    -0.040 A 
ATOM     20  C   LIG    1        0.700   3.492  -0.248  0.00  0.00    +0.090 A 
ATOM     21  C   LIG    1        1.087   2.147  -0.176  0.00  0.00    +0.070 A 
ATOM     22  C   LIG    1       -0.043   1.391  -0.160  0.00  0.00    +0.180 A 
ATOM     23  N   LIG    1       -1.121   2.213  -0.225  0.00  0.00    -0.410 N 
ATOM     24  C   LIG    1       -2.522   1.785  -0.237  0.00  0.00    +0.340 C 
BRANCH  19  25
ATOM     25  C   LIG    1       -1.522   4.712  -0.347  0.00  0.00    +0.540 C 
ATOM     26  O   LIG    1       -1.011   5.815  -0.391  0.00  0.00    -0.490 OA
BRANCH  25  28
ATOM     27  C   LIG    1       -3.638   5.819  -0.438  0.00  0.00    +0.280 C 
ATOM     28  O   LIG    1       -2.866   4.591  -0.365  0.00  0.00    -0.360 OA
ENDBRANCH  25  28
ENDBRANCH  19  25
ENDBRANCH   1  21
TORSDOF 4
