REMARK  Name = ZINCqH0000051vF5.0
REMARK                            x       y       z     vdW  Elec       q    Type
REMARK                         _______ _______ _______ _____ _____    ______ ____
ROOT
ATOM      1  C   LIG    1       -0.878   3.105   1.196  0.00  0.00    +0.010 C 
ATOM      2  C   LIG    1       -0.736   1.583   1.264  0.00  0.00    +0.030 C 
ATOM      3  C   LIG    1       -0.013   1.086   0.008  0.00  0.00    +0.280 C 
ATOM      4  N   LIG    1       -0.729   1.575  -1.178  0.00  0.00    -0.610 N 
ATOM      5  C   LIG    1       -0.997   3.015  -1.297  0.00  0.00    +0.270 C 
ATOM      6  C   LIG    1       -1.132   0.720  -2.138  0.00  0.00    +0.550 C 
ATOM      7  O   LIG    1       -0.905  -0.467  -2.028  0.00  0.00    -0.530 OA
ATOM      8  C   LIG    1       -1.712   3.490  -0.028  0.00  0.00    +0.050 C 
ENDROOT
BRANCH   1  10
ATOM      9  O   LIG    1       -2.612   4.202   2.363  0.00  0.00    -0.460 OA
ATOM     10  C   LIG    1       -1.562   3.601   2.445  0.00  0.00    +0.510 C 
ATOM     11  N   LIG    1       -1.007   3.376   3.652  0.00  0.00    -0.640 N 
ATOM     12  H   LIG    1       -0.167   2.894   3.717  0.00  0.00    +0.420 HD
BRANCH  11  13
ATOM     13  C   LIG    1       -1.637   3.833   4.803  0.00  0.00    +0.270 A 
ATOM     14  N   LIG    1       -2.755   4.489   4.827  0.00  0.00    -0.480 NA
ATOM     15  C   LIG    1       -3.215   4.844   6.012  0.00  0.00    +0.250 A 
ATOM     16  C   LIG    1       -2.443   4.479   7.038  0.00  0.00    -0.090 A 
ATOM     17  S   LIG    1       -1.048   3.618   6.393  0.00  0.00    +0.120 S 
ENDBRANCH  11  13
ENDBRANCH   1  10
BRANCH   6  18
ATOM     18  C   LIG    1       -1.866   1.237  -3.349  0.00  0.00    -0.050 C 
ATOM     19  C   LIG    1       -3.343   0.864  -3.493  0.00  0.00    +0.080 C 
ATOM     20  C   LIG    1       -2.297   0.216  -4.403  0.00  0.00    +0.040 C 
BRANCH  20  21
ATOM     21  C   LIG    1       -2.266   0.650  -5.846  0.00  0.00    -0.050 A 
ATOM     22  C   LIG    1       -3.038   1.718  -6.263  0.00  0.00    +0.020 A 
ATOM     23  C   LIG    1       -3.006   2.119  -7.586  0.00  0.00    +0.020 A 
ATOM     24  C   LIG    1       -2.210   1.446  -8.494  0.00  0.00    +0.020 A 
ATOM     25  C   LIG    1       -1.441   0.375  -8.078  0.00  0.00    +0.030 A 
ATOM     26  C   LIG    1       -1.469  -0.024  -6.754  0.00  0.00    -0.030 A 
ATOM     27 CL   LIG    1       -0.504  -1.369  -6.232  0.00  0.00    -0.060 Cl
ENDBRANCH  20  21
ENDBRANCH   6  18
TORSDOF 4
