REMARK  Name = ZINCnE000001TAvl.0
REMARK                            x       y       z     vdW  Elec       q    Type
REMARK                         _______ _______ _______ _____ _____    ______ ____
ROOT
ATOM      1  C   LIG    1       -1.264   2.125  -0.033  0.00  0.00    +0.030 A 
ATOM      2  C   LIG    1       -1.272   3.474  -0.128  0.00  0.00    -0.020 A 
ATOM      3  S   LIG    1       -2.891   4.024  -0.154  0.00  0.00    +0.180 S 
ATOM      4  C   LIG    1       -3.474   2.368  -0.025  0.00  0.00    +0.080 A 
ATOM      5  N   LIG    1       -2.461   1.558   0.023  0.00  0.00    -0.420 NA
ENDROOT
BRANCH   1  11
ATOM      6  C   LIG    1        1.353  -1.569   1.460  0.00  0.00    -0.110 C 
ATOM      7  C   LIG    1        0.083  -2.361   1.780  0.00  0.00    +0.030 C 
ATOM      8  C   LIG    1       -1.091  -1.397   1.958  0.00  0.00    -0.010 C 
ATOM      9  C   LIG    1       -1.316  -0.627   0.657  0.00  0.00    +0.270 C 
ATOM     10  N   LIG    1       -0.058   0.020   0.261  0.00  0.00    -0.580 N 
ATOM     11  C   LIG    1       -0.016   1.344   0.009  0.00  0.00    +0.580 C 
ATOM     12  O   LIG    1        1.052   1.892  -0.187  0.00  0.00    -0.540 OA
ATOM     13  C   LIG    1        1.154  -0.802   0.149  0.00  0.00    +0.290 C 
BRANCH   6  15
ATOM     14  O   LIG    1        3.626  -2.084   1.059  0.00  0.00    -0.700 OA
ATOM     15  C   LIG    1        2.516  -2.517   1.318  0.00  0.00    +0.500 C 
ATOM     16  O   LIG    1        2.346  -3.715   1.462  0.00  0.00    -0.690 OA
ENDBRANCH   6  15
ENDBRANCH   1  11
BRANCH   4  17
ATOM     17  C   LIG    1       -4.896   1.963   0.022  0.00  0.00    -0.010 A 
ATOM     18  C   LIG    1       -5.901   2.929  -0.037  0.00  0.00    +0.030 A 
ATOM     19  C   LIG    1       -7.226   2.545   0.006  0.00  0.00    +0.040 A 
ATOM     20  C   LIG    1       -7.559   1.207   0.109  0.00  0.00    +0.040 A 
ATOM     21  C   LIG    1       -6.566   0.243   0.168  0.00  0.00    -0.030 A 
ATOM     22 CL   LIG    1       -6.994  -1.434   0.296  0.00  0.00    -0.060 Cl
ATOM     23  C   LIG    1       -5.237   0.614   0.120  0.00  0.00    +0.080 A 
ENDBRANCH   4  17
TORSDOF 3
