REMARK  Name = ZINCtV000002Mavd.0
REMARK                            x       y       z     vdW  Elec       q    Type
REMARK                         _______ _______ _______ _____ _____    ______ ____
ROOT
ATOM      1  O   LIG    1        2.199   1.558  -0.011  0.00  0.00    -0.530 OA
ATOM      2  C   LIG    1        1.140   2.151   0.003  0.00  0.00    +0.530 C 
ATOM      3  N   LIG    1       -0.018   1.461   0.010  0.00  0.00    -0.600 N 
ENDROOT
BRANCH   3   4
ATOM      4  C   LIG    1       -1.296   2.176   0.020  0.00  0.00    +0.370 C 
BRANCH   4   5
ATOM      5  C   LIG    1       -1.728   2.413   1.444  0.00  0.00    -0.220 A 
ATOM      6  C   LIG    1       -1.416   3.486   2.174  0.00  0.00    +0.020 A 
ATOM      7  C   LIG    1       -1.927   3.485   3.460  0.00  0.00    +0.000 A 
ATOM      8  C   LIG    1       -2.654   2.412   3.775  0.00  0.00    -0.050 A 
ATOM      9  S   LIG    1       -2.726   1.323   2.396  0.00  0.00    +0.140 S 
ENDBRANCH   4   5
ENDBRANCH   3   4
BRANCH   3  10
ATOM     10  C   LIG    1        0.002  -0.004   0.002  0.00  0.00    +0.350 C 
BRANCH  10  11
ATOM     11  C   LIG    1        0.022  -0.514   1.420  0.00  0.00    -0.140 A 
ATOM     12  C   LIG    1        1.237  -0.736   2.054  0.00  0.00    +0.060 A 
ATOM     13  C   LIG    1        1.278  -1.197   3.352  0.00  0.00    -0.020 A 
ATOM     14  C   LIG    1        0.092  -1.454   4.032  0.00  0.00    +0.100 A 
ATOM     15  N   LIG    1       -0.195  -1.913   5.298  0.00  0.00    -0.600 N 
ATOM     16  H   LIG    1        0.465  -2.147   5.968  0.00  0.00    +0.420 HD
ATOM     17  C   LIG    1       -1.551  -1.988   5.469  0.00  0.00    +0.220 A 
ATOM     18  C   LIG    1       -2.176  -1.591   4.350  0.00  0.00    -0.060 A 
ATOM     19  C   LIG    1       -1.137  -1.232   3.382  0.00  0.00    -0.110 A 
ATOM     20  C   LIG    1       -1.155  -0.759   2.069  0.00  0.00    +0.090 A 
ENDBRANCH  10  11
ENDBRANCH   3  10
BRANCH   2  21
ATOM     21  C   LIG    1        1.120   3.657   0.011  0.00  0.00    +0.090 C 
BRANCH  21  22
ATOM     22  C   LIG    1        2.555   4.187   0.000  0.00  0.00    +0.110 C 
BRANCH  22  23
ATOM     23  S   LIG    1        2.530   6.001   0.010  0.00  0.00    -0.100 S 
BRANCH  23  24
ATOM     24  C   LIG    1        4.242   6.420  -0.004  0.00  0.00    -0.070 A 
ATOM     25  C   LIG    1        5.204   5.418  -0.013  0.00  0.00    +0.000 A 
ATOM     26  C   LIG    1        6.545   5.750  -0.029  0.00  0.00    +0.050 A 
ATOM     27  C   LIG    1        6.930   7.078  -0.025  0.00  0.00    +0.020 A 
ATOM     28  C   LIG    1        5.974   8.079  -0.011  0.00  0.00    -0.020 A 
ATOM     29 CL   LIG    1        6.464   9.745  -0.007  0.00  0.00    -0.060 Cl
ATOM     30  C   LIG    1        4.632   7.754  -0.001  0.00  0.00    +0.050 A 
ENDBRANCH  23  24
ENDBRANCH  22  23
ENDBRANCH  21  22
ENDBRANCH   2  21
TORSDOF 8
