REMARK  Name = ZINCpe000000THnu.0
REMARK                            x       y       z     vdW  Elec       q    Type
REMARK                         _______ _______ _______ _____ _____    ______ ____
ROOT
ATOM      1  C   LIG    1        1.401   6.775   5.338  0.00  0.00    +0.150 C 
ATOM      2  C   LIG    1        2.068   6.649   6.731  0.00  0.00    +0.050 C 
ATOM      3  C   LIG    1        3.530   6.285   6.383  0.00  0.00    +0.020 C 
ATOM      4  C   LIG    1        3.731   6.772   4.936  0.00  0.00    +0.200 C 
ATOM      5  N   LIG    1        2.463   7.401   4.509  0.00  0.00    -0.490 NA
ENDROOT
BRANCH   1   8
ATOM      6  N   LIG    1       -0.893   7.278   6.116  0.00  0.00    -0.530 N 
ATOM      7  H   LIG    1       -0.888   6.426   6.580  0.00  0.00    +0.430 HD
ATOM      8  C   LIG    1        0.187   7.665   5.408  0.00  0.00    +0.520 C 
ATOM      9  O   LIG    1        0.182   8.730   4.828  0.00  0.00    -0.510 OA
BRANCH   6  11
ATOM     10  C   LIG    1       -3.101   7.718   6.888  0.00  0.00    +0.660 C 
ATOM     11  N   LIG    1       -2.021   8.105   6.181  0.00  0.00    -0.490 N 
ATOM     12  H   LIG    1       -2.026   8.957   5.717  0.00  0.00    +0.450 HD
ATOM     13  O   LIG    1       -4.080   8.436   6.945  0.00  0.00    -0.550 OA
BRANCH  10  14
ATOM     14  O   LIG    1       -3.095   6.536   7.533  0.00  0.00    -0.370 OA
BRANCH  14  16
ATOM     15  C   LIG    1       -4.099   4.816   8.934  0.00  0.00    +0.080 C 
ATOM     16  C   LIG    1       -4.292   6.183   8.275  0.00  0.00    +0.230 C 
ENDBRANCH  14  16
ENDBRANCH  10  14
ENDBRANCH   6  11
ENDBRANCH   1   8
BRANCH   5  17
ATOM     17  C   LIG    1        2.217   7.171   3.079  0.00  0.00    +0.150 C 
BRANCH  17  18
ATOM     18  C   LIG    1        3.276   7.907   2.255  0.00  0.00    +0.240 C 
BRANCH  18  19
ATOM     19  O   LIG    1        4.556   7.318   2.492  0.00  0.00    -0.550 OA
ATOM     20  H   LIG    1        4.609   6.382   2.254  0.00  0.00    +0.370 HD
ENDBRANCH  18  19
BRANCH  18  21
ATOM     21  C   LIG    1        2.932   7.798   0.768  0.00  0.00    +0.140 C 
BRANCH  21  22
ATOM     22  O   LIG    1        3.854   8.581   0.007  0.00  0.00    -0.370 OA
BRANCH  22  23
ATOM     23  C   LIG    1        3.620   8.548  -1.402  0.00  0.00    +0.260 C 
BRANCH  23  24
ATOM     24  C   LIG    1        4.645   9.403  -2.102  0.00  0.00    -0.190 A 
ATOM     25  C   LIG    1        5.827   8.975  -2.548  0.00  0.00    +0.030 A 
ATOM     26  C   LIG    1        6.604   9.944  -3.161  0.00  0.00    +0.000 A 
ATOM     27  C   LIG    1        6.053  11.157  -3.212  0.00  0.00    -0.040 A 
ATOM     28  S   LIG    1        4.465  11.116  -2.455  0.00  0.00    +0.120 S 
ENDBRANCH  23  24
ENDBRANCH  22  23
ENDBRANCH  21  22
ENDBRANCH  18  21
ENDBRANCH  17  18
ENDBRANCH   5  17
TORSDOF 11
