REMARK  Name = ZINCAx0000000bkO.0
REMARK                            x       y       z     vdW  Elec       q    Type
REMARK                         _______ _______ _______ _____ _____    ______ ____
ROOT
ATOM      1  C   LIG    1        4.509   4.241   2.200  0.00  0.00    -0.030 C 
ATOM      2  C   LIG    1        4.251   5.428   1.269  0.00  0.00    +0.040 C 
ATOM      3  C   LIG    1        2.774   5.828   1.355  0.00  0.00    +0.280 C 
ATOM      4  N   LIG    1        1.948   4.647   1.071  0.00  0.00    -0.610 N 
ATOM      5  C   LIG    1        2.172   3.423   1.851  0.00  0.00    +0.280 C 
ATOM      6  C   LIG    1        0.997   4.689   0.116  0.00  0.00    +0.520 C 
ATOM      7  O   LIG    1        0.878   5.675  -0.579  0.00  0.00    -0.530 OA
ATOM      8  C   LIG    1        3.659   3.048   1.755  0.00  0.00    +0.040 C 
ENDROOT
BRANCH   6   9
ATOM      9  C   LIG    1        0.082   3.509  -0.088  0.00  0.00    -0.010 C 
ATOM     10  C   LIG    1       -1.038   3.546   0.954  0.00  0.00    +0.040 C 
ATOM     11  C   LIG    1       -1.946   2.327   0.766  0.00  0.00    +0.290 C 
ATOM     12  N   LIG    1       -2.417   2.299  -0.626  0.00  0.00    -0.610 N 
ATOM     13  C   LIG    1       -1.425   2.350  -1.709  0.00  0.00    +0.270 C 
ATOM     14  C   LIG    1       -3.734   2.227  -0.904  0.00  0.00    +0.570 C 
ATOM     15  O   LIG    1       -4.549   2.288  -0.004  0.00  0.00    -0.530 OA
ATOM     16  C   LIG    1       -0.523   3.569  -1.493  0.00  0.00    +0.040 C 
BRANCH  14  17
ATOM     17  C   LIG    1       -4.187   2.073  -2.303  0.00  0.00    -0.190 A 
ATOM     18  C   LIG    1       -5.351   2.710  -2.748  0.00  0.00    +0.120 A 
ATOM     19  C   LIG    1       -5.728   2.539  -4.069  0.00  0.00    -0.030 A 
ATOM     20  C   LIG    1       -4.958   1.741  -4.895  0.00  0.00    +0.280 A 
ATOM     21  N   LIG    1       -3.868   1.147  -4.446  0.00  0.00    -0.490 NA
ATOM     22  C   LIG    1       -3.465   1.285  -3.200  0.00  0.00    +0.290 A 
ENDBRANCH  14  17
ENDBRANCH   6   9
BRANCH   1  23
ATOM     23  C   LIG    1        5.968   3.867   2.143  0.00  0.00    +0.400 C 
ATOM     24  O   LIG    1        6.625   4.136   1.160  0.00  0.00    -0.440 OA
BRANCH  23  31
ATOM     25  C   LIG    1        8.778  -0.960   5.550  0.00  0.00    +0.070 C 
ATOM     26  C   LIG    1        9.391   0.303   6.159  0.00  0.00    +0.240 C 
ATOM     27  O   LIG    1        8.351   1.232   6.474  0.00  0.00    -0.290 OA
ATOM     28  C   LIG    1        7.765   1.871   5.429  0.00  0.00    +0.120 A 
ATOM     29  C   LIG    1        6.422   2.217   5.479  0.00  0.00    +0.030 A 
ATOM     30  C   LIG    1        5.837   2.870   4.416  0.00  0.00    +0.090 A 
ATOM     31  C   LIG    1        6.593   3.176   3.278  0.00  0.00    -0.160 A 
ATOM     32  C   LIG    1        7.949   2.827   3.228  0.00  0.00    +0.080 A 
ATOM     33  C   LIG    1        8.528   2.179   4.299  0.00  0.00    +0.080 A 
ATOM     34  N   LIG    1        9.884   1.821   4.269  0.00  0.00    -0.660 N 
ATOM     35  H   LIG    1       10.482   2.210   3.612  0.00  0.00    +0.420 HD
ATOM     36  C   LIG    1       10.344   0.925   5.170  0.00  0.00    +0.500 C 
ATOM     37  O   LIG    1       11.518   0.623   5.183  0.00  0.00    -0.500 OA
ENDBRANCH  23  31
ENDBRANCH   1  23
TORSDOF 4
