REMARK  Name = ZINCbu00000003ue.0
REMARK                            x       y       z     vdW  Elec       q    Type
REMARK                         _______ _______ _______ _____ _____    ______ ____
ROOT
ATOM      1  N   LIG    1       -0.018   1.093   2.457  0.00  0.00    -0.500 N 
ATOM      2  H   LIG    1        0.901   1.507   2.493  0.00  0.00    +0.420 HD
ATOM      3  H   LIG    1        0.067   0.088   2.410  0.00  0.00    +0.430 HD
ENDROOT
BRANCH   1   7
ATOM      4  C   LIG    1       -0.773   3.123  -1.223  0.00  0.00    +0.020 C 
ATOM      5  C   LIG    1       -0.753   1.593  -1.232  0.00  0.00    +0.030 C 
ATOM      6  C   LIG    1       -0.013   1.086   0.008  0.00  0.00    +0.040 C 
ATOM      7  C   LIG    1       -0.729   1.579   1.267  0.00  0.00    +0.170 C 
ATOM      8  C   LIG    1       -0.750   3.109   1.275  0.00  0.00    +0.030 C 
ATOM      9  C   LIG    1       -1.490   3.616   0.036  0.00  0.00    +0.030 C 
ENDBRANCH   1   7
BRANCH   1  10
ATOM     10  C   LIG    1       -0.771   1.464   3.663  0.00  0.00    +0.150 C 
ATOM     11  C   LIG    1       -0.446   2.875   4.181  0.00  0.00    +0.050 C 
ATOM     12  C   LIG    1       -0.508   2.281   5.600  0.00  0.00    +0.060 C 
ATOM     13  C   LIG    1       -0.153   0.927   4.964  0.00  0.00    +0.050 C 
ENDBRANCH   1  10
TORSDOF 2
