REMARK  Name = ZINCrD00000l04Q8.0
REMARK                            x       y       z     vdW  Elec       q    Type
REMARK                         _______ _______ _______ _____ _____    ______ ____
ROOT
ATOM      1  C   LIG    1       -0.014   1.209   0.009  0.00  0.00    +0.540 C 
ATOM      2  N   LIG    1       -1.191   1.867   0.018  0.00  0.00    -0.610 N 
ATOM      3  C   LIG    1       -1.226   3.336   0.032  0.00  0.00    +0.270 C 
ATOM      4  C   LIG    1       -2.072   3.813  -1.160  0.00  0.00    +0.300 C 
ATOM      5  N   LIG    1       -3.342   3.074  -1.158  0.00  0.00    -1.000 NA
ATOM      6  C   LIG    1       -3.307   1.605  -1.167  0.00  0.00    +0.300 C 
ATOM      7  C   LIG    1       -2.461   1.128   0.020  0.00  0.00    +0.290 C 
ATOM      8  O   LIG    1        0.002  -0.004   0.002  0.00  0.00    -0.510 OA
ENDROOT
BRANCH   5   9
ATOM      9  S   LIG    1       -4.788   3.882  -1.147  0.00  0.00    +2.690 S 
ATOM     10  O   LIG    1       -5.750   2.991  -1.692  0.00  0.00    -0.940 OA
ATOM     11  O   LIG    1       -4.530   5.172  -1.685  0.00  0.00    -0.950 OA
BRANCH   9  12
ATOM     12  C   LIG    1       -5.235   4.127   0.539  0.00  0.00    -0.670 A 
ATOM     13  C   LIG    1       -6.000   3.181   1.196  0.00  0.00    +0.140 A 
ATOM     14  C   LIG    1       -6.347   3.370   2.520  0.00  0.00    +0.040 A 
ATOM     15  C   LIG    1       -5.938   4.512   3.186  0.00  0.00    -0.040 A 
ATOM     16  C   LIG    1       -5.177   5.461   2.527  0.00  0.00    +0.030 A 
ATOM     17 BR   LIG    1       -6.418   4.775   4.996  0.00  0.00    -0.030 Br
ATOM     18  C   LIG    1       -4.826   5.268   1.204  0.00  0.00    +0.140 A 
ENDBRANCH   9  12
ENDBRANCH   5   9
BRANCH   1  19
ATOM     19  C   LIG    1        1.280   1.980   0.001  0.00  0.00    +0.080 C 
BRANCH  19  20
ATOM     20  S   LIG    1        2.675   0.820  -0.019  0.00  0.00    -0.020 S 
BRANCH  20  27
ATOM     21  C   LIG    1        5.553  -0.144  -0.052  0.00  0.00    +0.100 C 
ATOM     22  C   LIG    1        5.360   1.351  -0.042  0.00  0.00    -0.060 A 
ATOM     23  C   LIG    1        6.457   2.189  -0.048  0.00  0.00    +0.030 A 
ATOM     24  C   LIG    1        6.280   3.561  -0.039  0.00  0.00    +0.010 A 
ATOM     25  C   LIG    1        5.006   4.098  -0.024  0.00  0.00    +0.020 A 
ATOM     26  C   LIG    1        3.904   3.265  -0.023  0.00  0.00    -0.010 A 
ATOM     27  C   LIG    1        4.077   1.886  -0.027  0.00  0.00    -0.110 A 
ENDBRANCH  20  27
ENDBRANCH  19  20
ENDBRANCH   1  19
TORSDOF 5
