REMARK  Name = ZINCtV00001bB3fq.0
REMARK                            x       y       z     vdW  Elec       q    Type
REMARK                         _______ _______ _______ _____ _____    ______ ____
ROOT
ATOM      1  C   LIG    1        0.577  10.305  -0.232  0.00  0.00    +0.100 A 
ATOM      2  C   LIG    1        1.087  10.896   0.930  0.00  0.00    -0.040 A 
ATOM      3  C   LIG    1        1.458  12.209   0.921  0.00  0.00    +0.080 A 
ATOM      4  C   LIG    1        1.320  12.968  -0.249  0.00  0.00    -0.070 A 
ATOM      5  C   LIG    1        0.805  12.376  -1.411  0.00  0.00    +0.040 A 
ATOM      6  C   LIG    1        0.439  11.062  -1.402  0.00  0.00    +0.020 A 
ENDROOT
BRANCH   4   7
ATOM      7  C   LIG    1        1.713  14.381  -0.258  0.00  0.00    +0.130 C 
ATOM      8  C   LIG    1        2.886  14.762   0.306  0.00  0.00    -0.210 C 
ATOM      9  C   LIG    1        3.851  13.786   0.572  0.00  0.00    +0.390 C 
ATOM     10  C   LIG    1        5.172  14.103   1.213  0.00  0.00    -0.030 C 
ATOM     11  C   LIG    1        5.458  15.602   1.113  0.00  0.00    +0.020 C 
ATOM     12  C   LIG    1        4.238  16.374   1.628  0.00  0.00    +0.020 C 
ATOM     13  O   LIG    1        3.612  12.634   0.268  0.00  0.00    -0.450 OA
ATOM     14  C   LIG    1        3.094  16.215   0.625  0.00  0.00    +0.030 C 
ATOM     15  C   LIG    1        1.810  16.793   1.224  0.00  0.00    +0.030 C 
BRANCH  10  16
ATOM     16  C   LIG    1        6.283  13.326   0.504  0.00  0.00    +0.000 C 
ATOM     17  C   LIG    1        7.627  13.643   1.163  0.00  0.00    +0.030 C 
ATOM     18  C   LIG    1        6.330  13.732  -0.970  0.00  0.00    +0.020 C 
ENDBRANCH  10  16
ENDBRANCH   4   7
BRANCH   1  20
ATOM     19  C   LIG    1        0.989   8.099   0.326  0.00  0.00    +0.320 C 
ATOM     20  N   LIG    1        0.210   8.991  -0.224  0.00  0.00    -0.490 NA
BRANCH  19  24
ATOM     21  C   LIG    1       -0.151   4.014   0.351  0.00  0.00    +0.150 A 
ATOM     22  C   LIG    1       -0.980   4.961  -0.240  0.00  0.00    -0.090 A 
ATOM     23  C   LIG    1       -0.617   6.289  -0.246  0.00  0.00    +0.110 A 
ATOM     24  C   LIG    1        0.594   6.683   0.335  0.00  0.00    -0.120 A 
ATOM     25  C   LIG    1        1.427   5.725   0.924  0.00  0.00    +0.100 A 
ATOM     26  C   LIG    1        1.052   4.401   0.929  0.00  0.00    -0.020 A 
BRANCH  21  27
ATOM     27  O   LIG    1       -0.516   2.706   0.358  0.00  0.00    -0.310 OA
BRANCH  27  29
ATOM     28  C   LIG    1       -2.003   0.870  -0.148  0.00  0.00    +0.070 C 
ATOM     29  C   LIG    1       -1.765   2.378  -0.253  0.00  0.00    +0.170 C 
ENDBRANCH  27  29
ENDBRANCH  21  27
ENDBRANCH  19  24
ENDBRANCH   1  20
TORSDOF 6
