REMARK  Name = ZINCvU00000006J1.0
REMARK                            x       y       z     vdW  Elec       q    Type
REMARK                         _______ _______ _______ _____ _____    ______ ____
ROOT
ATOM      1  C   LIG    1       -1.131  -2.287   0.000  0.00  0.00    +0.370 C 
ATOM      2  C   LIG    1       -2.570  -2.687   0.014  0.00  0.00    -0.240 A 
ATOM      3  C   LIG    1       -3.320  -1.545   0.023  0.00  0.00    +0.100 A 
ATOM      4  C   LIG    1       -2.405  -0.391   0.028  0.00  0.00    +0.570 C 
ATOM      5  O   LIG    1       -2.753   0.773   0.045  0.00  0.00    -0.430 OA
ATOM      6  O   LIG    1       -4.668  -1.560   0.030  0.00  0.00    -0.170 OA
ATOM      7  C   LIG    1       -5.322  -2.720   0.269  0.00  0.00    +0.150 A 
ATOM      8  C   LIG    1       -6.694  -2.683   0.514  0.00  0.00    +0.040 A 
ATOM      9  C   LIG    1       -7.388  -3.849   0.749  0.00  0.00    +0.120 A 
ATOM     10  C   LIG    1       -6.737  -5.076   0.747  0.00  0.00    -0.060 A 
ATOM     11  C   LIG    1       -5.380  -5.138   0.510  0.00  0.00    +0.140 A 
ATOM     12 CL   LIG    1       -7.633  -6.533   1.043  0.00  0.00    -0.040 Cl
ATOM     13  C   LIG    1       -4.668  -3.963   0.273  0.00  0.00    -0.200 A 
ATOM     14  C   LIG    1       -3.205  -4.008   0.023  0.00  0.00    +0.460 A 
ATOM     15  O   LIG    1       -2.591  -5.045  -0.157  0.00  0.00    -0.420 OA
ATOM     16  N   LIG    1       -1.125  -0.815   0.008  0.00  0.00    -0.510 N 
ENDROOT
BRANCH  16  17
ATOM     17  C   LIG    1        0.002  -0.004   0.002  0.00  0.00    +0.280 A 
ATOM     18  N   LIG    1       -0.015   1.292   0.009  0.00  0.00    -0.480 NA
ATOM     19  C   LIG    1        1.153   1.906   0.001  0.00  0.00    +0.090 A 
ATOM     20  C   LIG    1        2.208   1.089  -0.013  0.00  0.00    -0.240 A 
ATOM     21  C   LIG    1        3.655   1.512  -0.025  0.00  0.00    +0.160 C 
ATOM     22  C   LIG    1        1.284   3.407   0.009  0.00  0.00    +0.160 C 
ATOM     23  S   LIG    1        1.615  -0.570  -0.016  0.00  0.00    +0.170 S 
ENDBRANCH  16  17
BRANCH   1  28
ATOM     24  C   LIG    1        1.017  -4.423   2.258  0.00  0.00    +0.130 A 
ATOM     25  C   LIG    1        0.853  -3.784   3.479  0.00  0.00    -0.060 A 
ATOM     26  C   LIG    1        0.048  -2.664   3.568  0.00  0.00    +0.060 A 
ATOM     27  C   LIG    1       -0.589  -2.178   2.441  0.00  0.00    -0.010 A 
ATOM     28  C   LIG    1       -0.431  -2.816   1.225  0.00  0.00    -0.080 A 
ATOM     29  C   LIG    1        0.372  -3.936   1.130  0.00  0.00    +0.030 A 
BRANCH  24  31
ATOM     30  C   LIG    1        2.440  -5.969   3.370  0.00  0.00    +0.250 C 
ATOM     31  O   LIG    1        1.808  -5.524   2.168  0.00  0.00    -0.310 OA
ENDBRANCH  24  31
ENDBRANCH   1  28
TORSDOF 3
