REMARK  Name = ZINCb70000003XY7.0
REMARK                            x       y       z     vdW  Elec       q    Type
REMARK                         _______ _______ _______ _____ _____    ______ ____
ROOT
ATOM      1  C   LIG    1       -2.135   0.949   1.227  0.00  0.00    +0.200 C 
ATOM      2  C   LIG    1       -2.875   1.548   2.419  0.00  0.00    +0.040 C 
ATOM      3  C   LIG    1       -2.359   0.972   3.752  0.00  0.00    +0.050 C 
ATOM      4  C   LIG    1       -2.451  -0.537   3.631  0.00  0.00    -0.060 C 
ATOM      5  C   LIG    1       -1.887  -1.371   4.773  0.00  0.00    +0.220 C 
ATOM      6  O   LIG    1       -1.292  -2.539   4.164  0.00  0.00    -0.370 OA
ATOM      7  C   LIG    1       -1.389  -2.438   2.720  0.00  0.00    +0.240 C 
ATOM      8  C   LIG    1       -1.492  -0.936   2.468  0.00  0.00    +0.110 C 
ATOM      9  O   LIG    1       -2.102  -0.489   1.277  0.00  0.00    -0.350 OA
ENDROOT
BRANCH   1  10
ATOM     10  C   LIG    1       -0.699   1.479   1.216  0.00  0.00    +0.240 C 
BRANCH  10  11
ATOM     11  N   LIG    1       -0.012   1.005   0.008  0.00  0.00    -0.630 N 
ATOM     12  H   LIG    1       -0.500   1.339  -0.810  0.00  0.00    +0.440 HD
ATOM     13  H   LIG    1        0.935   1.354   0.000  0.00  0.00    +0.440 HD
ATOM     14  H   LIG    1        0.002  -0.004   0.002  0.00  0.00    +0.440 HD
ENDBRANCH  10  11
ENDBRANCH   1  10
TORSDOF 2
