REMARK  Name = ZINCnE000001GETI.1
REMARK                            x       y       z     vdW  Elec       q    Type
REMARK                         _______ _______ _______ _____ _____    ______ ____
ROOT
ATOM      1  C   LIG    1        4.834   1.204  -0.037  0.00  0.00    +0.300 C 
ATOM      2  C   LIG    1        5.930   1.672  -0.730  0.00  0.00    -0.220 C 
ENDROOT
BRANCH   1   5
ATOM      3  C   LIG    1        1.320   2.409   0.454  0.00  0.00    -0.000 A 
ATOM      4  C   LIG    1        2.390   1.571   0.217  0.00  0.00    +0.000 A 
ATOM      5  C   LIG    1        3.694   2.088   0.213  0.00  0.00    -0.240 A 
ATOM      6  C   LIG    1        3.901   3.454   0.450  0.00  0.00    +0.090 A 
ATOM      7  C   LIG    1        2.826   4.282   0.686  0.00  0.00    -0.170 A 
ATOM      8 CL   LIG    1        3.084   5.974   0.980  0.00  0.00    -0.090 Cl
ATOM      9  C   LIG    1        1.534   3.768   0.683  0.00  0.00    +0.310 A 
ATOM     10  O   LIG    1        0.478   4.591   0.910  0.00  0.00    -0.640 OA
BRANCH   3  11
ATOM     11  O   LIG    1        0.055   1.910   0.458  0.00  0.00    -0.300 OA
BRANCH  11  13
ATOM     12  C   LIG    1       -1.575   0.138   0.254  0.00  0.00    +0.040 C 
ATOM     13  C   LIG    1       -0.092   0.511   0.209  0.00  0.00    +0.150 C 
ENDBRANCH  11  13
ENDBRANCH   3  11
ENDBRANCH   1   5
BRANCH   2  14
ATOM     14  C   LIG    1        7.140   0.844  -0.838  0.00  0.00    +0.580 C 
ATOM     15  N   LIG    1        8.212   1.302  -1.515  0.00  0.00    -0.640 N 
ATOM     16  H   LIG    1        8.185   2.178  -1.931  0.00  0.00    +0.420 HD
ATOM     17  O   LIG    1        7.175  -0.254  -0.315  0.00  0.00    -0.480 OA
BRANCH  15  18
ATOM     18  C   LIG    1        9.355   0.520  -1.617  0.00  0.00    +0.290 A 
ATOM     19  N   LIG    1        9.498  -0.658  -1.095  0.00  0.00    -0.480 NA
ATOM     20  C   LIG    1       10.654  -1.264  -1.294  0.00  0.00    +0.250 A 
ATOM     21  C   LIG    1       11.533  -0.560  -2.010  0.00  0.00    -0.100 A 
ATOM     22  S   LIG    1       10.782   0.974  -2.442  0.00  0.00    +0.110 S 
ENDBRANCH  15  18
ENDBRANCH   2  14
BRANCH   2  23
ATOM     23  C   LIG    1        5.890   2.965  -1.344  0.00  0.00    +0.260 C 
ATOM     24  N   LIG    1        5.858   3.991  -1.832  0.00  0.00    -0.430 NA
ENDBRANCH   2  23
TORSDOF 6
