REMARK  Name = ZINCrD000006Vqtc.0
REMARK                            x       y       z     vdW  Elec       q    Type
REMARK                         _______ _______ _______ _____ _____    ______ ____
ROOT
ATOM      1  O   LIG    1       -1.254   3.908   0.239  0.00  0.00    -0.530 OA
ATOM      2  C   LIG    1       -1.298   3.203   1.225  0.00  0.00    +0.520 C 
ATOM      3  N   LIG    1       -0.711   1.990   1.214  0.00  0.00    -0.720 N 
ATOM      4  H   LIG    1       -0.747   1.427   2.002  0.00  0.00    +0.400 HD
ENDROOT
BRANCH   3   5
ATOM      5  C   LIG    1       -0.019   1.523   0.010  0.00  0.00    +0.290 C 
ATOM      6  C   LIG    1        0.002  -0.004   0.002  0.00  0.00    +0.020 C 
ATOM      7  C   LIG    1        0.912  -0.469  -1.141  0.00  0.00    +0.030 C 
ATOM      8  C   LIG    1        2.356  -0.131  -0.775  0.00  0.00    +0.080 C 
ATOM      9  C   LIG    1        2.474   1.313  -0.364  0.00  0.00    -0.070 A 
ATOM     10  C   LIG    1        3.741   1.882  -0.359  0.00  0.00    -0.010 A 
ATOM     11  C   LIG    1        3.916   3.200   0.012  0.00  0.00    +0.010 A 
ATOM     12  C   LIG    1        2.822   3.960   0.382  0.00  0.00    -0.010 A 
ATOM     13  C   LIG    1        1.563   3.397   0.375  0.00  0.00    +0.020 A 
ATOM     14  C   LIG    1        1.384   2.072   0.000  0.00  0.00    -0.100 A 
ENDBRANCH   3   5
BRANCH   2  15
ATOM     15  C   LIG    1       -2.011   3.684   2.463  0.00  0.00    -0.010 C 
ATOM     16  C   LIG    1       -3.148   2.718   2.805  0.00  0.00    +0.030 C 
ATOM     17  C   LIG    1       -3.847   3.190   4.083  0.00  0.00    +0.300 C 
ATOM     18  N   LIG    1       -4.274   4.584   3.901  0.00  0.00    -0.990 NA
ATOM     19  C   LIG    1       -3.278   5.580   3.484  0.00  0.00    +0.300 C 
ATOM     20  C   LIG    1       -2.584   5.080   2.212  0.00  0.00    +0.050 C 
BRANCH  18  21
ATOM     21  S   LIG    1       -5.850   5.025   4.160  0.00  0.00    +2.720 S 
ATOM     22  O   LIG    1       -5.835   6.416   4.448  0.00  0.00    -0.950 OA
ATOM     23  O   LIG    1       -6.398   4.054   5.041  0.00  0.00    -0.950 OA
BRANCH  21  24
ATOM     24  C   LIG    1       -6.701   4.843   2.628  0.00  0.00    -0.800 A 
ATOM     25  C   LIG    1       -7.318   3.734   2.218  0.00  0.00    +0.160 A 
ATOM     26  C   LIG    1       -7.920   3.827   0.975  0.00  0.00    -0.010 A 
ATOM     27  C   LIG    1       -7.793   5.012   0.376  0.00  0.00    +0.000 A 
ATOM     28  S   LIG    1       -6.873   6.099   1.409  0.00  0.00    +0.220 S 
ENDBRANCH  21  24
ENDBRANCH  18  21
ENDBRANCH   2  15
TORSDOF 4
