REMARK  Name = ZINCpe000000WnqE.0
REMARK                            x       y       z     vdW  Elec       q    Type
REMARK                         _______ _______ _______ _____ _____    ______ ____
ROOT
ATOM      1  N   LIG    1        1.079   1.866   0.002  0.00  0.00    -0.410 N 
ATOM      2  C   LIG    1       -0.013   1.076   0.008  0.00  0.00    +0.530 A 
ATOM      3  N   LIG    1       -1.093   1.815   0.017  0.00  0.00    -0.500 NA
ATOM      4  C   LIG    1       -0.757   3.107   0.026  0.00  0.00    +0.320 A 
ATOM      5  N   LIG    1       -1.482   4.288   0.039  0.00  0.00    -0.510 N 
ATOM      6  C   LIG    1       -2.946   4.247   0.053  0.00  0.00    +0.340 C 
ATOM      7  C   LIG    1       -0.842   5.473   0.039  0.00  0.00    +0.710 A 
ATOM      8  O   LIG    1       -1.495   6.498   0.050  0.00  0.00    -0.530 OA
ATOM      9  N   LIG    1        0.500   5.550   0.027  0.00  0.00    -0.550 N 
ATOM     10  C   LIG    1        1.146   6.865   0.027  0.00  0.00    +0.350 C 
ATOM     11  C   LIG    1        1.260   4.436   0.013  0.00  0.00    +0.600 A 
ATOM     12  O   LIG    1        2.475   4.519   0.003  0.00  0.00    -0.520 OA
ATOM     13  C   LIG    1        0.631   3.172   0.013  0.00  0.00    -0.160 A 
ENDROOT
BRANCH   1  14
ATOM     14  C   LIG    1        2.475   1.424  -0.013  0.00  0.00    +0.230 C 
ATOM     15  C   LIG    1        2.755   0.576   1.229  0.00  0.00    +0.090 C 
BRANCH  14  16
ATOM     16  C   LIG    1        2.728   0.602  -1.251  0.00  0.00    +0.400 C 
ATOM     17  O   LIG    1        1.810   0.025  -1.794  0.00  0.00    -0.440 OA
BRANCH  16  21
ATOM     18  C   LIG    1        6.646   0.308  -2.833  0.00  0.00    +0.170 A 
ATOM     19  C   LIG    1        5.595  -0.356  -3.457  0.00  0.00    -0.030 A 
ATOM     20  C   LIG    1        4.324  -0.264  -2.949  0.00  0.00    +0.130 A 
ATOM     21  C   LIG    1        4.087   0.500  -1.800  0.00  0.00    -0.210 A 
ATOM     22  C   LIG    1        5.147   1.170  -1.178  0.00  0.00    +0.110 A 
ATOM     23  C   LIG    1        6.415   1.067  -1.691  0.00  0.00    -0.080 A 
BRANCH  18  25
ATOM     24  C   LIG    1        8.934   0.919  -2.650  0.00  0.00    +0.250 C 
ATOM     25  O   LIG    1        7.901   0.213  -3.340  0.00  0.00    -0.310 OA
ENDBRANCH  18  25
ENDBRANCH  16  21
ENDBRANCH  14  16
ENDBRANCH   1  14
TORSDOF 4
