REMARK  Name = ZINCrD000000fCsB.0
REMARK                            x       y       z     vdW  Elec       q    Type
REMARK                         _______ _______ _______ _____ _____    ______ ____
ROOT
ATOM      1  N   LIG    1        3.881   6.217  -0.995  0.00  0.00    -0.730 N 
ATOM      2  H   LIG    1        4.825   6.425  -0.916  0.00  0.00    +0.410 HD
ENDROOT
BRANCH   1  10
ATOM      3  C   LIG    1       -1.370  11.199  -4.327  0.00  0.00    +0.110 C 
ATOM      4  C   LIG    1       -0.751  10.052  -3.572  0.00  0.00    +0.520 C 
ATOM      5  N   LIG    1        0.574  10.044  -3.326  0.00  0.00    -0.550 N 
ATOM      6  C   LIG    1        1.495  11.136  -3.649  0.00  0.00    +0.260 C 
ATOM      7  C   LIG    1        2.876  10.653  -3.178  0.00  0.00    +0.090 C 
ATOM      8  C   LIG    1        2.624   9.277  -2.604  0.00  0.00    -0.080 A 
ATOM      9  C   LIG    1        3.488   8.363  -2.034  0.00  0.00    -0.020 A 
ATOM     10  C   LIG    1        3.007   7.144  -1.573  0.00  0.00    +0.200 A 
ATOM     11  C   LIG    1        1.656   6.848  -1.693  0.00  0.00    -0.050 A 
ATOM     12  C   LIG    1        0.794   7.765  -2.257  0.00  0.00    +0.060 A 
ATOM     13  C   LIG    1        1.273   8.990  -2.723  0.00  0.00    +0.080 A 
ATOM     14  O   LIG    1       -1.445   9.134  -3.187  0.00  0.00    -0.530 OA
ENDBRANCH   1  10
BRANCH   1  15
ATOM     15  C   LIG    1        3.370   4.933  -0.510  0.00  0.00    +0.240 C 
ATOM     16  C   LIG    1        2.839   5.100   0.915  0.00  0.00    +0.050 C 
BRANCH  15  17
ATOM     17  C   LIG    1        4.482   3.915  -0.516  0.00  0.00    +0.520 C 
ATOM     18  N   LIG    1        4.198   2.606  -0.365  0.00  0.00    -0.550 N 
ATOM     19  C   LIG    1        5.150   1.589  -0.242  0.00  0.00    +0.140 A 
ATOM     20  C   LIG    1        6.543   1.675  -0.248  0.00  0.00    +0.010 A 
ATOM     21  C   LIG    1        7.310   0.537  -0.114  0.00  0.00    +0.040 A 
ATOM     22  C   LIG    1        6.705  -0.698   0.028  0.00  0.00    -0.010 A 
ATOM     23  C   LIG    1        5.326  -0.791   0.035  0.00  0.00    +0.050 A 
ATOM     24  C   LIG    1        4.553   0.346  -0.100  0.00  0.00    -0.140 A 
ATOM     25  C   LIG    1        3.052   0.527  -0.127  0.00  0.00    +0.110 C 
ATOM     26  C   LIG    1        2.848   2.041  -0.304  0.00  0.00    +0.220 C 
ATOM     27  C   LIG    1        2.094   2.326  -1.604  0.00  0.00    +0.050 C 
ATOM     28  O   LIG    1        5.631   4.274  -0.656  0.00  0.00    -0.510 OA
ENDBRANCH  15  17
ENDBRANCH   1  15
TORSDOF 3
