REMARK  Name = ZINCrg00000SjSKq.1
REMARK                            x       y       z     vdW  Elec       q    Type
REMARK                         _______ _______ _______ _____ _____    ______ ____
ROOT
ATOM      1  N   LIG    1       -1.507  -1.926  -0.848  0.00  0.00    -0.660 N 
ATOM      2  H   LIG    1       -1.320  -0.991  -1.025  0.00  0.00    +0.420 HD
ATOM      3  C   LIG    1       -0.500  -2.771  -0.550  0.00  0.00    +0.500 C 
ATOM      4  O   LIG    1       -0.721  -3.956  -0.422  0.00  0.00    -0.440 OA
ENDROOT
BRANCH   1   8
ATOM      5  C   LIG    1       -5.372  -3.347  -0.999  0.00  0.00    +0.040 A 
ATOM      6  C   LIG    1       -5.162  -1.978  -1.154  0.00  0.00    +0.070 A 
ATOM      7  C   LIG    1       -3.865  -1.501  -1.097  0.00  0.00    -0.040 A 
ATOM      8  C   LIG    1       -2.821  -2.397  -0.901  0.00  0.00    +0.330 A 
ATOM      9  N   LIG    1       -3.058  -3.691  -0.757  0.00  0.00    -0.450 NA
ATOM     10  C   LIG    1       -4.281  -4.181  -0.801  0.00  0.00    +0.250 A 
BRANCH   5  15
ATOM     11  C   LIG    1      -10.300  -5.787  -0.044  0.00  0.00    +0.190 C 
ATOM     12  N   LIG    1       -8.939  -5.234   0.004  0.00  0.00    -0.550 NA
ATOM     13  C   LIG    1       -8.074  -5.878  -0.994  0.00  0.00    +0.200 C 
ATOM     14  C   LIG    1       -6.651  -5.332  -0.859  0.00  0.00    +0.200 C 
ATOM     15  N   LIG    1       -6.668  -3.874  -1.044  0.00  0.00    -0.480 N 
ATOM     16  C   LIG    1       -7.534  -3.230  -0.047  0.00  0.00    +0.200 C 
ATOM     17  C   LIG    1       -8.957  -3.776  -0.182  0.00  0.00    +0.190 C 
ENDBRANCH   5  15
ENDBRANCH   1   8
BRANCH   3  18
ATOM     18  C   LIG    1        0.900  -2.242  -0.378  0.00  0.00    +0.120 C 
ATOM     19  C   LIG    1        1.585  -2.148  -1.744  0.00  0.00    +0.260 C 
ATOM     20  O   LIG    1        2.937  -1.716  -1.566  0.00  0.00    -0.370 OA
ATOM     21  C   LIG    1        3.711  -2.581  -0.730  0.00  0.00    +0.240 C 
ATOM     22  C   LIG    1        3.049  -2.679   0.647  0.00  0.00    +0.180 C 
ATOM     23  N   LIG    1        1.666  -3.152   0.487  0.00  0.00    -0.510 NA
BRANCH  23  24
ATOM     24  C   LIG    1        1.011  -3.315   1.791  0.00  0.00    +0.200 C 
BRANCH  24  25
ATOM     25  C   LIG    1        1.575  -4.551   2.495  0.00  0.00    +0.460 C 
ATOM     26  F   LIG    1        1.373  -5.678   1.690  0.00  0.00    -0.160 F 
ATOM     27  F   LIG    1        0.922  -4.729   3.719  0.00  0.00    -0.180 F 
ATOM     28  F   LIG    1        2.945  -4.376   2.717  0.00  0.00    -0.180 F 
ENDBRANCH  24  25
ENDBRANCH  23  24
ENDBRANCH   3  18
TORSDOF 5
