REMARK  Name = ZINCrH00000luewP.0
REMARK                            x       y       z     vdW  Elec       q    Type
REMARK                         _______ _______ _______ _____ _____    ______ ____
ROOT
ATOM      1  C   LIG    1        4.487  -1.266   3.796  0.00  0.00    +0.510 C 
ATOM      2  O   LIG    1        5.640  -1.078   3.458  0.00  0.00    -0.490 OA
ENDROOT
BRANCH   1   3
ATOM      3  C   LIG    1        3.387  -0.954   2.867  0.00  0.00    -0.080 A 
ATOM      4  C   LIG    1        2.061  -1.170   3.256  0.00  0.00    +0.080 A 
ATOM      5  C   LIG    1        1.031  -0.881   2.388  0.00  0.00    +0.090 A 
ATOM      6  C   LIG    1        1.311  -0.373   1.125  0.00  0.00    -0.100 A 
ATOM      7  S   LIG    1        0.002  -0.004   0.002  0.00  0.00    -0.130 S 
ATOM      8  C   LIG    1       -0.023   1.819   0.012  0.00  0.00    +0.140 C 
ATOM      9  C   LIG    1        1.437   2.302   0.001  0.00  0.00    +0.060 C 
ATOM     10  C   LIG    1        2.255   1.481  -0.952  0.00  0.00    +0.530 C 
ATOM     11  N   LIG    1        2.894   0.379  -0.542  0.00  0.00    -0.670 N 
ATOM     12  H   LIG    1        3.538  -0.053  -1.124  0.00  0.00    +0.420 HD
ATOM     13  O   LIG    1        2.338   1.822  -2.113  0.00  0.00    -0.520 OA
ATOM     14  C   LIG    1        2.632  -0.150   0.733  0.00  0.00    +0.160 A 
ATOM     15  C   LIG    1        3.669  -0.440   1.596  0.00  0.00    +0.080 A 
ENDBRANCH   1   3
BRANCH   1  16
ATOM     16  O   LIG    1        4.216  -1.760   5.020  0.00  0.00    -0.340 OA
BRANCH  16  17
ATOM     17  C   LIG    1        5.349  -2.045   5.882  0.00  0.00    +0.320 C 
BRANCH  17  28
ATOM     18  C   LIG    1        4.781  -0.225   8.051  0.00  0.00    +0.150 C 
ATOM     19  C   LIG    1        4.580  -1.706   8.248  0.00  0.00    +0.130 A 
ATOM     20  N   LIG    1        4.143  -2.154   9.403  0.00  0.00    -0.430 NA
ATOM     21  C   LIG    1        3.970  -3.468   9.581  0.00  0.00    +0.090 A 
ATOM     22  C   LIG    1        3.510  -3.981  10.806  0.00  0.00    +0.050 A 
ATOM     23  C   LIG    1        3.343  -5.323  10.956  0.00  0.00    +0.050 A 
ATOM     24  C   LIG    1        3.623  -6.202   9.911  0.00  0.00    +0.040 A 
ATOM     25  C   LIG    1        4.071  -5.742   8.711  0.00  0.00    +0.060 A 
ATOM     26  C   LIG    1        4.255  -4.362   8.518  0.00  0.00    +0.070 A 
ATOM     27  N   LIG    1        4.694  -3.881   7.350  0.00  0.00    -0.400 NA
ATOM     28  C   LIG    1        4.856  -2.586   7.199  0.00  0.00    +0.090 A 
ENDBRANCH  17  28
ENDBRANCH  16  17
ENDBRANCH   1  16
TORSDOF 4
