REMARK  Name = ZINCrD00000F5LFC.0
REMARK                            x       y       z     vdW  Elec       q    Type
REMARK                         _______ _______ _______ _____ _____    ______ ____
ROOT
ATOM      1  C   LIG    1       -1.646   9.424  -1.040  0.00  0.00    +0.580 C 
ATOM      2  N   LIG    1       -1.056   8.451  -0.319  0.00  0.00    -0.620 N 
ATOM      3  C   LIG    1       -1.859   7.446   0.395  0.00  0.00    +0.320 C 
ATOM      4  C   LIG    1       -1.570   6.059  -0.193  0.00  0.00    +0.310 C 
ATOM      5  N   LIG    1       -0.126   5.896  -0.352  0.00  0.00    -0.440 N 
ATOM      6  C   LIG    1        0.780   6.906  -0.374  0.00  0.00    +0.170 A 
ATOM      7  N   LIG    1        1.955   6.381  -0.550  0.00  0.00    -0.260 NA
ATOM      8  N   LIG    1        1.854   5.099  -0.630  0.00  0.00    -0.260 NA
ATOM      9  C   LIG    1        0.588   4.746  -0.509  0.00  0.00    +0.250 A 
ATOM     10  C   LIG    1        0.414   8.363  -0.215  0.00  0.00    +0.440 C 
ATOM     11  O   LIG    1       -2.851   9.415  -1.202  0.00  0.00    -0.510 OA
ENDROOT
BRANCH   1  15
ATOM     12  C   LIG    1       -0.851  12.719  -4.703  0.00  0.00    +0.120 C 
ATOM     13  C   LIG    1       -0.442  12.090  -3.396  0.00  0.00    -0.090 A 
ATOM     14  C   LIG    1       -1.209  11.084  -2.846  0.00  0.00    +0.120 A 
ATOM     15  C   LIG    1       -0.829  10.502  -1.636  0.00  0.00    -0.130 A 
ATOM     16  C   LIG    1        0.324  10.947  -0.987  0.00  0.00    +0.100 A 
ATOM     17  C   LIG    1        1.086  11.950  -1.550  0.00  0.00    -0.180 A 
ATOM     18  C   LIG    1        0.703  12.523  -2.750  0.00  0.00    +0.100 A 
BRANCH  17  19
ATOM     19  C   LIG    1        2.334  12.428  -0.854  0.00  0.00    +0.510 C 
ATOM     20  F   LIG    1        3.231  11.362  -0.721  0.00  0.00    -0.170 F 
ATOM     21  F   LIG    1        2.003  12.919   0.413  0.00  0.00    -0.170 F 
ATOM     22  F   LIG    1        2.928  13.445  -1.608  0.00  0.00    -0.170 F 
ENDBRANCH  17  19
ENDBRANCH   1  15
BRANCH   9  23
ATOM     23  C   LIG    1        0.050   3.374  -0.543  0.00  0.00    +0.110 A 
ATOM     24  N   LIG    1       -1.207   3.051  -0.422  0.00  0.00    -0.460 NA
ATOM     25  C   LIG    1       -1.503   1.775  -0.482  0.00  0.00    +0.220 A 
ATOM     26  C   LIG    1       -0.469   0.943  -0.654  0.00  0.00    -0.060 A 
ATOM     27  S   LIG    1        1.003   1.908  -0.755  0.00  0.00    +0.200 S 
ENDBRANCH   9  23
TORSDOF 3
