REMARK  Name = ZINCb70000002Axt.0
REMARK                            x       y       z     vdW  Elec       q    Type
REMARK                         _______ _______ _______ _____ _____    ______ ____
ROOT
ATOM      1  C   LIG    1       -0.013   1.086   0.008  0.00  0.00    -0.440 C 
ATOM      2  C   LIG    1       -0.773   1.577   1.265  0.00  0.00    +0.070 C 
ATOM      3  C   LIG    1       -0.308   0.782   2.456  0.00  0.00    +0.070 C 
ATOM      4  C   LIG    1        0.870   1.429   3.205  0.00  0.00    +0.250 C 
ATOM      5  N   LIG    1        1.910   1.979   2.309  0.00  0.00    -0.500 N 
ATOM      6  C   LIG    1        2.185   1.099   1.200  0.00  0.00    +0.280 C 
ATOM      7  H   LIG    1        1.597   2.869   1.953  0.00  0.00    +0.430 HD
ATOM      8  H   LIG    1        2.759   2.117   2.837  0.00  0.00    +0.430 HD
ATOM      9  C   LIG    1        1.357   1.583  -0.002  0.00  0.00    +0.080 C 
ENDROOT
BRANCH   1  11
ATOM     10  C   LIG    1       -2.558   1.068  -1.200  0.00  0.00    -0.250 C 
ATOM     11  S   LIG    1       -0.873   1.678  -1.476  0.00  0.00    +2.420 S 
ATOM     12  O   LIG    1       -0.330   1.013  -2.608  0.00  0.00    -0.920 OA
ATOM     13  O   LIG    1       -0.895   3.098  -1.449  0.00  0.00    -0.920 OA
ENDBRANCH   1  11
TORSDOF 1
