REMARK  Name = ZINCvU000000095O.0
REMARK                            x       y       z     vdW  Elec       q    Type
REMARK                         _______ _______ _______ _____ _____    ______ ____
ROOT
ATOM      1  C   LIG    1       -0.150   1.471  -0.029  0.00  0.00    +0.250 C 
ENDROOT
BRANCH   1   2
ATOM      2  C   LIG    1        1.134   2.179  -0.376  0.00  0.00    -0.130 A 
ATOM      3  C   LIG    1        1.310   2.833  -1.534  0.00  0.00    +0.030 A 
ATOM      4  S   LIG    1        2.925   3.527  -1.578  0.00  0.00    +0.210 S 
ATOM      5  C   LIG    1        3.283   2.876   0.016  0.00  0.00    -0.230 A 
ATOM      6  C   LIG    1        4.587   3.049   0.751  0.00  0.00    +0.130 C 
ATOM      7  C   LIG    1        2.224   2.211   0.478  0.00  0.00    -0.060 A 
ATOM      8  C   LIG    1        2.215   1.539   1.827  0.00  0.00    +0.110 C 
BRANCH   3   9
ATOM      9  N   LIG    1        0.356   2.946  -2.548  0.00  0.00    -0.630 N 
ATOM     10  H   LIG    1       -0.486   2.470  -2.477  0.00  0.00    +0.420 HD
ATOM     11  C   LIG    1        0.607   3.716  -3.626  0.00  0.00    +0.600 C 
ATOM     12  O   LIG    1        1.663   4.314  -3.715  0.00  0.00    -0.490 OA
BRANCH  11  13
ATOM     13  C   LIG    1       -0.394   3.834  -4.691  0.00  0.00    -0.090 A 
ATOM     14  C   LIG    1       -0.272   4.581  -5.827  0.00  0.00    +0.060 A 
ATOM     15  C   LIG    1       -1.457   4.400  -6.559  0.00  0.00    -0.060 A 
ATOM     16  C   LIG    1       -2.243   3.567  -5.841  0.00  0.00    +0.230 A 
ATOM     17  O   LIG    1       -1.600   3.229  -4.716  0.00  0.00    -0.170 OA
ENDBRANCH  11  13
ENDBRANCH   3   9
ENDBRANCH   1   2
BRANCH   1  21
ATOM     18  C   LIG    1        0.433  -2.753  -0.307  0.00  0.00    +0.130 A 
ATOM     19  C   LIG    1       -0.059  -2.046  -1.395  0.00  0.00    -0.020 A 
ATOM     20  C   LIG    1       -0.247  -0.681  -1.303  0.00  0.00    +0.050 A 
ATOM     21  C   LIG    1        0.055  -0.018  -0.127  0.00  0.00    -0.120 A 
ATOM     22  C   LIG    1        0.551  -0.720   0.956  0.00  0.00    +0.080 A 
ATOM     23  C   LIG    1        0.735  -2.086   0.871  0.00  0.00    -0.080 A 
BRANCH  18  24
ATOM     24  O   LIG    1        0.619  -4.096  -0.396  0.00  0.00    -0.320 OA
BRANCH  24  26
ATOM     25  C   LIG    1        1.270  -6.255   0.475  0.00  0.00    +0.070 C 
ATOM     26  C   LIG    1        1.128  -4.759   0.763  0.00  0.00    +0.170 C 
ENDBRANCH  24  26
ENDBRANCH  18  24
ENDBRANCH   1  21
BRANCH   1  27
ATOM     27  N   LIG    1       -0.548   1.822   1.341  0.00  0.00    -0.520 NA
ATOM     28  C   LIG    1       -1.805   1.155   1.711  0.00  0.00    +0.140 C 
ATOM     29  C   LIG    1       -2.150   1.499   3.162  0.00  0.00    +0.220 C 
ATOM     30  O   LIG    1       -2.229   2.920   3.304  0.00  0.00    -0.380 OA
ATOM     31  C   LIG    1       -1.022   3.601   2.952  0.00  0.00    +0.220 C 
ATOM     32  C   LIG    1       -0.665   3.279   1.499  0.00  0.00    +0.150 C 
ENDBRANCH   1  27
TORSDOF 7
