REMARK  Name = ZINCvU0000000DBE.0
REMARK                            x       y       z     vdW  Elec       q    Type
REMARK                         _______ _______ _______ _____ _____    ______ ____
ROOT
ATOM      1  C   LIG    1       -3.640  -4.931  -0.206  0.00  0.00    +0.070 C 
ENDROOT
BRANCH   1   2
ATOM      2  C   LIG    1       -4.244  -5.088   1.166  0.00  0.00    -0.100 A 
ATOM      3  C   LIG    1       -3.546  -5.755   2.156  0.00  0.00    +0.040 A 
ATOM      4  C   LIG    1       -4.098  -5.896   3.415  0.00  0.00    +0.000 A 
ATOM      5  C   LIG    1       -5.352  -5.378   3.682  0.00  0.00    +0.010 A 
ATOM      6  C   LIG    1       -6.052  -4.716   2.691  0.00  0.00    +0.010 A 
ATOM      7  C   LIG    1       -5.498  -4.572   1.432  0.00  0.00    +0.060 A 
ENDBRANCH   1   2
BRANCH   1   8
ATOM      8  C   LIG    1       -2.346  -4.165  -0.100  0.00  0.00    +0.540 C 
ATOM      9  N   LIG    1       -2.366  -2.821   0.009  0.00  0.00    -0.660 N 
ATOM     10  H   LIG    1       -3.211  -2.354   0.097  0.00  0.00    +0.420 HD
ATOM     11  O   LIG    1       -1.288  -4.757  -0.113  0.00  0.00    -0.490 OA
BRANCH   9  12
ATOM     12  C   LIG    1       -1.166  -2.101  -0.004  0.00  0.00    +0.180 A 
ATOM     13  C   LIG    1       -1.045  -0.939   0.747  0.00  0.00    -0.050 A 
ATOM     14  C   LIG    1        0.139  -0.227   0.734  0.00  0.00    +0.070 A 
ATOM     15  C   LIG    1        1.208  -0.673  -0.020  0.00  0.00    -0.090 A 
ATOM     16  C   LIG    1        1.091  -1.831  -0.776  0.00  0.00    +0.150 A 
ATOM     17  C   LIG    1       -0.096  -2.547  -0.766  0.00  0.00    -0.020 A 
BRANCH  16  18
ATOM     18  O   LIG    1        2.141  -2.266  -1.521  0.00  0.00    -0.310 OA
ATOM     19  C   LIG    1        3.333  -1.478  -1.484  0.00  0.00    +0.250 C 
ENDBRANCH  16  18
ENDBRANCH   9  12
ENDBRANCH   1   8
BRANCH   1  20
ATOM     20  S   LIG    1       -3.317  -6.565  -0.914  0.00  0.00    +0.090 S 
BRANCH  20  22
ATOM     21  N   LIG    1       -5.344  -8.382  -1.557  0.00  0.00    -0.450 N 
ATOM     22  C   LIG    1       -4.966  -7.165  -1.062  0.00  0.00    +0.150 A 
ATOM     23  N   LIG    1       -6.062  -6.525  -0.723  0.00  0.00    -0.270 NA
ATOM     24  N   LIG    1       -7.093  -7.252  -0.965  0.00  0.00    -0.250 NA
ATOM     25  C   LIG    1       -6.719  -8.406  -1.474  0.00  0.00    +0.260 A 
BRANCH  25  26
ATOM     26  C   LIG    1       -7.602  -9.509  -1.883  0.00  0.00    +0.040 A 
ATOM     27  C   LIG    1       -8.950  -9.430  -2.068  0.00  0.00    +0.030 A 
ATOM     28  C   LIG    1       -9.382 -10.713  -2.456  0.00  0.00    -0.050 A 
ATOM     29  C   LIG    1       -8.293 -11.507  -2.480  0.00  0.00    +0.190 A 
ATOM     30  O   LIG    1       -7.220 -10.777  -2.134  0.00  0.00    -0.170 OA
ENDBRANCH  25  26
BRANCH  21  32
ATOM     31  C   LIG    1       -4.080 -10.376  -0.919  0.00  0.00    +0.060 C 
ATOM     32  C   LIG    1       -4.470  -9.442  -2.066  0.00  0.00    +0.300 C 
ENDBRANCH  21  32
ENDBRANCH  20  22
ENDBRANCH   1  20
TORSDOF 8
