REMARK  Name = ZINCrH000004s2N2.0
REMARK                            x       y       z     vdW  Elec       q    Type
REMARK                         _______ _______ _______ _____ _____    ______ ____
ROOT
ATOM      1  C   LIG    1       -3.955   3.508   2.937  0.00  0.00    +0.550 C 
ATOM      2  N   LIG    1       -5.095   4.213   3.077  0.00  0.00    -0.590 N 
ATOM      3  O   LIG    1       -3.358   3.119   3.919  0.00  0.00    -0.520 OA
ENDROOT
BRANCH   2   4
ATOM      4  C   LIG    1       -5.816   4.683   1.891  0.00  0.00    +0.250 C 
ATOM      5  C   LIG    1       -5.792   6.212   1.853  0.00  0.00    +0.030 C 
BRANCH   4   6
ATOM      6  C   LIG    1       -7.265   4.197   1.950  0.00  0.00    -0.060 C 
ATOM      7  C   LIG    1       -7.698   3.143   0.928  0.00  0.00    +0.010 C 
ATOM      8  C   LIG    1       -8.188   4.586   0.793  0.00  0.00    +0.030 C 
ENDBRANCH   4   6
ENDBRANCH   2   4
BRANCH   1   9
ATOM      9  C   LIG    1       -3.422   3.202   1.561  0.00  0.00    -0.350 C 
BRANCH   9  10
ATOM     10  S   LIG    1       -1.887   2.246   1.706  0.00  0.00    +2.440 S 
ATOM     11  O   LIG    1       -0.900   3.065   2.317  0.00  0.00    -0.910 OA
ATOM     12  O   LIG    1       -2.193   0.983   2.279  0.00  0.00    -0.910 OA
BRANCH  10  13
ATOM     13  C   LIG    1       -1.435   1.998  -0.034  0.00  0.00    -0.290 C 
BRANCH  13  20
ATOM     14  C   LIG    1        1.111   3.363  -0.075  0.00  0.00    +0.100 C 
ATOM     15  C   LIG    1        1.062   1.858  -0.135  0.00  0.00    -0.060 A 
ATOM     16  C   LIG    1        2.235   1.131  -0.213  0.00  0.00    +0.010 A 
ATOM     17  C   LIG    1        2.190  -0.249  -0.268  0.00  0.00    +0.030 A 
ATOM     18  C   LIG    1        0.972  -0.903  -0.245  0.00  0.00    +0.000 A 
ATOM     19  C   LIG    1       -0.201  -0.175  -0.167  0.00  0.00    +0.030 A 
ATOM     20  C   LIG    1       -0.156   1.205  -0.112  0.00  0.00    -0.100 A 
ENDBRANCH  13  20
ENDBRANCH  10  13
ENDBRANCH   9  10
ENDBRANCH   1   9
BRANCH   2  21
ATOM     21  C   LIG    1       -5.613   4.510   4.415  0.00  0.00    +0.340 C 
BRANCH  21  22
ATOM     22  C   LIG    1       -4.934   5.743   4.954  0.00  0.00    -0.110 A 
ATOM     23  C   LIG    1       -3.701   5.639   5.571  0.00  0.00    +0.030 A 
ATOM     24  C   LIG    1       -3.076   6.770   6.061  0.00  0.00    +0.000 A 
ATOM     25  C   LIG    1       -3.688   8.004   5.944  0.00  0.00    +0.010 A 
ATOM     26  C   LIG    1       -4.924   8.107   5.333  0.00  0.00    -0.010 A 
ATOM     27  C   LIG    1       -5.547   6.976   4.838  0.00  0.00    +0.010 A 
ENDBRANCH  21  22
ENDBRANCH   2  21
TORSDOF 8
