REMARK  Name = ZINCrH000004nWIc.0
REMARK                            x       y       z     vdW  Elec       q    Type
REMARK                         _______ _______ _______ _____ _____    ______ ____
ROOT
ATOM      1  C   LIG    1       -1.163   2.171  -0.198  0.00  0.00    +0.520 C 
ATOM      2  N   LIG    1        0.007   1.501  -0.200  0.00  0.00    -0.610 N 
ATOM      3  C   LIG    1        0.037   0.049  -0.424  0.00  0.00    +0.280 C 
ATOM      4  C   LIG    1        0.809  -0.611   0.723  0.00  0.00    +0.010 C 
ATOM      5  C   LIG    1        2.192   0.036   0.840  0.00  0.00    +0.050 C 
ATOM      6  C   LIG    1        2.035   1.525   1.157  0.00  0.00    -0.030 C 
ATOM      7  C   LIG    1        1.276   2.209   0.015  0.00  0.00    +0.290 C 
ATOM      8  O   LIG    1       -2.193   1.594  -0.472  0.00  0.00    -0.510 OA
ENDROOT
BRANCH   6   9
ATOM      9  C   LIG    1        3.396   2.154   1.304  0.00  0.00    -0.080 A 
ATOM     10  C   LIG    1        3.776   3.185   0.466  0.00  0.00    -0.010 A 
ATOM     11  C   LIG    1        5.023   3.765   0.604  0.00  0.00    +0.000 A 
ATOM     12  C   LIG    1        5.894   3.308   1.575  0.00  0.00    +0.000 A 
ATOM     13  C   LIG    1        5.516   2.273   2.411  0.00  0.00    +0.000 A 
ATOM     14  C   LIG    1        4.267   1.696   2.275  0.00  0.00    +0.050 A 
ENDBRANCH   6   9
BRANCH   1  15
ATOM     15  C   LIG    1       -1.189   3.639   0.144  0.00  0.00    +0.170 C 
ATOM     16  C   LIG    1       -0.636   4.447  -1.031  0.00  0.00    +0.060 C 
BRANCH  15  17
ATOM     17  O   LIG    1       -2.534   4.042   0.409  0.00  0.00    -0.280 OA
BRANCH  17  21
ATOM     18  C   LIG    1       -3.065   7.248   2.955  0.00  0.00    -0.120 A 
ATOM     19  C   LIG    1       -1.784   6.870   2.571  0.00  0.00    +0.070 A 
ATOM     20  C   LIG    1       -1.608   5.797   1.720  0.00  0.00    -0.060 A 
ATOM     21  C   LIG    1       -2.709   5.098   1.248  0.00  0.00    +0.130 A 
ATOM     22  C   LIG    1       -3.988   5.478   1.627  0.00  0.00    +0.010 A 
ATOM     23  C   LIG    1       -4.167   6.546   2.483  0.00  0.00    +0.040 A 
BRANCH  18  25
ATOM     24  C   LIG    1       -5.094   8.697   4.228  0.00  0.00    +0.120 C 
ATOM     25  S   LIG    1       -3.291   8.618   4.041  0.00  0.00    -0.120 S 
ENDBRANCH  18  25
ENDBRANCH  17  21
ENDBRANCH  15  17
ENDBRANCH   1  15
BRANCH   6  26
ATOM     26  C   LIG    1        1.252   1.690   2.461  0.00  0.00    +0.180 C 
BRANCH  26  27
ATOM     27  O   LIG    1        1.958   1.049   3.525  0.00  0.00    -0.560 OA
ATOM     28  H   LIG    1        1.519   1.113   4.384  0.00  0.00    +0.380 HD
ENDBRANCH  26  27
ENDBRANCH   6  26
TORSDOF 7
