REMARK  Name = ZINCpe000000Uh9k.0
REMARK                            x       y       z     vdW  Elec       q    Type
REMARK                         _______ _______ _______ _____ _____    ______ ____
ROOT
ATOM      1  N   LIG    1        3.614   1.852   0.017  0.00  0.00    -0.510 N 
ATOM      2  C   LIG    1        2.489   1.108   0.059  0.00  0.00    +0.570 A 
ATOM      3  C   LIG    1        1.184   1.793   0.090  0.00  0.00    -0.160 A 
ATOM      4  C   LIG    1       -0.010   1.076   0.134  0.00  0.00    +0.120 A 
ATOM      5  C   LIG    1       -1.212   1.754   0.155  0.00  0.00    +0.020 A 
ATOM      6  C   LIG    1       -1.234   3.139   0.145  0.00  0.00    +0.080 A 
ATOM      7  C   LIG    1       -0.058   3.861   0.102  0.00  0.00    +0.020 A 
ATOM      8  C   LIG    1        1.159   3.198   0.074  0.00  0.00    +0.170 A 
ATOM      9  N   LIG    1        2.360   3.894   0.030  0.00  0.00    -0.420 N 
ATOM     10  C   LIG    1        2.664   5.225   0.006  0.00  0.00    +0.160 A 
ATOM     11  N   LIG    1        3.965   5.321  -0.033  0.00  0.00    -0.230 NA
ATOM     12  N   LIG    1        4.495   4.150  -0.035  0.00  0.00    -0.290 NA
ATOM     13  O   LIG    1        2.550  -0.106   0.072  0.00  0.00    -0.490 OA
ATOM     14  C   LIG    1        3.554   3.233   0.003  0.00  0.00    +0.430 A 
ENDROOT
BRANCH   1  16
ATOM     15  C   LIG    1        5.415   0.971   1.417  0.00  0.00    +0.030 C 
ATOM     16  C   LIG    1        4.918   1.186  -0.014  0.00  0.00    +0.310 C 
ENDBRANCH   1  16
BRANCH  10  17
ATOM     17  C   LIG    1        1.683   6.368   0.021  0.00  0.00    +0.470 C 
BRANCH  17  18
ATOM     18  N   LIG    1        1.285   6.652   1.403  0.00  0.00    -0.380 N 
ATOM     19  C   LIG    1        1.378   7.845   2.026  0.00  0.00    +0.250 A 
ATOM     20  C   LIG    1        0.906   7.690   3.285  0.00  0.00    -0.230 A 
ATOM     21  C   LIG    1        0.520   6.354   3.439  0.00  0.00    +0.240 A 
ATOM     22  N   LIG    1        0.747   5.731   2.311  0.00  0.00    -0.290 NA
BRANCH  20  23
ATOM     23  C   LIG    1        0.819   8.765   4.337  0.00  0.00    +0.120 C 
BRANCH  23  24
ATOM     24  C   LIG    1        2.118   8.796   5.145  0.00  0.00    +0.160 C 
BRANCH  24  25
ATOM     25  O   LIG    1        2.034   9.816   6.142  0.00  0.00    -0.580 OA
ATOM     26  H   LIG    1        2.825   9.893   6.693  0.00  0.00    +0.380 HD
ENDBRANCH  24  25
ENDBRANCH  23  24
ENDBRANCH  20  23
ENDBRANCH  17  18
ENDBRANCH  10  17
TORSDOF 6
