REMARK  Name = ZINCrg00000J16v1.2
REMARK                            x       y       z     vdW  Elec       q    Type
REMARK                         _______ _______ _______ _____ _____    ______ ____
ROOT
ATOM      1  O   LIG    1        2.199   1.558  -0.011  0.00  0.00    -0.490 OA
ATOM      2  C   LIG    1        1.140   2.151   0.003  0.00  0.00    +0.510 C 
ATOM      3  N   LIG    1       -0.018   1.461   0.010  0.00  0.00    -0.700 N 
ATOM      4  H   LIG    1       -0.864   1.934   0.017  0.00  0.00    +0.400 HD
ENDROOT
BRANCH   2   5
ATOM      5  C   LIG    1        1.120   3.657   0.011  0.00  0.00    +0.180 C 
ATOM      6  C   LIG    1        0.412   4.154   1.272  0.00  0.00    +0.150 C 
ATOM      7  C   LIG    1        0.588   5.646   1.402  0.00  0.00    -0.090 A 
ATOM      8  C   LIG    1       -0.245   6.340   2.266  0.00  0.00    +0.060 A 
ATOM      9  C   LIG    1       -0.114   7.706   2.415  0.00  0.00    +0.020 A 
ATOM     10  C   LIG    1        0.857   8.387   1.696  0.00  0.00    +0.120 A 
ATOM     11  C   LIG    1        1.688   7.692   0.831  0.00  0.00    +0.020 A 
ATOM     12  C   LIG    1        1.553   6.321   0.683  0.00  0.00    -0.120 A 
ATOM     13  C   LIG    1        2.473   5.607  -0.272  0.00  0.00    +0.340 C 
ATOM     14  N   LIG    1        2.498   4.170   0.009  0.00  0.00    -0.490 N 
ATOM     15  H   LIG    1        3.034   3.694  -0.701  0.00  0.00    +0.440 HD
ATOM     16  H   LIG    1        2.918   4.013   0.913  0.00  0.00    +0.440 HD
BRANCH  10  17
ATOM     17  O   LIG    1        0.993   9.732   1.838  0.00  0.00    -0.500 OA
ATOM     18  H   LIG    1        1.609   9.993   2.536  0.00  0.00    +0.400 HD
ENDBRANCH  10  17
ENDBRANCH   2   5
BRANCH   3  19
ATOM     19  C   LIG    1        0.002  -0.004   0.002  0.00  0.00    +0.300 C 
BRANCH  19  20
ATOM     20  C   LIG    1       -1.284  -0.521  -0.589  0.00  0.00    -0.090 A 
ATOM     21  C   LIG    1       -2.483   0.092  -0.277  0.00  0.00    +0.000 A 
ATOM     22  C   LIG    1       -3.663  -0.379  -0.822  0.00  0.00    +0.000 A 
ATOM     23  C   LIG    1       -3.644  -1.469  -1.673  0.00  0.00    +0.000 A 
ATOM     24  C   LIG    1       -2.446  -2.085  -1.981  0.00  0.00    +0.020 A 
ATOM     25  C   LIG    1       -1.266  -1.611  -1.439  0.00  0.00    +0.030 A 
ENDBRANCH  19  20
BRANCH  19  26
ATOM     26  C   LIG    1        0.148  -0.520   1.435  0.00  0.00    +0.140 C 
BRANCH  26  27
ATOM     27  C   LIG    1        1.490  -0.106   1.983  0.00  0.00    +0.060 A 
ATOM     28  N   LIG    1        2.620  -0.793   1.908  0.00  0.00    -0.370 NA
ATOM     29  N   LIG    1        3.537  -0.100   2.492  0.00  0.00    -0.190 NA
ATOM     30  N   LIG    1        3.018   0.991   2.938  0.00  0.00    -0.210 NA
ATOM     31  N   LIG    1        1.764   1.012   2.639  0.00  0.00    -0.400 NA
ENDBRANCH  26  27
ENDBRANCH  19  26
ENDBRANCH   3  19
TORSDOF 6
