REMARK  Name = ZINCqH0000000Tyn.0
REMARK                            x       y       z     vdW  Elec       q    Type
REMARK                         _______ _______ _______ _____ _____    ______ ____
ROOT
ATOM      1  C   LIG    1        6.227   3.222   0.653  0.00  0.00    +0.280 C 
ATOM      2  C   LIG    1        7.484   3.582  -0.178  0.00  0.00    +0.030 C 
ATOM      3  C   LIG    1        7.035   3.272  -1.627  0.00  0.00    +0.040 C 
ATOM      4  C   LIG    1        6.173   1.999  -1.492  0.00  0.00    +0.020 C 
ATOM      5  C   LIG    1        5.660   1.968  -0.042  0.00  0.00    +0.180 C 
ENDROOT
BRANCH   1   7
ATOM      6  C   LIG    1        6.630   3.901   2.959  0.00  0.00    +0.650 C 
ATOM      7  N   LIG    1        6.598   2.918   2.038  0.00  0.00    -0.710 N 
ATOM      8  H   LIG    1        6.821   2.008   2.291  0.00  0.00    +0.410 HD
ATOM      9  O   LIG    1        6.351   5.040   2.641  0.00  0.00    -0.560 OA
BRANCH   6  10
ATOM     10  O   LIG    1        6.971   3.621   4.231  0.00  0.00    -0.360 OA
BRANCH  10  12
ATOM     11  C   LIG    1        5.588   5.350   5.245  0.00  0.00    +0.040 C 
ATOM     12  C   LIG    1        6.984   4.729   5.169  0.00  0.00    +0.140 C 
ATOM     13  C   LIG    1        7.986   5.784   4.698  0.00  0.00    +0.040 C 
ATOM     14  C   LIG    1        7.392   4.220   6.553  0.00  0.00    +0.080 C 
ENDBRANCH  10  12
ENDBRANCH   6  10
ENDBRANCH   1   7
BRANCH   5  15
ATOM     15  O   LIG    1        4.208   2.005  -0.028  0.00  0.00    -0.350 OA
BRANCH  15  16
ATOM     16  C   LIG    1        3.566   0.820  -0.028  0.00  0.00    +0.550 C 
ATOM     17  O   LIG    1        4.202  -0.216  -0.040  0.00  0.00    -0.500 OA
BRANCH  16  18
ATOM     18  C   LIG    1        2.096   0.780  -0.014  0.00  0.00    -0.280 A 
ATOM     19  C   LIG    1        1.239   1.863   0.000  0.00  0.00    +0.340 A 
ATOM     20  N   LIG    1       -0.017   1.393   0.010  0.00  0.00    -0.460 N 
ATOM     21  H   LIG    1       -0.818   1.941   0.017  0.00  0.00    +0.450 HD
ATOM     22  N   LIG    1        0.002  -0.004   0.002  0.00  0.00    -0.280 NA
ATOM     23  C   LIG    1        1.249  -0.417  -0.012  0.00  0.00    +0.210 A 
BRANCH  23  24
ATOM     24  C   LIG    1        1.712  -1.826  -0.024  0.00  0.00    -0.060 A 
ATOM     25  C   LIG    1        2.811  -2.226  -0.690  0.00  0.00    +0.040 A 
ATOM     26  S   LIG    1        3.037  -3.956  -0.466  0.00  0.00    +0.120 S 
ATOM     27  C   LIG    1        1.593  -4.051   0.533  0.00  0.00    -0.050 A 
ATOM     28  C   LIG    1        1.042  -2.846   0.650  0.00  0.00    +0.030 A 
ENDBRANCH  23  24
ENDBRANCH  16  18
ENDBRANCH  15  16
ENDBRANCH   5  15
TORSDOF 7
