REMARK  Name = ZINCvU00000009g3.0
REMARK                            x       y       z     vdW  Elec       q    Type
REMARK                         _______ _______ _______ _____ _____    ______ ____
ROOT
ATOM      1  C   LIG    1        7.579  -6.385  -0.095  0.00  0.00    +0.110 A 
ATOM      2  C   LIG    1        8.088  -5.104  -0.268  0.00  0.00    +0.030 A 
ATOM      3  C   LIG    1        7.238  -4.016  -0.249  0.00  0.00    +0.010 A 
ATOM      4  C   LIG    1        5.877  -4.201  -0.058  0.00  0.00    +0.120 A 
ATOM      5  C   LIG    1        5.368  -5.479   0.120  0.00  0.00    -0.060 A 
ATOM      6  C   LIG    1        6.216  -6.569   0.096  0.00  0.00    +0.060 A 
ENDROOT
BRANCH   1   9
ATOM      7  O   LIG    1        6.917  -8.748  -1.127  0.00  0.00    -0.510 OA
ATOM      8  C   LIG    1        8.013  -8.668  -0.609  0.00  0.00    +0.560 C 
ATOM      9  N   LIG    1        8.440  -7.489  -0.114  0.00  0.00    -0.670 N 
ATOM     10  H   LIG    1        9.343  -7.406   0.230  0.00  0.00    +0.410 HD
BRANCH   8  11
ATOM     11  C   LIG    1        8.879  -9.863  -0.523  0.00  0.00    -0.130 A 
ATOM     12  C   LIG    1       10.141  -9.772   0.067  0.00  0.00    +0.040 A 
ATOM     13  C   LIG    1       10.943 -10.892   0.149  0.00  0.00    +0.040 A 
ATOM     14  C   LIG    1       10.502 -12.101  -0.361  0.00  0.00    -0.080 A 
ATOM     15  C   LIG    1        9.254 -12.196  -0.951  0.00  0.00    +0.040 A 
ATOM     16  C   LIG    1        8.441 -11.085  -1.035  0.00  0.00    +0.080 A 
BRANCH  14  17
ATOM     17  C   LIG    1       11.385 -13.319  -0.274  0.00  0.00    +0.110 C 
BRANCH  17  18
ATOM     18  C   LIG    1       12.264 -13.402  -1.523  0.00  0.00    +0.460 C 
ATOM     19  F   LIG    1       11.452 -13.495  -2.659  0.00  0.00    -0.180 F 
ATOM     20  F   LIG    1       13.084 -14.533  -1.442  0.00  0.00    -0.180 F 
ATOM     21  F   LIG    1       13.059 -12.255  -1.612  0.00  0.00    -0.180 F 
ENDBRANCH  17  18
ENDBRANCH  14  17
ENDBRANCH   8  11
ENDBRANCH   1   9
BRANCH   4  22
ATOM     22  O   LIG    1        5.041  -3.129  -0.040  0.00  0.00    -0.310 OA
BRANCH  22  23
ATOM     23  C   LIG    1        3.651  -3.393   0.161  0.00  0.00    +0.310 C 
BRANCH  23  24
ATOM     24  C   LIG    1        2.887  -2.094   0.151  0.00  0.00    +0.050 A 
ATOM     25  C   LIG    1        3.422  -0.866  -0.020  0.00  0.00    +0.120 A 
ATOM     26  N   LIG    1        2.393   0.035   0.038  0.00  0.00    -0.360 N 
ATOM     27  C   LIG    1        2.350   1.395  -0.069  0.00  0.00    +0.230 A 
ATOM     28  C   LIG    1        1.177   2.055   0.028  0.00  0.00    +0.010 A 
ATOM     29  C   LIG    1       -0.018   1.348   0.241  0.00  0.00    +0.050 A 
ATOM     30  C   LIG    1        0.011  -0.008   0.350  0.00  0.00    +0.070 A 
ATOM     31  C   LIG    1        1.244  -0.682   0.247  0.00  0.00    +0.230 A 
ATOM     32  N   LIG    1        1.567  -1.966   0.311  0.00  0.00    -0.480 NA
ENDBRANCH  23  24
ENDBRANCH  22  23
ENDBRANCH   4  22
TORSDOF 7
