REMARK  Name = ZINCrH00000tj1aW.0
REMARK                            x       y       z     vdW  Elec       q    Type
REMARK                         _______ _______ _______ _____ _____    ______ ____
ROOT
ATOM      1  C   LIG    1       -2.869   0.370   1.056  0.00  0.00    +0.540 C 
ATOM      2  N   LIG    1       -2.433   1.053  -0.021  0.00  0.00    -0.560 N 
ATOM      3  C   LIG    1       -1.220   1.754   0.017  0.00  0.00    +0.110 A 
ATOM      4  C   LIG    1       -0.013   1.076   0.008  0.00  0.00    +0.040 A 
ATOM      5  C   LIG    1        1.175   1.785   0.000  0.00  0.00    +0.020 A 
ATOM      6  C   LIG    1        1.160   3.168   0.009  0.00  0.00    +0.050 A 
ATOM      7  C   LIG    1       -0.042   3.852   0.037  0.00  0.00    +0.020 A 
ATOM      8  C   LIG    1       -1.234   3.149   0.051  0.00  0.00    +0.140 A 
ATOM      9  N   LIG    1       -2.462   3.819   0.110  0.00  0.00    -0.680 N 
ATOM     10  H   LIG    1       -2.598   4.518   0.768  0.00  0.00    +0.410 HD
ATOM     11  C   LIG    1       -3.459   3.498  -0.743  0.00  0.00    +0.530 C 
ATOM     12  C   LIG    1       -3.230   2.490  -1.838  0.00  0.00    +0.070 C 
ATOM     13  O   LIG    1       -4.545   4.026  -0.627  0.00  0.00    -0.520 OA
ATOM     14  C   LIG    1       -3.218   1.076  -1.257  0.00  0.00    +0.260 C 
ATOM     15  C   LIG    1       -2.596   0.114  -2.271  0.00  0.00    +0.050 C 
ATOM     16  O   LIG    1       -3.921  -0.233   1.007  0.00  0.00    -0.510 OA
ENDROOT
BRANCH   1  17
ATOM     17  C   LIG    1       -2.051   0.356   2.322  0.00  0.00    +0.110 C 
BRANCH  17  18
ATOM     18  S   LIG    1       -2.897  -0.638   3.576  0.00  0.00    +0.040 S 
BRANCH  18  22
ATOM     19  C   LIG    1       -1.296  -1.625   8.482  0.00  0.00    +0.150 C 
ATOM     20  C   LIG    1       -1.076  -0.967   7.144  0.00  0.00    +0.190 A 
ATOM     21  C   LIG    1       -2.002  -1.116   6.131  0.00  0.00    -0.060 A 
ATOM     22  C   LIG    1       -1.754  -0.487   4.908  0.00  0.00    +0.150 A 
ATOM     23  N   LIG    1       -0.638   0.223   4.764  0.00  0.00    -0.530 NA
ATOM     24  C   LIG    1        0.216   0.343   5.761  0.00  0.00    +0.350 A 
ATOM     25  N   LIG    1        0.010  -0.238   6.926  0.00  0.00    -0.530 NA
BRANCH  24  26
ATOM     26  C   LIG    1        1.465   1.161   5.561  0.00  0.00    +0.070 C 
ATOM     27  C   LIG    1        1.081   2.602   5.218  0.00  0.00    +0.040 C 
ATOM     28  C   LIG    1        2.287   0.566   4.415  0.00  0.00    +0.040 C 
ENDBRANCH  24  26
ENDBRANCH  18  22
ENDBRANCH  17  18
ENDBRANCH   1  17
TORSDOF 4
