REMARK  Name = ZINCrg00001Jdv5m.0
REMARK                            x       y       z     vdW  Elec       q    Type
REMARK                         _______ _______ _______ _____ _____    ______ ____
ROOT
ATOM      1  C   LIG    1        3.624   2.123  -0.034  0.00  0.00    +0.590 C 
ATOM      2  N   LIG    1        4.793   1.456   0.043  0.00  0.00    -0.590 N 
ATOM      3  C   LIG    1        4.735   0.014   0.024  0.00  0.00    +0.240 C 
ATOM      4  C   LIG    1        6.017  -0.678  -0.392  0.00  0.00    +0.020 C 
ATOM      5  C   LIG    1        7.256   0.110   0.029  0.00  0.00    +0.050 C 
ATOM      6  C   LIG    1        7.156   1.520  -0.556  0.00  0.00    -0.010 C 
ATOM      7  C   LIG    1        8.473   2.268  -0.383  0.00  0.00    +0.050 C 
ATOM      8  C   LIG    1        8.775   2.433   1.109  0.00  0.00    +0.260 C 
ATOM      9  O   LIG    1       10.024   3.118   1.279  0.00  0.00    -0.370 OA
ATOM     10  C   LIG    1       10.613   2.521   2.461  0.00  0.00    +0.210 C 
ATOM     11  C   LIG    1       10.171   1.043   2.320  0.00  0.00    +0.190 C 
ATOM     12  C   LIG    1        7.649   3.252   1.750  0.00  0.00    +0.020 C 
ATOM     13  C   LIG    1        6.344   2.462   1.621  0.00  0.00    +0.030 C 
ATOM     14  O   LIG    1        8.856   1.149   1.736  0.00  0.00    -0.360 OA
ATOM     15  C   LIG    1        6.012   2.251   0.135  0.00  0.00    +0.250 C 
ATOM     16  O   LIG    1        3.621   3.336  -0.121  0.00  0.00    -0.510 OA
ENDROOT
BRANCH   1  28
ATOM     17  O   LIG    1        1.962   1.639  -2.308  0.00  0.00    -0.490 OA
ATOM     18  C   LIG    1        1.574   1.189  -1.247  0.00  0.00    +0.570 A 
ATOM     19  N   LIG    1        0.417   0.499  -1.168  0.00  0.00    -0.650 N 
ATOM     20  H   LIG    1       -0.113   0.355  -1.968  0.00  0.00    +0.440 HD
ATOM     21  C   LIG    1       -0.006   0.010   0.007  0.00  0.00    +0.710 A 
ATOM     22  N   LIG    1        0.682   0.176   1.156  0.00  0.00    -0.530 N 
ATOM     23  C   LIG    1        0.343  -0.284   2.514  0.00  0.00    +0.310 C 
ATOM     24  C   LIG    1        1.658  -0.216   3.319  0.00  0.00    +0.070 C 
ATOM     25  C   LIG    1        2.434   0.886   2.564  0.00  0.00    +0.130 C 
ATOM     26  C   LIG    1        1.860   0.853   1.163  0.00  0.00    +0.230 A 
ATOM     27  O   LIG    1       -1.052  -0.609   0.038  0.00  0.00    -0.530 OA
ATOM     28  C   LIG    1        2.353   1.383  -0.014  0.00  0.00    -0.300 A 
ENDBRANCH   1  28
TORSDOF 1
