REMARK  Name = ZINCqH0000005yqu.0
REMARK                            x       y       z     vdW  Elec       q    Type
REMARK                         _______ _______ _______ _____ _____    ______ ____
ROOT
ATOM      1  C   LIG    1        4.663   1.377   0.465  0.00  0.00    +0.360 A 
ATOM      2  N   LIG    1        3.510   1.998   0.511  0.00  0.00    -0.530 NA
ATOM      3  C   LIG    1        2.376   1.422   0.051  0.00  0.00    +0.160 A 
ATOM      4  C   LIG    1        1.147   2.086   0.100  0.00  0.00    +0.030 A 
ATOM      5  C   LIG    1        0.016   1.463  -0.378  0.00  0.00    +0.070 A 
ATOM      6  C   LIG    1        0.080   0.181  -0.910  0.00  0.00    +0.000 A 
ATOM      7  C   LIG    1        1.279  -0.494  -0.969  0.00  0.00    +0.100 A 
ATOM      8  C   LIG    1        2.437   0.117  -0.491  0.00  0.00    -0.200 A 
ATOM      9  C   LIG    1        3.741  -0.558  -0.530  0.00  0.00    +0.560 A 
ATOM     10  O   LIG    1        3.857  -1.681  -0.984  0.00  0.00    -0.490 OA
ATOM     11  N   LIG    1        4.809   0.115  -0.042  0.00  0.00    -0.480 N 
ENDROOT
BRANCH  11  12
ATOM     12  C   LIG    1        6.074  -0.486  -0.057  0.00  0.00    +0.080 A 
ATOM     13  C   LIG    1        6.909  -0.325  -1.155  0.00  0.00    +0.050 A 
ATOM     14  C   LIG    1        8.158  -0.914  -1.164  0.00  0.00    +0.020 A 
ATOM     15  C   LIG    1        8.574  -1.673  -0.085  0.00  0.00    -0.050 A 
ATOM     16  C   LIG    1        7.743  -1.840   1.008  0.00  0.00    +0.020 A 
ATOM     17  C   LIG    1        6.495  -1.249   1.025  0.00  0.00    +0.050 A 
BRANCH  15  18
ATOM     18  C   LIG    1        9.935  -2.318  -0.100  0.00  0.00    +0.020 C 
ATOM     19  C   LIG    1       11.011  -1.238  -0.230  0.00  0.00    +0.030 C 
ATOM     20  C   LIG    1       10.031  -3.279  -1.288  0.00  0.00    +0.030 C 
ENDBRANCH  15  18
ENDBRANCH  11  12
BRANCH   1  21
ATOM     21  S   LIG    1        6.089   2.203   1.086  0.00  0.00    +0.090 S 
BRANCH  21  22
ATOM     22  C   LIG    1        5.344   3.768   1.608  0.00  0.00    +0.150 C 
BRANCH  22  23
ATOM     23  C   LIG    1        6.408   4.662   2.189  0.00  0.00    +0.480 C 
ATOM     24  O   LIG    1        7.553   4.281   2.245  0.00  0.00    -0.490 OA
BRANCH  23  26
ATOM     25  C   LIG    1        7.160   6.689   3.192  0.00  0.00    +0.290 C 
ATOM     26  O   LIG    1        6.084   5.882   2.645  0.00  0.00    -0.350 OA
ENDBRANCH  23  26
ENDBRANCH  22  23
ENDBRANCH  21  22
ENDBRANCH   1  21
TORSDOF 6
