REMARK  Name = ZINCqH0000000gb9.0
REMARK                            x       y       z     vdW  Elec       q    Type
REMARK                         _______ _______ _______ _____ _____    ______ ____
ROOT
ATOM      1  C   LIG    1       -1.938   4.589   5.667  0.00  0.00    -0.660 A 
ATOM      2  C   LIG    1       -2.826   4.176   4.690  0.00  0.00    +0.130 A 
ATOM      3  C   LIG    1       -2.390   3.982   3.395  0.00  0.00    +0.060 A 
ATOM      4  C   LIG    1       -1.050   4.202   3.073  0.00  0.00    -0.070 A 
ATOM      5  C   LIG    1       -0.159   4.612   4.065  0.00  0.00    +0.030 A 
ATOM      6  C   LIG    1       -0.609   4.809   5.354  0.00  0.00    +0.120 A 
ENDROOT
BRANCH   4   7
ATOM      7  C   LIG    1       -0.576   3.995   1.688  0.00  0.00    +0.550 C 
ATOM      8  N   LIG    1        0.702   3.632   1.460  0.00  0.00    -0.600 N 
ATOM      9  C   LIG    1        1.655   3.570   2.571  0.00  0.00    +0.280 C 
ATOM     10  O   LIG    1       -1.339   4.152   0.755  0.00  0.00    -0.500 OA
BRANCH   8  11
ATOM     11  C   LIG    1        1.138   3.299   0.102  0.00  0.00    +0.360 C 
BRANCH  11  12
ATOM     12  C   LIG    1        1.118   1.804  -0.080  0.00  0.00    -0.090 A 
ATOM     13  C   LIG    1        2.266   1.065   0.137  0.00  0.00    +0.050 A 
ATOM     14  C   LIG    1        2.249  -0.307  -0.030  0.00  0.00    +0.030 A 
ATOM     15  C   LIG    1        1.083  -0.942  -0.415  0.00  0.00    +0.050 A 
ATOM     16  C   LIG    1       -0.067  -0.205  -0.634  0.00  0.00    -0.040 A 
ATOM     17 CL   LIG    1       -1.531  -1.002  -1.118  0.00  0.00    -0.050 Cl
ATOM     18  C   LIG    1       -0.049   1.169  -0.466  0.00  0.00    -0.030 A 
ATOM     19 CL   LIG    1       -1.490   2.097  -0.747  0.00  0.00    -0.010 Cl
ENDBRANCH  11  12
ENDBRANCH   8  11
ENDBRANCH   4   7
BRANCH   1  20
ATOM     20  S   LIG    1       -2.503   4.836   7.318  0.00  0.00    +2.700 S 
ATOM     21  O   LIG    1       -3.900   5.083   7.231  0.00  0.00    -0.950 OA
ATOM     22  O   LIG    1       -1.591   5.741   7.923  0.00  0.00    -0.950 OA
BRANCH  20  23
ATOM     23  N   LIG    1       -2.332   3.395   8.116  0.00  0.00    -1.110 NA
ATOM     24  H   LIG    1       -3.115   2.921   8.434  0.00  0.00    +0.420 HD
BRANCH  23  25
ATOM     25  C   LIG    1       -0.996   2.838   8.341  0.00  0.00    +0.300 C 
BRANCH  25  27
ATOM     26  C   LIG    1       -0.617   0.552   9.111  0.00  0.00    +0.040 C 
ATOM     27  C   LIG    1       -1.075   1.749   9.380  0.00  0.00    -0.050 C 
ENDBRANCH  25  27
ENDBRANCH  23  25
ENDBRANCH  20  23
ENDBRANCH   1  20
TORSDOF 7
