REMARK  Name = ZINCvU0000000EBc.0
REMARK                            x       y       z     vdW  Elec       q    Type
REMARK                         _______ _______ _______ _____ _____    ______ ____
ROOT
ATOM      1  C   LIG    1       -5.668   0.030  -2.047  0.00  0.00    +0.260 C 
ENDROOT
BRANCH   1   2
ATOM      2  C   LIG    1       -4.726   1.180  -2.299  0.00  0.00    +0.520 C 
ATOM      3  N   LIG    1       -3.961   1.655  -1.297  0.00  0.00    -0.650 N 
ATOM      4  H   LIG    1       -4.071   1.311  -0.397  0.00  0.00    +0.410 HD
ATOM      5  O   LIG    1       -4.657   1.676  -3.403  0.00  0.00    -0.490 OA
BRANCH   3   6
ATOM      6  C   LIG    1       -3.010   2.643  -1.554  0.00  0.00    +0.300 A 
ATOM      7  C   LIG    1       -2.749   3.213  -2.762  0.00  0.00    -0.100 A 
ATOM      8  C   LIG    1       -1.730   4.151  -2.581  0.00  0.00    +0.250 A 
ATOM      9  N   LIG    1       -1.391   4.153  -1.317  0.00  0.00    -0.280 NA
ATOM     10  N   LIG    1       -2.179   3.207  -0.648  0.00  0.00    -0.380 N 
BRANCH  10  11
ATOM     11  C   LIG    1       -2.118   2.890   0.781  0.00  0.00    +0.390 C 
BRANCH  11  12
ATOM     12  C   LIG    1       -1.127   1.777   1.007  0.00  0.00    -0.070 A 
ATOM     13  C   LIG    1       -1.528   0.451   0.966  0.00  0.00    -0.030 A 
ATOM     14  C   LIG    1       -0.592  -0.543   1.183  0.00  0.00    +0.260 A 
ATOM     15  N   LIG    1        0.670  -0.241   1.415  0.00  0.00    -0.480 NA
ATOM     16  C   LIG    1        1.088   1.009   1.456  0.00  0.00    +0.260 A 
ATOM     17  C   LIG    1        0.208   2.056   1.254  0.00  0.00    +0.000 A 
ENDBRANCH  11  12
ENDBRANCH  10  11
ENDBRANCH   3   6
ENDBRANCH   1   2
BRANCH   1  19
ATOM     18  C   LIG    1       -7.692   1.490  -2.173  0.00  0.00    +0.030 C 
ATOM     19  C   LIG    1       -6.894   0.534  -1.283  0.00  0.00    -0.020 C 
ATOM     20  C   LIG    1       -7.775  -0.654  -0.892  0.00  0.00    +0.040 C 
ENDBRANCH   1  19
BRANCH   1  21
ATOM     21  N   LIG    1       -6.092  -0.543  -3.327  0.00  0.00    -0.710 N 
ATOM     22  H   LIG    1       -6.277   0.038  -4.081  0.00  0.00    +0.420 HD
BRANCH  21  23
ATOM     23  C   LIG    1       -6.229  -1.927  -3.461  0.00  0.00    +0.260 A 
ATOM     24  C   LIG    1       -5.909  -2.764  -2.401  0.00  0.00    -0.050 A 
ATOM     25  C   LIG    1       -6.047  -4.132  -2.537  0.00  0.00    +0.130 A 
ATOM     26  C   LIG    1       -6.503  -4.668  -3.726  0.00  0.00    -0.230 A 
ATOM     27  C   LIG    1       -6.823  -3.838  -4.785  0.00  0.00    +0.140 A 
ATOM     28  C   LIG    1       -6.693  -2.469  -4.655  0.00  0.00    -0.110 A 
ATOM     29 CL   LIG    1       -7.101  -1.427  -5.982  0.00  0.00    -0.050 Cl
BRANCH  26  30
ATOM     30  C   LIG    1       -6.653  -6.161  -3.870  0.00  0.00    +0.510 C 
ATOM     31  F   LIG    1       -5.708  -6.804  -3.062  0.00  0.00    -0.180 F 
ATOM     32  F   LIG    1       -6.448  -6.524  -5.205  0.00  0.00    -0.180 F 
ATOM     33  F   LIG    1       -7.940  -6.541  -3.475  0.00  0.00    -0.180 F 
ENDBRANCH  26  30
ENDBRANCH  21  23
ENDBRANCH   1  21
TORSDOF 8
