REMARK  Name = ZINCqH0000035ZzS.0
REMARK                            x       y       z     vdW  Elec       q    Type
REMARK                         _______ _______ _______ _____ _____    ______ ____
ROOT
ATOM      1  C   LIG    1       -2.103   3.679   5.587  0.00  0.00    +0.320 C 
ENDROOT
BRANCH   1   2
ATOM      2  C   LIG    1       -3.087   3.977   6.689  0.00  0.00    -0.120 A 
ATOM      3  C   LIG    1       -3.899   5.094   6.605  0.00  0.00    +0.070 A 
ATOM      4  C   LIG    1       -4.809   5.372   7.610  0.00  0.00    +0.010 A 
ATOM      5  C   LIG    1       -4.904   4.543   8.707  0.00  0.00    +0.090 A 
ATOM      6  C   LIG    1       -4.083   3.417   8.801  0.00  0.00    -0.130 A 
ATOM      7  C   LIG    1       -3.171   3.139   7.781  0.00  0.00    +0.100 A 
BRANCH   6   8
ATOM      8  C   LIG    1       -4.180   2.524   9.974  0.00  0.00    +0.510 C 
ATOM      9  O   LIG    1       -3.465   1.545  10.052  0.00  0.00    -0.500 OA
BRANCH   8  10
ATOM     10  O   LIG    1       -5.061   2.795  10.956  0.00  0.00    -0.350 OA
BRANCH  10  11
ATOM     11  C   LIG    1       -5.102   1.874  12.078  0.00  0.00    +0.120 C 
ATOM     12  C   LIG    1       -5.463   0.474  11.576  0.00  0.00    +0.030 C 
ATOM     13  C   LIG    1       -6.154   2.342  13.085  0.00  0.00    +0.080 C 
ATOM     14  C   LIG    1       -3.730   1.835  12.755  0.00  0.00    +0.030 C 
ENDBRANCH  10  11
ENDBRANCH   8  10
ENDBRANCH   6   8
ENDBRANCH   1   2
BRANCH   1  16
ATOM     15  C   LIG    1       -2.048   2.433   3.493  0.00  0.00    +0.560 C 
ATOM     16  N   LIG    1       -2.742   2.830   4.578  0.00  0.00    -0.730 N 
ATOM     17  H   LIG    1       -3.665   2.553   4.691  0.00  0.00    +0.400 HD
ATOM     18  O   LIG    1       -0.891   2.780   3.352  0.00  0.00    -0.510 OA
BRANCH  15  25
ATOM     19  C   LIG    1       -1.973   1.164   1.348  0.00  0.00    +0.180 A 
ATOM     20  C   LIG    1       -2.588   0.365   0.396  0.00  0.00    -0.040 A 
ATOM     21  C   LIG    1       -3.901  -0.029   0.567  0.00  0.00    +0.070 A 
ATOM     22  C   LIG    1       -4.616   0.378   1.682  0.00  0.00    +0.050 A 
ATOM     23  C   LIG    1       -4.020   1.178   2.637  0.00  0.00    +0.060 A 
ATOM     24  F   LIG    1       -5.901  -0.009   1.836  0.00  0.00    -0.140 F 
ATOM     25  C   LIG    1       -2.691   1.578   2.478  0.00  0.00    -0.150 A 
BRANCH  19  27
ATOM     26  C   LIG    1       -0.013   1.086   0.008  0.00  0.00    +0.250 C 
ATOM     27  O   LIG    1       -0.682   1.547   1.184  0.00  0.00    -0.280 OA
ENDBRANCH  19  27
ENDBRANCH  15  25
ENDBRANCH   1  16
TORSDOF 7
