REMARK  Name = ZINCrH00000No4NT.0
REMARK                            x       y       z     vdW  Elec       q    Type
REMARK                         _______ _______ _______ _____ _____    ______ ____
ROOT
ATOM      1  C   LIG    1        4.721  -0.275  -0.044  0.00  0.00    -0.700 A 
ATOM      2  C   LIG    1        4.527   0.806  -0.885  0.00  0.00    +0.140 A 
ATOM      3  C   LIG    1        3.325   1.484  -0.876  0.00  0.00    +0.010 A 
ATOM      4  C   LIG    1        2.304   1.076  -0.014  0.00  0.00    +0.160 A 
ATOM      5  C   LIG    1        2.510  -0.012   0.836  0.00  0.00    -0.050 A 
ATOM      6  C   LIG    1        3.714  -0.684   0.812  0.00  0.00    +0.140 A 
ENDROOT
BRANCH   1   8
ATOM      7  O   LIG    1        5.995  -2.441   0.432  0.00  0.00    -0.950 OA
ATOM      8  S   LIG    1        6.259  -1.135  -0.063  0.00  0.00    +2.690 S 
ATOM      9  O   LIG    1        6.841  -0.889  -1.336  0.00  0.00    -0.950 OA
BRANCH   8  10
ATOM     10  N   LIG    1        7.244  -0.403   1.050  0.00  0.00    -1.000 NA
ATOM     11  C   LIG    1        8.125   0.710   0.666  0.00  0.00    +0.280 C 
ATOM     12  C   LIG    1        7.900   1.863   1.657  0.00  0.00    +0.220 C 
ATOM     13  O   LIG    1        8.046   1.370   2.991  0.00  0.00    -0.370 OA
ATOM     14  C   LIG    1        7.088   0.374   3.355  0.00  0.00    +0.220 C 
ATOM     15  C   LIG    1        7.267  -0.852   2.452  0.00  0.00    +0.280 C 
ENDBRANCH   8  10
ENDBRANCH   1   8
BRANCH   4  16
ATOM     16  N   LIG    1        1.110   1.744   0.001  0.00  0.00    -0.500 NA
ATOM     17  C   LIG    1       -0.013   1.076   0.008  0.00  0.00    +0.380 C 
BRANCH  17  18
ATOM     18  C   LIG    1       -1.291   1.791   0.018  0.00  0.00    -0.180 A 
ATOM     19  C   LIG    1       -2.538   1.236   0.021  0.00  0.00    +0.310 A 
ATOM     20  N   LIG    1       -3.476   2.216   0.031  0.00  0.00    -0.580 N 
ATOM     21  H   LIG    1       -4.435   2.066   0.035  0.00  0.00    +0.430 HD
ATOM     22  C   LIG    1       -2.874   3.458   0.034  0.00  0.00    +0.090 A 
ATOM     23  C   LIG    1       -3.373   4.757   0.043  0.00  0.00    +0.010 A 
ATOM     24  C   LIG    1       -2.504   5.827   0.044  0.00  0.00    +0.070 A 
ATOM     25  C   LIG    1       -1.131   5.623   0.036  0.00  0.00    -0.110 A 
ATOM     26  C   LIG    1       -0.618   4.343   0.027  0.00  0.00    +0.120 A 
ATOM     27 BR   LIG    1        0.041   7.107   0.037  0.00  0.00    -0.050 Br
ATOM     28  C   LIG    1       -1.485   3.253   0.033  0.00  0.00    -0.070 A 
ENDBRANCH  17  18
ENDBRANCH   4  16
TORSDOF 4
