REMARK  Name = ZINCpe000000YIkV.0
REMARK                            x       y       z     vdW  Elec       q    Type
REMARK                         _______ _______ _______ _____ _____    ______ ____
ROOT
ATOM      1  N   LIG    1       -6.726   1.344   1.706  0.00  0.00    -0.670 N 
ATOM      2  H   LIG    1       -7.312   1.121   0.966  0.00  0.00    +0.420 HD
ATOM      3  C   LIG    1       -5.517   1.889   1.467  0.00  0.00    +0.500 C 
ATOM      4  O   LIG    1       -4.824   2.256   2.393  0.00  0.00    -0.500 OA
ENDROOT
BRANCH   1   9
ATOM      5  C   LIG    1       -8.879   0.968   4.663  0.00  0.00    -0.080 A 
ATOM      6  C   LIG    1       -7.947   0.615   5.622  0.00  0.00    +0.020 A 
ATOM      7  C   LIG    1       -6.611   0.504   5.284  0.00  0.00    +0.050 A 
ATOM      8  C   LIG    1       -6.204   0.740   3.985  0.00  0.00    +0.030 A 
ATOM      9  C   LIG    1       -7.136   1.099   3.021  0.00  0.00    +0.150 A 
ATOM     10  C   LIG    1       -8.477   1.210   3.364  0.00  0.00    +0.010 A 
BRANCH   5  11
ATOM     11  C   LIG    1      -10.334   1.088   5.036  0.00  0.00    -0.280 C 
BRANCH  11  12
ATOM     12  S   LIG    1      -11.152  -0.515   4.806  0.00  0.00    +2.610 S 
ATOM     13  O   LIG    1      -10.679  -1.457   5.758  0.00  0.00    -0.950 OA
ATOM     14  O   LIG    1      -11.226  -0.843   3.425  0.00  0.00    -0.960 OA
BRANCH  12  15
ATOM     15  N   LIG    1      -12.725  -0.243   5.246  0.00  0.00    -1.250 NA
ATOM     16  H   LIG    1      -12.932   0.427   5.916  0.00  0.00    +0.410 HD
ATOM     17  H   LIG    1      -13.439  -0.754   4.833  0.00  0.00    +0.420 HD
ENDBRANCH  12  15
ENDBRANCH  11  12
ENDBRANCH   5  11
ENDBRANCH   1   9
BRANCH   3  18
ATOM     18  C   LIG    1       -5.026   2.043   0.051  0.00  0.00    +0.360 C 
BRANCH  18  19
ATOM     19  N   LIG    1       -3.696   2.657   0.059  0.00  0.00    -0.520 N 
ATOM     20  C   LIG    1       -3.575   4.009   0.009  0.00  0.00    +0.600 A 
ATOM     21  N   LIG    1       -2.416   4.595   0.025  0.00  0.00    -0.500 NA
ATOM     22  C   LIG    1       -1.265   3.891   0.076  0.00  0.00    +0.070 A 
ATOM     23  C   LIG    1       -1.312   2.501   0.124  0.00  0.00    -0.230 A 
ATOM     24  C   LIG    1        0.010   1.910   0.180  0.00  0.00    +0.080 A 
ATOM     25  C   LIG    1        1.005   2.778   0.165  0.00  0.00    -0.050 A 
ATOM     26  S   LIG    1        0.411   4.426   0.087  0.00  0.00    +0.210 S 
ATOM     27  C   LIG    1       -2.599   1.877   0.117  0.00  0.00    +0.570 A 
ATOM     28  O   LIG    1       -2.701   0.663   0.162  0.00  0.00    -0.520 OA
ENDBRANCH  18  19
ENDBRANCH   3  18
TORSDOF 6
