REMARK  Name = ZINCpk00000xW7VZ.0
REMARK                            x       y       z     vdW  Elec       q    Type
REMARK                         _______ _______ _______ _____ _____    ______ ____
ROOT
ATOM      1  C   LIG    1        3.766  -2.763   0.462  0.00  0.00    +0.600 C 
ATOM      2  N   LIG    1        2.691  -1.988   0.217  0.00  0.00    -0.600 N 
ATOM      3  C   LIG    1        1.359  -2.586   0.049  0.00  0.00    +0.280 C 
ATOM      4  C   LIG    1        0.786  -2.110  -1.276  0.00  0.00    +0.050 C 
ATOM      5  C   LIG    1        0.789  -0.584  -1.334  0.00  0.00    +0.170 C 
ATOM      6  O   LIG    1        0.009  -0.052  -0.262  0.00  0.00    -0.380 OA
ATOM      7  C   LIG    1       -0.032   1.379  -0.239  0.00  0.00    +0.220 C 
ATOM      8  C   LIG    1        1.393   1.925  -0.132  0.00  0.00    +0.150 C 
ATOM      9  N   LIG    1        2.202   1.405  -1.243  0.00  0.00    -0.530 NA
ATOM     10  C   LIG    1        3.565   1.953  -1.205  0.00  0.00    +0.190 C 
ATOM     11  C   LIG    1        2.225  -0.068  -1.219  0.00  0.00    +0.140 C 
ATOM     12  C   LIG    1        2.826  -0.530   0.113  0.00  0.00    +0.270 C 
ATOM     13  O   LIG    1        4.878  -2.271   0.484  0.00  0.00    -0.540 OA
ENDROOT
BRANCH   1  16
ATOM     14  N   LIG    1        3.965  -6.371   0.796  0.00  0.00    -0.290 N 
ATOM     15  C   LIG    1        4.514  -5.199   0.425  0.00  0.00    +0.320 A 
ATOM     16  C   LIG    1        3.595  -4.207   0.703  0.00  0.00    -0.260 A 
ATOM     17  C   LIG    1        2.461  -4.835   1.267  0.00  0.00    +0.290 A 
ATOM     18  N   LIG    1        2.689  -6.119   1.313  0.00  0.00    -0.250 NA
BRANCH  14  22
ATOM     19  C   LIG    1        4.733  -9.838   0.871  0.00  0.00    +0.100 A 
ATOM     20  C   LIG    1        5.938  -9.637   0.331  0.00  0.00    -0.070 A 
ATOM     21  S   LIG    1        6.124  -7.909   0.043  0.00  0.00    +0.180 S 
ATOM     22  C   LIG    1        4.566  -7.624   0.685  0.00  0.00    +0.260 A 
ATOM     23  N   LIG    1        4.022  -8.743   1.048  0.00  0.00    -0.460 NA
BRANCH  19  25
ATOM     24  C   LIG    1        3.810 -11.210   2.719  0.00  0.00    +0.030 C 
ATOM     25  C   LIG    1        4.227 -11.207   1.247  0.00  0.00    +0.130 C 
ENDBRANCH  19  25
ENDBRANCH  14  22
ENDBRANCH   1  16
TORSDOF 3
