REMARK  Name = ZINCqH0000008m4O.0
REMARK                            x       y       z     vdW  Elec       q    Type
REMARK                         _______ _______ _______ _____ _____    ______ ____
ROOT
ATOM      1  N   LIG    1       -0.018   1.461   0.010  0.00  0.00    -0.730 N 
ATOM      2  H   LIG    1       -0.864   1.934   0.017  0.00  0.00    +0.400 HD
ATOM      3  C   LIG    1        1.140   2.151   0.003  0.00  0.00    +0.510 C 
ATOM      4  O   LIG    1        2.199   1.558  -0.011  0.00  0.00    -0.520 OA
ENDROOT
BRANCH   1   6
ATOM      5  C   LIG    1        0.121  -0.505  -1.439  0.00  0.00    +0.040 C 
ATOM      6  C   LIG    1        0.002  -0.004   0.002  0.00  0.00    +0.290 C 
BRANCH   6   7
ATOM      7  C   LIG    1       -1.273  -0.527   0.612  0.00  0.00    -0.100 A 
ATOM      8  C   LIG    1       -2.476   0.097   0.337  0.00  0.00    +0.040 A 
ATOM      9  C   LIG    1       -3.647  -0.383   0.891  0.00  0.00    +0.000 A 
ATOM     10  C   LIG    1       -3.614  -1.487   1.732  0.00  0.00    +0.140 A 
ATOM     11  C   LIG    1       -2.404  -2.108   2.010  0.00  0.00    +0.010 A 
ATOM     12  C   LIG    1       -1.237  -1.627   1.449  0.00  0.00    +0.060 A 
BRANCH  10  13
ATOM     13  N   LIG    1       -4.800  -1.974   2.299  0.00  0.00    -0.410 N 
ATOM     14  C   LIG    1       -6.059  -1.462   2.120  0.00  0.00    +0.120 A 
ATOM     15  C   LIG    1       -6.899  -2.231   2.839  0.00  0.00    +0.160 A 
ATOM     16  N   LIG    1       -6.177  -3.182   3.450  0.00  0.00    -0.480 NA
ATOM     17  C   LIG    1       -4.918  -3.039   3.134  0.00  0.00    +0.400 A 
ENDBRANCH  10  13
ENDBRANCH   6   7
ENDBRANCH   1   6
BRANCH   3  18
ATOM     18  C   LIG    1        1.120   3.657   0.011  0.00  0.00    +0.140 C 
BRANCH  18  19
ATOM     19  C   LIG    1        2.534   4.179   0.000  0.00  0.00    -0.160 A 
ATOM     20  C   LIG    1        3.258   4.543   1.070  0.00  0.00    +0.240 A 
ATOM     21  N   LIG    1        4.499   4.962   0.672  0.00  0.00    -0.590 N 
ATOM     22  H   LIG    1        5.200   5.271   1.267  0.00  0.00    +0.420 HD
ATOM     23  C   LIG    1        4.602   4.884  -0.699  0.00  0.00    +0.100 A 
ATOM     24  C   LIG    1        5.617   5.184  -1.601  0.00  0.00    -0.010 A 
ATOM     25  C   LIG    1        5.411   4.994  -2.950  0.00  0.00    +0.020 A 
ATOM     26  C   LIG    1        4.199   4.507  -3.420  0.00  0.00    -0.030 A 
ATOM     27  C   LIG    1        3.188   4.206  -2.551  0.00  0.00    +0.050 A 
ATOM     28  C   LIG    1        3.375   4.391  -1.180  0.00  0.00    -0.090 A 
ENDBRANCH  18  19
ENDBRANCH   3  18
TORSDOF 5
