REMARK  Name = ZINCvU0000000Dkv.0
REMARK                            x       y       z     vdW  Elec       q    Type
REMARK                         _______ _______ _______ _____ _____    ______ ____
ROOT
ATOM      1  C   LIG    1        4.935  -3.919   1.137  0.00  0.00    -0.270 A 
ATOM      2  C   LIG    1        5.831  -4.745   1.698  0.00  0.00    +0.190 A 
ATOM      3  C   LIG    1        6.749  -5.323   0.811  0.00  0.00    -0.220 A 
ATOM      4  C   LIG    1        6.557  -4.926  -0.502  0.00  0.00    +0.020 A 
ATOM      5  N   LIG    1        7.508  -5.554  -1.263  0.00  0.00    -0.300 N 
ATOM      6  N   LIG    1        8.291  -6.342  -0.415  0.00  0.00    -0.250 NA
ATOM      7  C   LIG    1        7.863  -6.221   0.806  0.00  0.00    +0.140 A 
ATOM      8  C   LIG    1        8.443  -6.910   2.014  0.00  0.00    +0.180 C 
ATOM      9  S   LIG    1        5.194  -3.819  -0.596  0.00  0.00    +0.210 S 
ENDROOT
BRANCH   1  14
ATOM     10  C   LIG    1        1.686  -0.450   0.835  0.00  0.00    +0.050 C 
ATOM     11  C   LIG    1        1.910  -1.137  -0.538  0.00  0.00    +0.050 C 
ATOM     12  C   LIG    1        3.044  -2.141  -0.240  0.00  0.00    +0.240 C 
ATOM     13  N   LIG    1        3.033  -2.397   1.207  0.00  0.00    -0.620 N 
ATOM     14  C   LIG    1        3.884  -3.205   1.869  0.00  0.00    +0.610 C 
ATOM     15  O   LIG    1        3.780  -3.343   3.074  0.00  0.00    -0.520 OA
ATOM     16  C   LIG    1        1.935  -1.623   1.815  0.00  0.00    +0.290 C 
BRANCH  10  22
ATOM     17  C   LIG    1        0.047   1.420   1.156  0.00  0.00    +0.140 A 
ATOM     18  C   LIG    1       -1.253   1.893   1.267  0.00  0.00    -0.080 A 
ATOM     19  C   LIG    1       -2.316   1.014   1.179  0.00  0.00    +0.050 A 
ATOM     20  C   LIG    1       -2.085  -0.334   0.976  0.00  0.00    -0.020 A 
ATOM     21  C   LIG    1       -0.790  -0.808   0.870  0.00  0.00    +0.050 A 
ATOM     22  C   LIG    1        0.276   0.067   0.957  0.00  0.00    -0.110 A 
BRANCH  17  24
ATOM     23  C   LIG    1        0.783   3.662   1.447  0.00  0.00    +0.250 C 
ATOM     24  O   LIG    1        1.094   2.283   1.241  0.00  0.00    -0.310 OA
ENDBRANCH  17  24
ENDBRANCH  10  22
ENDBRANCH   1  14
BRANCH   5  25
ATOM     25  C   LIG    1        7.667  -5.428  -2.649  0.00  0.00    +0.140 A 
ATOM     26  C   LIG    1        6.567  -5.540  -3.489  0.00  0.00    +0.010 A 
ATOM     27  C   LIG    1        6.727  -5.410  -4.855  0.00  0.00    +0.030 A 
ATOM     28  C   LIG    1        7.983  -5.181  -5.387  0.00  0.00    +0.020 A 
ATOM     29  C   LIG    1        9.081  -5.074  -4.553  0.00  0.00    +0.020 A 
ATOM     30  C   LIG    1        8.927  -5.197  -3.187  0.00  0.00    -0.070 A 
ATOM     31  C   LIG    1       10.125  -5.082  -2.279  0.00  0.00    +0.100 C 
ENDBRANCH   5  25
TORSDOF 4
