REMARK  Name = ZINCpe000000Zzuo.0
REMARK                            x       y       z     vdW  Elec       q    Type
REMARK                         _______ _______ _______ _____ _____    ______ ____
ROOT
ATOM      1  C   LIG    1       -1.573   7.098  -1.126  0.00  0.00    +0.520 C 
ATOM      2  N   LIG    1       -2.318   7.436  -2.197  0.00  0.00    -0.640 N 
ATOM      3  H   LIG    1       -2.302   6.883  -2.993  0.00  0.00    +0.430 HD
ATOM      4  O   LIG    1       -1.517   7.840  -0.167  0.00  0.00    -0.490 OA
ENDROOT
BRANCH   2   5
ATOM      5  C   LIG    1       -3.113   8.584  -2.160  0.00  0.00    +0.140 A 
ATOM      6  C   LIG    1       -3.706   8.979  -0.966  0.00  0.00    +0.030 A 
ATOM      7  C   LIG    1       -4.487  10.114  -0.926  0.00  0.00    +0.040 A 
ATOM      8  C   LIG    1       -4.692  10.859  -2.086  0.00  0.00    -0.050 A 
ATOM      9  C   LIG    1       -4.101  10.458  -3.284  0.00  0.00    +0.040 A 
ATOM     10  C   LIG    1       -3.316   9.325  -3.318  0.00  0.00    +0.000 A 
BRANCH   8  11
ATOM     11  C   LIG    1       -5.538  12.077  -2.047  0.00  0.00    -0.050 A 
ATOM     12  C   LIG    1       -5.739  12.826  -3.205  0.00  0.00    +0.020 A 
ATOM     13  C   LIG    1       -6.531  13.956  -3.163  0.00  0.00    +0.000 A 
ATOM     14  C   LIG    1       -7.115  14.351  -1.973  0.00  0.00    +0.000 A 
ATOM     15  C   LIG    1       -6.915  13.614  -0.820  0.00  0.00    +0.010 A 
ATOM     16  C   LIG    1       -6.129  12.480  -0.851  0.00  0.00    +0.020 A 
ENDBRANCH   8  11
ENDBRANCH   2   5
BRANCH   1  19
ATOM     17  N   LIG    1       -0.069   5.473  -0.050  0.00  0.00    -0.450 N 
ATOM     18  H   LIG    1       -0.025   6.066   0.717  0.00  0.00    +0.440 HD
ATOM     19  C   LIG    1       -0.815   5.811  -1.121  0.00  0.00    +0.510 C 
ATOM     20  O   LIG    1       -0.870   5.070  -2.080  0.00  0.00    -0.480 OA
BRANCH  17  24
ATOM     21  O   LIG    1        1.530   0.931   0.710  0.00  0.00    -0.450 OA
ATOM     22  C   LIG    1        1.401   2.075   0.331  0.00  0.00    +0.540 C 
ATOM     23  C   LIG    1        0.291   3.041   0.694  0.00  0.00    +0.340 C 
ATOM     24  N   LIG    1        0.642   4.266  -0.045  0.00  0.00    -0.430 N 
ATOM     25  C   LIG    1        1.776   3.998  -0.718  0.00  0.00    +0.710 C 
ATOM     26  O   LIG    1        2.340   4.799  -1.437  0.00  0.00    -0.520 OA
ATOM     27  N   LIG    1        2.212   2.751  -0.507  0.00  0.00    -0.670 N 
ATOM     28  H   LIG    1        3.013   2.379  -0.909  0.00  0.00    +0.440 HD
ENDBRANCH  17  24
ENDBRANCH   1  19
TORSDOF 4
