REMARK  Name = ZINCqH0000006ZCZ.0
REMARK                            x       y       z     vdW  Elec       q    Type
REMARK                         _______ _______ _______ _____ _____    ______ ____
ROOT
ATOM      1  C   LIG    1       -3.432  -2.500   0.035  0.00  0.00    +0.120 A 
ATOM      2  C   LIG    1       -2.163  -3.059   0.030  0.00  0.00    -0.050 A 
ATOM      3  C   LIG    1       -1.048  -2.246   0.025  0.00  0.00    +0.060 A 
ATOM      4  C   LIG    1       -1.194  -0.858   0.037  0.00  0.00    -0.050 A 
ATOM      5  C   LIG    1       -2.471  -0.294   0.042  0.00  0.00    +0.120 A 
ATOM      6  C   LIG    1       -3.586  -1.113   0.041  0.00  0.00    +0.120 A 
ENDROOT
BRANCH   4   7
ATOM      7  C   LIG    1        0.000   0.012   0.037  0.00  0.00    +0.330 A 
ATOM      8  N   LIG    1       -0.022   1.323   0.043  0.00  0.00    -0.470 NA
ATOM      9  C   LIG    1        1.247   1.800   0.042  0.00  0.00    +0.050 A 
ATOM     10  C   LIG    1        1.788   3.089   0.046  0.00  0.00    +0.070 A 
ATOM     11  C   LIG    1        3.154   3.257   0.043  0.00  0.00    +0.000 A 
ATOM     12  C   LIG    1        3.999   2.157   0.036  0.00  0.00    +0.030 A 
ATOM     13  C   LIG    1        3.483   0.878   0.033  0.00  0.00    +0.010 A 
ATOM     14  C   LIG    1        2.109   0.689   0.035  0.00  0.00    +0.050 A 
ATOM     15  N   LIG    1        1.296  -0.429   0.033  0.00  0.00    -0.600 N 
ATOM     16  H   LIG    1        1.589  -1.354   0.028  0.00  0.00    +0.420 HD
ENDBRANCH   4   7
BRANCH   6  17
ATOM     17  N   LIG    1       -4.868  -0.551   0.046  0.00  0.00    -0.650 N 
ATOM     18  H   LIG    1       -5.618  -1.056   0.399  0.00  0.00    +0.420 HD
ATOM     19  C   LIG    1       -5.061   0.692  -0.438  0.00  0.00    +0.610 C 
ATOM     20  O   LIG    1       -4.144   1.286  -0.971  0.00  0.00    -0.480 OA
BRANCH  19  21
ATOM     21  C   LIG    1       -6.385   1.332  -0.322  0.00  0.00    -0.090 A 
ATOM     22  C   LIG    1       -6.737   2.579  -0.760  0.00  0.00    +0.050 A 
ATOM     23  C   LIG    1       -8.099   2.691  -0.403  0.00  0.00    +0.010 A 
ATOM     24  N   LIG    1       -8.424   1.574   0.180  0.00  0.00    -0.340 NA
ATOM     25  C   LIG    1       -9.001   3.873  -0.650  0.00  0.00    +0.180 C 
ATOM     26  O   LIG    1       -7.493   0.804   0.233  0.00  0.00    +0.120 OA
ENDBRANCH  19  21
ENDBRANCH   6  17
BRANCH   1  28
ATOM     27  C   LIG    1       -4.296  -4.714   0.027  0.00  0.00    +0.260 C 
ATOM     28  O   LIG    1       -4.527  -3.304   0.034  0.00  0.00    -0.310 OA
ENDBRANCH   1  28
TORSDOF 4
