REMARK  Name = ZINCkj000005mkhT.0
REMARK                            x       y       z     vdW  Elec       q    Type
REMARK                         _______ _______ _______ _____ _____    ______ ____
ROOT
ATOM      1  N   LIG    1       -2.837   1.498  -0.081  0.00  0.00    -0.530 NA
ATOM      2  C   LIG    1       -2.316   0.869  -1.302  0.00  0.00    +0.200 C 
ATOM      3  C   LIG    1       -0.842   1.237  -1.478  0.00  0.00    +0.050 C 
ATOM      4  C   LIG    1       -0.051   0.759  -0.258  0.00  0.00    +0.150 C 
ATOM      5  C   LIG    1       -0.642   1.391   1.005  0.00  0.00    +0.050 C 
ATOM      6  C   LIG    1       -2.124   1.018   1.109  0.00  0.00    +0.210 C 
ENDROOT
BRANCH   4   7
ATOM      7  N   LIG    1        1.355   1.160  -0.395  0.00  0.00    -0.380 N 
ATOM      8  C   LIG    1        1.918   0.558  -1.610  0.00  0.00    +0.250 C 
ATOM      9  C   LIG    1        3.358   1.039  -1.803  0.00  0.00    +0.050 C 
ATOM     10  C   LIG    1        4.195   0.620  -0.591  0.00  0.00    +0.030 C 
ATOM     11  C   LIG    1        3.557   1.191   0.679  0.00  0.00    +0.050 C 
ATOM     12  C   LIG    1        2.110   0.706   0.779  0.00  0.00    +0.250 C 
ATOM     13  H   LIG    1        1.412   2.165  -0.462  0.00  0.00    +0.420 HD
ENDBRANCH   4   7
BRANCH   1  14
ATOM     14  C   LIG    1       -4.284   1.280   0.048  0.00  0.00    +0.160 C 
BRANCH  14  15
ATOM     15  C   LIG    1       -5.027   2.201  -0.923  0.00  0.00    +0.230 C 
BRANCH  15  16
ATOM     16  C   LIG    1       -6.531   1.943  -0.820  0.00  0.00    -0.070 C 
ATOM     17  C   LIG    1       -7.306   2.861  -1.791  0.00  0.00    +0.020 C 
ATOM     18  C   LIG    1       -8.021   1.880  -2.746  0.00  0.00    +0.200 C 
ATOM     19  O   LIG    1       -8.129   0.649  -1.998  0.00  0.00    -0.370 OA
ATOM     20  C   LIG    1       -6.870   0.515  -1.303  0.00  0.00    +0.200 C 
ENDBRANCH  15  16
BRANCH  15  21
ATOM     21  O   LIG    1       -4.753   3.563  -0.590  0.00  0.00    -0.540 OA
ATOM     22  H   LIG    1       -5.025   3.812   0.304  0.00  0.00    +0.380 HD
ENDBRANCH  15  21
ENDBRANCH  14  15
ENDBRANCH   1  14
TORSDOF 5
