REMARK  Name = ZINCrH00000No4SP.0
REMARK                            x       y       z     vdW  Elec       q    Type
REMARK                         _______ _______ _______ _____ _____    ______ ____
ROOT
ATOM      1  C   LIG    1       -0.016   1.328   0.009  0.00  0.00    +0.390 A 
ATOM      2  C   LIG    1        1.191   2.019   0.002  0.00  0.00    -0.190 A 
ATOM      3  C   LIG    1        2.372   1.284  -0.014  0.00  0.00    +0.450 A 
ATOM      4  N   LIG    1        2.305  -0.046  -0.020  0.00  0.00    -0.580 NA
ATOM      5  C   LIG    1        1.142  -0.665  -0.012  0.00  0.00    +0.410 A 
ATOM      6  N   LIG    1        0.002  -0.004   0.002  0.00  0.00    -0.540 NA
ENDROOT
BRANCH   1  10
ATOM      7  C   LIG    1       -2.396   3.940   0.775  0.00  0.00    +0.030 C 
ATOM      8  C   LIG    1       -2.119   4.142  -0.732  0.00  0.00    +0.030 C 
ATOM      9  C   LIG    1       -1.343   2.886  -1.170  0.00  0.00    +0.180 C 
ATOM     10  N   LIG    1       -1.220   2.015   0.019  0.00  0.00    -0.480 N 
ATOM     11  C   LIG    1       -1.308   2.919   1.194  0.00  0.00    +0.200 C 
BRANCH   7  13
ATOM     12  C   LIG    1       -3.229   5.727   2.214  0.00  0.00    +0.020 C 
ATOM     13  C   LIG    1       -2.229   5.235   1.527  0.00  0.00    -0.040 C 
ENDBRANCH   7  13
ENDBRANCH   1  10
BRANCH   5  14
ATOM     14  C   LIG    1        1.114  -2.171  -0.021  0.00  0.00    +0.030 C 
ATOM     15  C   LIG    1        2.444  -2.904   0.169  0.00  0.00    +0.060 C 
ATOM     16  C   LIG    1        1.770  -2.884  -1.205  0.00  0.00    +0.050 C 
ENDBRANCH   5  14
BRANCH   3  17
ATOM     17  N   LIG    1        3.601   1.926  -0.022  0.00  0.00    -0.710 N 
ATOM     18  H   LIG    1        4.420   1.406  -0.033  0.00  0.00    +0.410 HD
BRANCH  17  19
ATOM     19  C   LIG    1        3.663   3.389  -0.015  0.00  0.00    +0.350 C 
BRANCH  19  20
ATOM     20  C   LIG    1        5.103   3.832  -0.027  0.00  0.00    +0.140 A 
ATOM     21  C   LIG    1        5.712   4.138  -1.228  0.00  0.00    -0.050 A 
ATOM     22  C   LIG    1        7.039   4.545  -1.231  0.00  0.00    +0.110 A 
ATOM     23  C   LIG    1        7.707   4.628  -0.022  0.00  0.00    -0.030 A 
ATOM     24  C   LIG    1        7.032   4.305   1.147  0.00  0.00    +0.330 A 
ATOM     25  N   LIG    1        5.765   3.926   1.111  0.00  0.00    -0.530 NA
BRANCH  24  26
ATOM     26  O   LIG    1        7.675   4.383   2.339  0.00  0.00    -0.300 OA
BRANCH  26  27
ATOM     27  C   LIG    1        6.926   4.037   3.505  0.00  0.00    +0.210 C 
ATOM     28  C   LIG    1        7.812   4.185   4.744  0.00  0.00    +0.070 C 
ENDBRANCH  26  27
ENDBRANCH  24  26
ENDBRANCH  19  20
ENDBRANCH  17  19
ENDBRANCH   3  17
TORSDOF 8
