REMARK  Name = ZINCpk000000o5Sy.0
REMARK                            x       y       z     vdW  Elec       q    Type
REMARK                         _______ _______ _______ _____ _____    ______ ____
ROOT
ATOM      1  C   LIG    1        1.060   5.587 -10.022  0.00  0.00    +0.030 C 
ATOM      2  C   LIG    1       -0.188   4.799  -9.621  0.00  0.00    -0.020 C 
ATOM      3  C   LIG    1       -0.631   5.224  -8.220  0.00  0.00    +0.040 C 
ATOM      4  C   LIG    1       -1.886   4.443  -7.824  0.00  0.00    +0.060 C 
ATOM      5  C   LIG    1       -1.585   2.948  -7.849  0.00  0.00    +0.140 C 
ATOM      6  N   LIG    1       -2.765   2.178  -7.434  0.00  0.00    -0.710 N 
ATOM      7  H   LIG    1       -3.629   2.157  -7.874  0.00  0.00    +0.440 HD
ATOM      8  C   LIG    1       -2.407   1.501  -6.326  0.00  0.00    +0.710 C 
ATOM      9  N   LIG    1       -1.142   1.745  -5.965  0.00  0.00    -0.380 N 
ATOM     10  O   LIG    1       -3.151   0.755  -5.721  0.00  0.00    -0.530 OA
ATOM     11  C   LIG    1       -1.122   2.514  -9.235  0.00  0.00    +0.060 C 
ATOM     12  C   LIG    1       -0.540   2.604  -6.813  0.00  0.00    +0.530 C 
ATOM     13  O   LIG    1        0.600   3.014  -6.756  0.00  0.00    -0.440 OA
ATOM     14  C   LIG    1        0.130   3.302  -9.626  0.00  0.00    +0.040 C 
ENDROOT
BRANCH   9  15
ATOM     15  N   LIG    1       -0.518   1.175  -4.847  0.00  0.00    -0.510 N 
ATOM     16  H   LIG    1        0.128   0.461  -4.964  0.00  0.00    +0.430 HD
ATOM     17  C   LIG    1       -0.816   1.618  -3.610  0.00  0.00    +0.520 C 
ATOM     18  O   LIG    1       -1.624   2.511  -3.463  0.00  0.00    -0.490 OA
BRANCH  17  19
ATOM     19  C   LIG    1       -0.145   1.005  -2.408  0.00  0.00    +0.240 C 
BRANCH  19  20
ATOM     20  N   LIG    1       -0.743   1.550  -1.182  0.00  0.00    -0.520 NA
ATOM     21  C   LIG    1       -2.143   1.126  -1.046  0.00  0.00    +0.180 C 
ATOM     22  C   LIG    1       -2.774   1.827   0.159  0.00  0.00    -0.010 C 
ATOM     23  C   LIG    1       -1.988   1.467   1.423  0.00  0.00    +0.020 C 
ATOM     24  C   LIG    1       -0.524   1.875   1.236  0.00  0.00    -0.020 C 
ATOM     25  C   LIG    1       -0.435   3.390   1.048  0.00  0.00    +0.030 C 
ATOM     26  C   LIG    1       -4.226   1.370   0.314  0.00  0.00    +0.020 C 
ATOM     27  C   LIG    1        0.043   1.172  -0.000  0.00  0.00    +0.180 C 
ENDBRANCH  19  20
ENDBRANCH  17  19
ENDBRANCH   9  15
TORSDOF 3
