REMARK  Name = ZINCqH0000008w5d.0
REMARK                            x       y       z     vdW  Elec       q    Type
REMARK                         _______ _______ _______ _____ _____    ______ ____
ROOT
ATOM      1  C   LIG    1        2.423  -0.243   0.079  0.00  0.00    +0.540 C 
ATOM      2  N   LIG    1        2.403   1.101  -0.015  0.00  0.00    -0.660 N 
ATOM      3  H   LIG    1        3.234   1.595  -0.088  0.00  0.00    +0.420 HD
ATOM      4  O   LIG    1        1.383  -0.867   0.085  0.00  0.00    -0.500 OA
ENDROOT
BRANCH   2   5
ATOM      5  C   LIG    1        1.180   1.785  -0.008  0.00  0.00    +0.170 A 
ATOM      6  C   LIG    1        1.084   3.028   0.603  0.00  0.00    +0.030 A 
ATOM      7  C   LIG    1       -0.123   3.701   0.616  0.00  0.00    +0.090 A 
ATOM      8  C   LIG    1       -1.237   3.143   0.012  0.00  0.00    +0.010 A 
ATOM      9  O   LIG    1       -2.519   3.596  -0.115  0.00  0.00    -0.280 OA
ATOM     10  C   LIG    1       -3.305   2.437  -0.451  0.00  0.00    +0.570 C 
ATOM     11  O   LIG    1       -2.367   1.568  -1.112  0.00  0.00    -0.280 OA
ATOM     12  F   LIG    1       -4.350   2.785  -1.314  0.00  0.00    -0.110 F 
ATOM     13  F   LIG    1       -3.807   1.831   0.706  0.00  0.00    -0.150 F 
ATOM     14  C   LIG    1       -1.144   1.895  -0.602  0.00  0.00    +0.050 A 
ATOM     15  C   LIG    1        0.064   1.219  -0.610  0.00  0.00    +0.070 A 
ENDBRANCH   2   5
BRANCH   1  17
ATOM     16  C   LIG    1        4.195  -1.010   1.635  0.00  0.00    +0.090 C 
ATOM     17  C   LIG    1        3.739  -0.972   0.175  0.00  0.00    +0.030 C 
BRANCH  17  18
ATOM     18  S   LIG    1        3.538  -2.667  -0.439  0.00  0.00    +0.050 S 
BRANCH  18  19
ATOM     19  C   LIG    1        5.181  -3.303  -0.390  0.00  0.00    +0.140 A 
ATOM     20  N   LIG    1        6.244  -2.641   0.010  0.00  0.00    -0.450 NA
ATOM     21  C   LIG    1        7.327  -3.421  -0.081  0.00  0.00    +0.180 A 
ATOM     22  C   LIG    1        6.923  -4.644  -0.567  0.00  0.00    +0.010 A 
ATOM     23  C   LIG    1        7.599  -5.845  -0.869  0.00  0.00    +0.080 A 
ATOM     24  C   LIG    1        6.890  -6.905  -1.333  0.00  0.00    +0.020 A 
ATOM     25  C   LIG    1        5.496  -6.793  -1.519  0.00  0.00    +0.020 A 
ATOM     26  C   LIG    1        4.856  -5.644  -1.234  0.00  0.00    +0.220 A 
ATOM     27  N   LIG    1        5.551  -4.559  -0.755  0.00  0.00    -0.350 N 
ENDBRANCH  18  19
ENDBRANCH  17  18
ENDBRANCH   1  17
TORSDOF 4
