REMARK  Name = ZINCrH000004lZfD.0
REMARK                            x       y       z     vdW  Elec       q    Type
REMARK                         _______ _______ _______ _____ _____    ______ ____
ROOT
ATOM      1  C   LIG    1       -3.612   2.342   0.133  0.00  0.00    +0.570 C 
ATOM      2  N   LIG    1       -2.437   1.690   0.022  0.00  0.00    -0.660 N 
ATOM      3  H   LIG    1       -2.425   0.724  -0.065  0.00  0.00    +0.410 HD
ATOM      4  O   LIG    1       -3.634   3.558   0.141  0.00  0.00    -0.500 OA
ENDROOT
BRANCH   2   5
ATOM      5  C   LIG    1       -1.234   2.408   0.032  0.00  0.00    +0.170 A 
ATOM      6  C   LIG    1       -1.173   3.651   0.648  0.00  0.00    +0.050 A 
ATOM      7  C   LIG    1        0.017   4.358   0.649  0.00  0.00    +0.100 A 
ATOM      8  C   LIG    1        1.145   3.824   0.043  0.00  0.00    +0.060 A 
ATOM      9  O   LIG    1        2.313   4.531   0.051  0.00  0.00    -0.310 OA
ATOM     10  C   LIG    1        2.327   5.725  -0.734  0.00  0.00    +0.230 C 
ATOM     11  C   LIG    1        1.746   6.892   0.049  0.00  0.00    -0.010 C 
ATOM     12  C   LIG    1        0.273   6.696   0.370  0.00  0.00    +0.230 C 
ATOM     13  C   LIG    1        1.086   2.582  -0.567  0.00  0.00    +0.070 A 
ATOM     14  O   LIG    1        0.089   5.583   1.247  0.00  0.00    -0.310 OA
ATOM     15  C   LIG    1       -0.102   1.873  -0.569  0.00  0.00    -0.060 A 
ATOM     16 CL   LIG    1       -0.179   0.315  -1.332  0.00  0.00    -0.050 Cl
ENDBRANCH   2   5
BRANCH   1  19
ATOM     17  C   LIG    1       -7.267   1.538   0.465  0.00  0.00    +0.140 A 
ATOM     18  C   LIG    1       -6.089   2.254   0.360  0.00  0.00    -0.020 A 
ATOM     19  C   LIG    1       -4.871   1.580   0.245  0.00  0.00    -0.070 A 
ATOM     20  C   LIG    1       -4.847   0.183   0.231  0.00  0.00    -0.060 A 
ATOM     21  C   LIG    1       -6.027  -0.528   0.342  0.00  0.00    +0.150 A 
ATOM     22  C   LIG    1       -7.240   0.146   0.456  0.00  0.00    +0.060 A 
BRANCH  17  24
ATOM     23  C   LIG    1       -8.407   3.623   0.579  0.00  0.00    +0.250 C 
ATOM     24  O   LIG    1       -8.453   2.194   0.577  0.00  0.00    -0.300 OA
ENDBRANCH  17  24
BRANCH  21  25
ATOM     25  O   LIG    1       -6.004  -1.888   0.333  0.00  0.00    -0.300 OA
ATOM     26  C   LIG    1       -4.726  -2.514   0.213  0.00  0.00    +0.250 C 
ENDBRANCH  21  25
BRANCH  22  27
ATOM     27  O   LIG    1       -8.399  -0.555   0.558  0.00  0.00    -0.310 OA
ATOM     28  C   LIG    1       -9.068  -0.884  -0.660  0.00  0.00    +0.240 C 
ENDBRANCH  22  27
ENDBRANCH   1  19
TORSDOF 5
