REMARK  Name = ZINCrD00000F5LxP.0
REMARK                            x       y       z     vdW  Elec       q    Type
REMARK                         _______ _______ _______ _____ _____    ______ ____
ROOT
ATOM      1  O   LIG    1        2.167  -0.374   0.585  0.00  0.00    -0.490 OA
ATOM      2  C   LIG    1        2.385   0.791   0.351  0.00  0.00    +0.460 C 
ENDROOT
BRANCH   2   3
ATOM      3  O   LIG    1        3.640   1.263   0.405  0.00  0.00    -0.350 OA
BRANCH   3   4
ATOM      4  C   LIG    1        4.686   0.316   0.751  0.00  0.00    +0.290 C 
BRANCH   4   5
ATOM      5  C   LIG    1        6.018   1.021   0.762  0.00  0.00    -0.050 A 
ATOM      6  C   LIG    1        6.089   2.369   0.469  0.00  0.00    +0.050 A 
ATOM      7  C   LIG    1        7.311   3.016   0.479  0.00  0.00    +0.060 A 
ATOM      8  C   LIG    1        8.462   2.313   0.784  0.00  0.00    +0.020 A 
ATOM      9  C   LIG    1        8.391   0.965   1.078  0.00  0.00    +0.070 A 
ATOM     10  C   LIG    1        7.168   0.319   1.072  0.00  0.00    -0.180 A 
BRANCH  10  11
ATOM     11  C   LIG    1        7.090  -1.150   1.398  0.00  0.00    +0.510 C 
ATOM     12  F   LIG    1        6.556  -1.842   0.306  0.00  0.00    -0.170 F 
ATOM     13  F   LIG    1        6.269  -1.337   2.515  0.00  0.00    -0.170 F 
ATOM     14  F   LIG    1        8.373  -1.635   1.675  0.00  0.00    -0.170 F 
ENDBRANCH  10  11
ENDBRANCH   4   5
ENDBRANCH   3   4
ENDBRANCH   2   3
BRANCH   2  15
ATOM     15  C   LIG    1        1.248   1.716  -0.001  0.00  0.00    +0.370 C 
BRANCH  15  16
ATOM     16  N   LIG    1       -0.011   0.966   0.007  0.00  0.00    -1.110 NA
ATOM     17  H   LIG    1        0.002  -0.004   0.002  0.00  0.00    +0.430 HD
BRANCH  16  18
ATOM     18  S   LIG    1       -1.456   1.774   0.019  0.00  0.00    +2.690 S 
ATOM     19  O   LIG    1       -1.361   2.752   1.045  0.00  0.00    -0.950 OA
ATOM     20  O   LIG    1       -2.472   0.781  -0.017  0.00  0.00    -0.950 OA
BRANCH  18  21
ATOM     21  C   LIG    1       -1.571   2.658  -1.501  0.00  0.00    -0.600 C 
ATOM     22  C   LIG    1       -2.511   2.342  -2.382  0.00  0.00    +0.220 C 
BRANCH  22  23
ATOM     23  C   LIG    1       -2.607   3.084  -3.657  0.00  0.00    -0.100 A 
ATOM     24  C   LIG    1       -1.715   4.120  -3.935  0.00  0.00    +0.040 A 
ATOM     25  C   LIG    1       -1.806   4.803  -5.130  0.00  0.00    +0.000 A 
ATOM     26  C   LIG    1       -2.788   4.472  -6.046  0.00  0.00    +0.030 A 
ATOM     27  C   LIG    1       -3.680   3.450  -5.775  0.00  0.00    +0.000 A 
ATOM     28  C   LIG    1       -3.595   2.754  -4.586  0.00  0.00    +0.040 A 
ENDBRANCH  22  23
ENDBRANCH  18  21
ENDBRANCH  16  18
ENDBRANCH  15  16
ENDBRANCH   2  15
TORSDOF 9
