REMARK  Name = ZINCnE00000rhnIT.0
REMARK                            x       y       z     vdW  Elec       q    Type
REMARK                         _______ _______ _______ _____ _____    ______ ____
ROOT
ATOM      1  N   LIG    1        4.885  -4.264  -0.064  0.00  0.00    -0.700 N 
ATOM      2  H   LIG    1        4.037  -4.735  -0.059  0.00  0.00    +0.380 HD
ATOM      3  C   LIG    1        4.907  -2.916  -0.057  0.00  0.00    +0.550 C 
ATOM      4  O   LIG    1        5.970  -2.324  -0.064  0.00  0.00    -0.520 OA
ENDROOT
BRANCH   1   5
ATOM      5  C   LIG    1        6.142  -5.016  -0.079  0.00  0.00    +0.100 C 
ATOM      6  C   LIG    1        6.961  -4.666   1.165  0.00  0.00    +0.030 C 
BRANCH   5   8
ATOM      7  C   LIG    1        5.127  -6.888  -1.387  0.00  0.00    +0.010 C 
ATOM      8  C   LIG    1        5.838  -6.516  -0.084  0.00  0.00    -0.030 C 
ATOM      9  C   LIG    1        7.146  -7.301   0.026  0.00  0.00    +0.040 C 
ENDBRANCH   5   8
BRANCH   5  10
ATOM     10  C   LIG    1        6.926  -4.659  -1.315  0.00  0.00    +0.510 C 
ATOM     11  O   LIG    1        8.010  -5.178  -1.520  0.00  0.00    -0.690 OA
ATOM     12  O   LIG    1        6.478  -3.850  -2.109  0.00  0.00    -0.680 OA
ENDBRANCH   5  10
ENDBRANCH   1   5
BRANCH   3  13
ATOM     13  C   LIG    1        3.652  -2.164  -0.042  0.00  0.00    -0.050 C 
ATOM     14  C   LIG    1        3.674  -0.813  -0.036  0.00  0.00    +0.080 C 
BRANCH  14  15
ATOM     15  C   LIG    1        2.415  -0.059  -0.021  0.00  0.00    -0.040 A 
ATOM     16  C   LIG    1        1.190  -0.721  -0.013  0.00  0.00    +0.020 A 
ATOM     17  C   LIG    1        0.002  -0.004   0.002  0.00  0.00    +0.010 A 
ATOM     18  C   LIG    1       -0.016   1.357   0.009  0.00  0.00    +0.010 A 
ATOM     19  C   LIG    1        1.182   2.091   0.002  0.00  0.00    -0.050 A 
ATOM     20  C   LIG    1        1.178   3.497   0.009  0.00  0.00    +0.020 A 
ATOM     21  C   LIG    1        2.360   4.173   0.002  0.00  0.00    +0.000 A 
ATOM     22  C   LIG    1        3.575   3.494  -0.013  0.00  0.00    +0.000 A 
ATOM     23  C   LIG    1        3.615   2.131  -0.021  0.00  0.00    +0.030 A 
ATOM     24  C   LIG    1        2.420   1.404  -0.013  0.00  0.00    -0.040 A 
ENDBRANCH  14  15
ENDBRANCH   3  13
TORSDOF 5
