REMARK  Name = ZINCrD000000C1Yl.0
REMARK                            x       y       z     vdW  Elec       q    Type
REMARK                         _______ _______ _______ _____ _____    ______ ____
ROOT
ATOM      1  O   LIG    1       -2.409   1.160  -0.001  0.00  0.00    -0.310 OA
ENDROOT
BRANCH   1   5
ATOM      2  C   LIG    1       -6.242   2.693   0.042  0.00  0.00    +0.110 A 
ATOM      3  C   LIG    1       -6.040   1.332  -0.146  0.00  0.00    +0.060 A 
ATOM      4  C   LIG    1       -4.758   0.820  -0.160  0.00  0.00    +0.010 A 
ATOM      5  C   LIG    1       -3.671   1.665   0.013  0.00  0.00    +0.120 A 
ATOM      6  C   LIG    1       -3.873   3.024   0.206  0.00  0.00    -0.060 A 
ATOM      7  C   LIG    1       -5.154   3.538   0.214  0.00  0.00    +0.030 A 
BRANCH   2  10
ATOM      8  O   LIG    1       -8.331   1.405   1.071  0.00  0.00    -0.520 OA
ATOM      9  C   LIG    1       -8.557   2.477   0.552  0.00  0.00    +0.540 C 
ATOM     10  N   LIG    1       -7.543   3.213   0.057  0.00  0.00    -0.670 N 
ATOM     11  H   LIG    1       -7.713   4.104  -0.289  0.00  0.00    +0.410 HD
BRANCH   9  12
ATOM     12  C   LIG    1       -9.973   2.986   0.460  0.00  0.00    -0.070 C 
ATOM     13  C   LIG    1      -10.664   3.389   1.764  0.00  0.00    +0.060 C 
ATOM     14  C   LIG    1      -11.080   2.105   1.042  0.00  0.00    +0.080 C 
ENDBRANCH   9  12
ENDBRANCH   2  10
ENDBRANCH   1   5
BRANCH   1  15
ATOM     15  C   LIG    1       -1.337   2.087   0.183  0.00  0.00    +0.290 C 
BRANCH  15  16
ATOM     16  C   LIG    1       -0.023   1.351   0.138  0.00  0.00    -0.120 A 
ATOM     17  C   LIG    1       -0.004  -0.015  -0.058  0.00  0.00    +0.170 A 
ATOM     18  C   LIG    1        1.202  -0.691  -0.105  0.00  0.00    -0.070 A 
ATOM     19  C   LIG    1        2.390   0.000   0.047  0.00  0.00    +0.150 A 
ATOM     20  C   LIG    1        2.375   1.369   0.244  0.00  0.00    -0.200 A 
ATOM     21  C   LIG    1        3.677   2.112   0.413  0.00  0.00    +0.320 C 
ATOM     22  O   LIG    1        3.449   3.512   0.228  0.00  0.00    -0.380 OA
ATOM     23  C   LIG    1        2.332   4.003   0.980  0.00  0.00    +0.440 C 
ATOM     24  O   LIG    1        1.140   3.395   0.475  0.00  0.00    -0.320 OA
ATOM     25  C   LIG    1        1.168   2.048   0.289  0.00  0.00    +0.200 A 
BRANCH  18  26
ATOM     26  N   LIG    1        1.222  -2.155  -0.317  0.00  0.00    +0.030 N 
ATOM     27  O   LIG    1        2.283  -2.751  -0.358  0.00  0.00    -0.160 OA
ATOM     28  O   LIG    1        0.176  -2.765  -0.450  0.00  0.00    -0.150 OA
ENDBRANCH  18  26
ENDBRANCH  15  16
ENDBRANCH   1  15
TORSDOF 6
