REMARK  Name = ZINCCC0000000b3d.0
REMARK                            x       y       z     vdW  Elec       q    Type
REMARK                         _______ _______ _______ _____ _____    ______ ____
ROOT
ATOM      1  S   LIG    1        2.713   6.338   1.541  0.00  0.00    +2.690 S 
ATOM      2  O   LIG    1        2.068   5.498   2.488  0.00  0.00    -0.960 OA
ATOM      3  O   LIG    1        2.216   7.617   1.171  0.00  0.00    -0.940 OA
ENDROOT
BRANCH   1   9
ATOM      4  C   LIG    1        8.752   6.383   4.329  0.00  0.00    +0.370 A 
ATOM      5  N   LIG    1        8.180   7.236   3.504  0.00  0.00    -0.520 NA
ATOM      6  C   LIG    1        6.935   7.036   3.054  0.00  0.00    +0.200 A 
ATOM      7  C   LIG    1        6.329   7.949   2.175  0.00  0.00    +0.040 A 
ATOM      8  C   LIG    1        5.062   7.722   1.732  0.00  0.00    +0.130 A 
ATOM      9  C   LIG    1        4.351   6.595   2.137  0.00  0.00    -0.690 A 
ATOM     10  C   LIG    1        4.904   5.691   2.993  0.00  0.00    +0.180 A 
ATOM     11  C   LIG    1        6.211   5.891   3.465  0.00  0.00    -0.150 A 
ATOM     12  C   LIG    1        6.819   4.974   4.347  0.00  0.00    +0.130 A 
ATOM     13  C   LIG    1        8.087   5.231   4.771  0.00  0.00    -0.030 A 
BRANCH   4  17
ATOM     14  C   LIG    1       12.532   9.422   4.132  0.00  0.00    +0.060 C 
ATOM     15  C   LIG    1       12.009   8.085   4.661  0.00  0.00    +0.150 C 
ATOM     16  C   LIG    1       10.565   7.881   4.197  0.00  0.00    +0.210 C 
ATOM     17  N   LIG    1       10.043   6.631   4.770  0.00  0.00    -0.470 N 
ATOM     18  C   LIG    1       10.101   6.668   6.238  0.00  0.00    +0.190 C 
ATOM     19  C   LIG    1       11.550   6.884   6.682  0.00  0.00    +0.210 C 
ATOM     20  C   LIG    1       12.406   5.699   6.231  0.00  0.00    +0.030 C 
ATOM     21  O   LIG    1       12.050   8.087   6.090  0.00  0.00    -0.370 OA
ENDBRANCH   4  17
ENDBRANCH   1   9
BRANCH   1  22
ATOM     22  N   LIG    1        2.832   5.461   0.142  0.00  0.00    -1.000 NA
ATOM     23  C   LIG    1        2.960   6.148  -1.146  0.00  0.00    +0.320 C 
BRANCH  22  24
ATOM     24  C   LIG    1        2.810   3.997   0.191  0.00  0.00    +0.300 C 
BRANCH  24  25
ATOM     25  C   LIG    1        1.383   3.500  -0.050  0.00  0.00    +0.190 C 
BRANCH  25  26
ATOM     26  N   LIG    1        1.361   2.032   0.000  0.00  0.00    -0.530 NA
ATOM     27  C   LIG    1       -0.019   1.526   0.010  0.00  0.00    +0.220 C 
ATOM     28  C   LIG    1        0.002  -0.004   0.002  0.00  0.00    +0.280 C 
ATOM     29  N   LIG    1        0.729  -0.490   1.182  0.00  0.00    -0.390 N 
ATOM     30  C   LIG    1        2.112   0.003   1.145  0.00  0.00    +0.270 C 
ATOM     31  H   LIG    1        0.275  -0.155   2.018  0.00  0.00    +0.420 HD
ATOM     32  C   LIG    1        2.109   1.533   1.163  0.00  0.00    +0.210 C 
BRANCH  29  33
ATOM     33  C   LIG    1        0.733  -1.960   1.183  0.00  0.00    +0.330 C 
BRANCH  33  34
ATOM     34  C   LIG    1        1.371  -2.459   2.454  0.00  0.00    -0.160 A 
ATOM     35  C   LIG    1        2.733  -2.691   2.499  0.00  0.00    +0.030 A 
ATOM     36  C   LIG    1        3.318  -3.145   3.666  0.00  0.00    +0.030 A 
ATOM     37  C   LIG    1        2.540  -3.377   4.785  0.00  0.00    +0.060 A 
ATOM     38  C   LIG    1        1.177  -3.150   4.738  0.00  0.00    +0.030 A 
ATOM     39  C   LIG    1        0.593  -2.691   3.573  0.00  0.00    +0.040 A 
ENDBRANCH  33  34
ENDBRANCH  29  33
ENDBRANCH  25  26
ENDBRANCH  24  25
ENDBRANCH  22  24
ENDBRANCH   1  22
TORSDOF 8
