REMARK  Name = ZINCrH000004qR1u.0
REMARK                            x       y       z     vdW  Elec       q    Type
REMARK                         _______ _______ _______ _____ _____    ______ ____
ROOT
ATOM      1  C   LIG    1       -7.263   1.175   0.481  0.00  0.00    +0.150 C 
ATOM      2  C   LIG    1       -5.921   1.849   0.358  0.00  0.00    +0.230 A 
ATOM      3  C   LIG    1       -4.768   1.095   0.245  0.00  0.00    -0.120 A 
ATOM      4  C   LIG    1       -3.547   1.760   0.133  0.00  0.00    +0.390 A 
ATOM      5  N   LIG    1       -3.531   3.087   0.144  0.00  0.00    -0.600 NA
ATOM      6  C   LIG    1       -4.659   3.775   0.250  0.00  0.00    +0.530 A 
ATOM      7  N   LIG    1       -5.833   3.171   0.357  0.00  0.00    -0.550 NA
ENDROOT
BRANCH   6   8
ATOM      8  N   LIG    1       -4.608   5.158   0.253  0.00  0.00    -0.460 N 
ATOM      9  C   LIG    1       -5.463   5.718  -0.801  0.00  0.00    +0.210 C 
ATOM     10  C   LIG    1       -5.497   7.243  -0.675  0.00  0.00    +0.030 C 
ATOM     11  C   LIG    1       -4.073   7.792  -0.801  0.00  0.00    +0.150 C 
ATOM     12  C   LIG    1       -3.192   7.156   0.278  0.00  0.00    +0.040 C 
ATOM     13  C   LIG    1       -3.225   5.634   0.125  0.00  0.00    +0.220 C 
BRANCH  11  14
ATOM     14  O   LIG    1       -4.091   9.211  -0.627  0.00  0.00    -0.370 OA
BRANCH  14  15
ATOM     15  C   LIG    1       -4.264   9.943  -1.842  0.00  0.00    +0.180 C 
BRANCH  15  16
ATOM     16  C   LIG    1       -4.269  11.442  -1.538  0.00  0.00    +0.160 C 
ATOM     17  C   LIG    1       -4.364  12.257  -2.852  0.00  0.00    +0.020 C 
ATOM     18  C   LIG    1       -4.992  13.581  -2.332  0.00  0.00    +0.000 C 
ATOM     19  C   LIG    1       -5.915  13.084  -1.199  0.00  0.00    +0.190 C 
ATOM     20  O   LIG    1       -5.442  11.796  -0.789  0.00  0.00    -0.370 OA
ENDBRANCH  15  16
ENDBRANCH  14  15
ENDBRANCH  11  14
ENDBRANCH   6   8
BRANCH   4  21
ATOM     21  O   LIG    1       -2.392   1.060   0.019  0.00  0.00    -0.240 OA
BRANCH  21  22
ATOM     22  C   LIG    1       -1.222   1.752   0.035  0.00  0.00    +0.090 A 
ATOM     23  C   LIG    1       -0.465   1.863  -1.123  0.00  0.00    +0.020 A 
ATOM     24  C   LIG    1        0.720   2.572  -1.106  0.00  0.00    +0.020 A 
ATOM     25  C   LIG    1        1.155   3.166   0.064  0.00  0.00    +0.020 A 
ATOM     26  C   LIG    1        0.405   3.053   1.220  0.00  0.00    +0.030 A 
ATOM     27  C   LIG    1       -0.781   2.345   1.209  0.00  0.00    +0.010 A 
ENDBRANCH  21  22
ENDBRANCH   4  21
TORSDOF 6
