REMARK  Name = ZINCnE000007KiHG.1
REMARK                            x       y       z     vdW  Elec       q    Type
REMARK                         _______ _______ _______ _____ _____    ______ ____
ROOT
ATOM      1  C   LIG    1       -1.049  -3.570  -0.005  0.00  0.00    +0.350 C 
ATOM      2  C   LIG    1       -0.953  -4.185  -1.402  0.00  0.00    +0.030 C 
ENDROOT
BRANCH   1   5
ATOM      3  C   LIG    1       -2.526  -0.835   0.024  0.00  0.00    +0.130 C 
ATOM      4  C   LIG    1       -1.034  -1.044   0.007  0.00  0.00    -0.180 A 
ATOM      5  C   LIG    1       -0.385  -2.217  -0.005  0.00  0.00    +0.050 A 
ATOM      6  O   LIG    1        0.943  -2.012  -0.017  0.00  0.00    -0.180 OA
ATOM      7  C   LIG    1        1.226  -0.693  -0.013  0.00  0.00    +0.050 A 
ATOM      8  C   LIG    1        2.413   0.028  -0.021  0.00  0.00    +0.020 A 
ATOM      9  C   LIG    1        2.381   1.407  -0.015  0.00  0.00    +0.030 A 
ATOM     10  C   LIG    1        1.172   2.086   0.002  0.00  0.00    -0.010 A 
ATOM     11  C   LIG    1       -0.017   1.390   0.010  0.00  0.00    +0.050 A 
ATOM     12  C   LIG    1        0.002  -0.004   0.002  0.00  0.00    -0.120 A 
ENDBRANCH   1   5
BRANCH   1  13
ATOM     13  N   LIG    1       -0.378  -4.443   0.961  0.00  0.00    -0.740 N 
ATOM     14  H   LIG    1        0.546  -4.277   1.204  0.00  0.00    +0.390 HD
ATOM     15  C   LIG    1       -1.044  -5.477   1.512  0.00  0.00    +0.650 C 
ATOM     16  O   LIG    1       -2.205  -5.685   1.206  0.00  0.00    -0.650 OA
BRANCH  15  17
ATOM     17  N   LIG    1       -0.431  -6.274   2.393  0.00  0.00    -0.720 NA
ATOM     18  C   LIG    1       -1.089  -7.295   2.937  0.00  0.00    +0.360 A 
ATOM     19  C   LIG    1       -0.576  -8.216   3.869  0.00  0.00    -0.150 A 
ATOM     20  C   LIG    1       -1.559  -9.098   4.179  0.00  0.00    +0.220 A 
ATOM     21  N   LIG    1       -2.680  -8.777   3.469  0.00  0.00    -0.420 N 
ATOM     22  C   LIG    1       -3.959  -9.489   3.514  0.00  0.00    +0.330 C 
ATOM     23  F   LIG    1       -1.445 -10.130   5.045  0.00  0.00    -0.130 F 
ATOM     24  N   LIG    1       -2.395  -7.649   2.688  0.00  0.00    -0.360 NA
ENDBRANCH  15  17
ENDBRANCH   1  13
TORSDOF 3
