REMARK  Name = ZINCpk000000p9pe.0
REMARK                            x       y       z     vdW  Elec       q    Type
REMARK                         _______ _______ _______ _____ _____    ______ ____
ROOT
ATOM      1  C   LIG    1       -1.187   1.624   0.017  0.00  0.00    +0.490 C 
ATOM      2  N   LIG    1       -0.011   0.966   0.007  0.00  0.00    -0.620 N 
ATOM      3  H   LIG    1        0.002  -0.004   0.002  0.00  0.00    +0.430 HD
ATOM      4  O   LIG    1       -1.204   2.837   0.023  0.00  0.00    -0.480 OA
ENDROOT
BRANCH   2   5
ATOM      5  C   LIG    1        1.183   1.677  -0.000  0.00  0.00    +0.240 A 
ATOM      6  N   LIG    1        2.365   1.144  -0.014  0.00  0.00    -0.480 NA
ATOM      7  C   LIG    1        3.393   1.971  -0.020  0.00  0.00    +0.110 A 
ATOM      8  C   LIG    1        3.065   3.265  -0.010  0.00  0.00    -0.130 A 
ATOM      9  S   LIG    1        1.307   3.382   0.000  0.00  0.00    +0.250 S 
BRANCH   7  10
ATOM     10  C   LIG    1        4.822   1.494  -0.036  0.00  0.00    +0.150 C 
BRANCH  10  11
ATOM     11  C   LIG    1        5.052   0.555   1.120  0.00  0.00    +0.520 C 
ATOM     12  O   LIG    1        4.144   0.300   1.883  0.00  0.00    -0.520 OA
ATOM     13  N   LIG    1        6.266   0.001   1.307  0.00  0.00    -0.860 N 
ATOM     14  H   LIG    1        6.414  -0.603   2.052  0.00  0.00    +0.400 HD
ATOM     15  H   LIG    1        6.992   0.205   0.697  0.00  0.00    +0.400 HD
ENDBRANCH  10  11
ENDBRANCH   7  10
ENDBRANCH   2   5
BRANCH   1  16
ATOM     16  C   LIG    1       -2.482   0.853   0.018  0.00  0.00    +0.360 C 
BRANCH  16  19
ATOM     17  C   LIG    1       -5.218   3.129  -0.668  0.00  0.00    -0.220 A 
ATOM     18  C   LIG    1       -4.204   2.287  -1.071  0.00  0.00    +0.130 A 
ATOM     19  N   LIG    1       -3.608   1.789   0.029  0.00  0.00    -0.420 N 
ATOM     20  C   LIG    1       -4.206   2.277   1.155  0.00  0.00    +0.020 A 
ATOM     21  C   LIG    1       -3.813   1.938   2.569  0.00  0.00    +0.130 C 
ATOM     22  C   LIG    1       -3.828   1.976  -2.497  0.00  0.00    +0.140 C 
ATOM     23  C   LIG    1       -5.198   3.111   0.799  0.00  0.00    +0.020 A 
BRANCH  17  24
ATOM     24  C   LIG    1       -6.133   3.891  -1.532  0.00  0.00    +0.540 C 
ATOM     25  O   LIG    1       -6.035   3.811  -2.741  0.00  0.00    -0.520 OA
BRANCH  24  26
ATOM     26  O   LIG    1       -7.080   4.678  -0.983  0.00  0.00    -0.350 OA
BRANCH  26  28
ATOM     27  C   LIG    1       -8.950   6.233  -1.095  0.00  0.00    +0.070 C 
ATOM     28  C   LIG    1       -7.948   5.400  -1.896  0.00  0.00    +0.200 C 
ENDBRANCH  26  28
ENDBRANCH  24  26
ENDBRANCH  17  24
ENDBRANCH  16  19
ENDBRANCH   1  16
TORSDOF 8
