REMARK  Name = ZINCrg000000pC19.0
REMARK                            x       y       z     vdW  Elec       q    Type
REMARK                         _______ _______ _______ _____ _____    ______ ____
ROOT
ATOM      1  C   LIG    1        3.765   6.379  -1.250  0.00  0.00    +0.360 C 
ENDROOT
BRANCH   1   2
ATOM      2  N   LIG    1        3.551   7.697  -1.854  0.00  0.00    -0.530 N 
ATOM      3  C   LIG    1        3.446   7.809  -3.204  0.00  0.00    +0.620 A 
ATOM      4  N   LIG    1        3.251   8.939  -3.813  0.00  0.00    -0.520 NA
ATOM      5  C   LIG    1        3.148  10.107  -3.131  0.00  0.00    +0.210 A 
ATOM      6  C   LIG    1        2.945  11.323  -3.786  0.00  0.00    +0.060 A 
ATOM      7  C   LIG    1        2.847  12.484  -3.053  0.00  0.00    +0.150 A 
ATOM      8  C   LIG    1        2.949  12.462  -1.668  0.00  0.00    -0.070 A 
ATOM      9  C   LIG    1        3.150  11.274  -0.999  0.00  0.00    +0.200 A 
ATOM     10  C   LIG    1        3.251  10.088  -1.722  0.00  0.00    -0.200 A 
ATOM     11  C   LIG    1        3.466   8.791  -1.063  0.00  0.00    +0.560 A 
ATOM     12  O   LIG    1        3.563   8.706   0.148  0.00  0.00    -0.490 OA
BRANCH   8  13
ATOM     13  N   LIG    1        2.840  13.726  -0.904  0.00  0.00    +0.030 N 
ATOM     14  O   LIG    1        2.662  14.778  -1.491  0.00  0.00    -0.150 OA
ATOM     15  O   LIG    1        2.928  13.712   0.310  0.00  0.00    -0.160 OA
ENDBRANCH   8  13
ENDBRANCH   1   2
BRANCH   1  18
ATOM     16  N   LIG    1        2.383   4.522  -0.379  0.00  0.00    -0.710 N 
ATOM     17  H   LIG    1        3.201   4.082  -0.101  0.00  0.00    +0.410 HD
ATOM     18  C   LIG    1        2.433   5.745  -0.943  0.00  0.00    +0.510 C 
ATOM     19  O   LIG    1        1.406   6.336  -1.203  0.00  0.00    -0.520 OA
BRANCH  16  20
ATOM     20  C   LIG    1        1.092   3.857  -0.186  0.00  0.00    +0.280 C 
BRANCH  20  21
ATOM     21  C   LIG    1        1.288   2.363  -0.204  0.00  0.00    +0.460 C 
ATOM     22  O   LIG    1        2.393   1.901  -0.363  0.00  0.00    -0.500 OA
BRANCH  21  24
ATOM     23  C   LIG    1        0.499   0.118  -0.074  0.00  0.00    +0.280 C 
ATOM     24  O   LIG    1        0.236   1.546  -0.045  0.00  0.00    -0.340 OA
ENDBRANCH  21  24
ENDBRANCH  20  21
BRANCH  20  25
ATOM     25  C   LIG    1        0.498   4.277   1.161  0.00  0.00    +0.040 C 
BRANCH  25  26
ATOM     26  C   LIG    1       -0.921   3.721   1.288  0.00  0.00    -0.010 C 
ATOM     27  C   LIG    1       -1.808   4.330   0.200  0.00  0.00    +0.020 C 
ATOM     28  C   LIG    1       -1.487   4.076   2.664  0.00  0.00    +0.020 C 
ENDBRANCH  25  26
ENDBRANCH  20  25
ENDBRANCH  16  20
ENDBRANCH   1  18
TORSDOF 8
