REMARK  Name = ZINCtV00001bB3Ua.0
REMARK                            x       y       z     vdW  Elec       q    Type
REMARK                         _______ _______ _______ _____ _____    ______ ____
ROOT
ATOM      1  C   LIG    1       -8.168  -0.789  -0.063  0.00  0.00    -0.140 C 
ATOM      2  C   LIG    1       -9.071   0.182   0.308  0.00  0.00    +0.240 C 
ENDROOT
BRANCH   2   3
ATOM      3  C   LIG    1       -8.671   1.591   0.312  0.00  0.00    -0.100 A 
ATOM      4  C   LIG    1       -7.418   1.965   0.819  0.00  0.00    +0.090 A 
ATOM      5  C   LIG    1       -7.047   3.279   0.818  0.00  0.00    +0.010 A 
ATOM      6  C   LIG    1       -7.917   4.251   0.321  0.00  0.00    -0.010 A 
ATOM      7  C   LIG    1       -9.167   3.883  -0.181  0.00  0.00    +0.000 A 
ATOM      8  C   LIG    1       -9.542   2.571  -0.186  0.00  0.00    +0.060 A 
BRANCH   6   9
ATOM      9  C   LIG    1       -7.513   5.677   0.327  0.00  0.00    -0.050 A 
ATOM     10  C   LIG    1       -8.376   6.651  -0.173  0.00  0.00    +0.020 A 
ATOM     11  C   LIG    1       -7.997   7.978  -0.160  0.00  0.00    +0.010 A 
ATOM     12  C   LIG    1       -6.758   8.341   0.337  0.00  0.00    +0.000 A 
ATOM     13  C   LIG    1       -5.894   7.378   0.829  0.00  0.00    +0.010 A 
ATOM     14  C   LIG    1       -6.265   6.049   0.827  0.00  0.00    +0.020 A 
ENDBRANCH   6   9
ENDBRANCH   2   3
BRANCH   1  15
ATOM     15  C   LIG    1       -6.904  -0.409  -0.713  0.00  0.00    +0.570 C 
ATOM     16  N   LIG    1       -5.954  -1.339  -0.938  0.00  0.00    -0.670 N 
ATOM     17  H   LIG    1       -6.131  -2.271  -0.735  0.00  0.00    +0.410 HD
ATOM     18  O   LIG    1       -6.715   0.746  -1.049  0.00  0.00    -0.490 OA
BRANCH  16  19
ATOM     19  C   LIG    1       -4.713  -0.960  -1.463  0.00  0.00    +0.150 A 
ATOM     20  C   LIG    1       -3.557  -1.612  -1.054  0.00  0.00    +0.010 A 
ATOM     21  C   LIG    1       -2.333  -1.238  -1.571  0.00  0.00    +0.070 A 
ATOM     22  C   LIG    1       -2.257  -0.209  -2.502  0.00  0.00    -0.110 A 
ATOM     23  C   LIG    1       -3.413   0.446  -2.908  0.00  0.00    +0.030 A 
ATOM     24  C   LIG    1       -4.637   0.069  -2.394  0.00  0.00    +0.050 A 
BRANCH  22  25
ATOM     25  S   LIG    1       -0.695   0.268  -3.163  0.00  0.00    -0.090 S 
BRANCH  25  26
ATOM     26  C   LIG    1       -1.127   1.613  -4.301  0.00  0.00    +0.430 C 
ATOM     27  F   LIG    1       -1.748   2.645  -3.589  0.00  0.00    -0.180 F 
ATOM     28  F   LIG    1       -2.001   1.132  -5.281  0.00  0.00    -0.180 F 
ENDBRANCH  25  26
ENDBRANCH  22  25
ENDBRANCH  16  19
ENDBRANCH   1  15
BRANCH   1  30
ATOM     29  N   LIG    1       -8.689  -3.264   0.381  0.00  0.00    -0.400 NA
ATOM     30  C   LIG    1       -8.458  -2.169   0.185  0.00  0.00    +0.240 C 
ENDBRANCH   1  30
TORSDOF 7
