REMARK  Name = ZINCtV00000L6jqy.0
REMARK                            x       y       z     vdW  Elec       q    Type
REMARK                         _______ _______ _______ _____ _____    ______ ____
ROOT
ATOM      1  C   LIG    1       -6.385  -1.445   0.027  0.00  0.00    +0.160 A 
ATOM      2  C   LIG    1       -5.377  -2.387  -0.158  0.00  0.00    +0.020 A 
ATOM      3  C   LIG    1       -4.068  -2.013  -0.158  0.00  0.00    +0.100 A 
ATOM      4  C   LIG    1       -3.706  -0.662   0.029  0.00  0.00    +0.100 A 
ATOM      5  N   LIG    1       -2.474  -0.115   0.053  0.00  0.00    -0.460 NA
ATOM      6  C   LIG    1       -2.381   1.155   0.244  0.00  0.00    +0.330 A 
ATOM      7  S   LIG    1       -3.980   1.865   0.420  0.00  0.00    +0.070 S 
ATOM      8  C   LIG    1       -4.722   0.281   0.214  0.00  0.00    -0.160 A 
ATOM      9  C   LIG    1       -6.057  -0.114   0.213  0.00  0.00    +0.070 A 
ENDROOT
BRANCH   1  12
ATOM     10  O   LIG    1       -8.356   0.034  -0.982  0.00  0.00    -0.490 OA
ATOM     11  C   LIG    1       -8.675  -1.016  -0.459  0.00  0.00    +0.550 C 
ATOM     12  N   LIG    1       -7.728  -1.843   0.025  0.00  0.00    -0.670 N 
ATOM     13  H   LIG    1       -7.975  -2.715   0.372  0.00  0.00    +0.410 HD
BRANCH  11  14
ATOM     14  C   LIG    1      -10.102  -1.386  -0.356  0.00  0.00    -0.140 A 
ATOM     15  C   LIG    1      -10.472  -2.592   0.243  0.00  0.00    +0.070 A 
ATOM     16  C   LIG    1      -11.805  -2.931   0.337  0.00  0.00    +0.020 A 
ATOM     17  C   LIG    1      -12.777  -2.081  -0.162  0.00  0.00    +0.060 A 
ATOM     18  C   LIG    1      -12.418  -0.885  -0.757  0.00  0.00    +0.020 A 
ATOM     19  C   LIG    1      -11.087  -0.529  -0.852  0.00  0.00    +0.020 A 
ATOM     20 CL   LIG    1      -10.639   0.976  -1.593  0.00  0.00    -0.030 Cl
ENDBRANCH  11  14
ENDBRANCH   1  12
BRANCH   6  21
ATOM     21  N   LIG    1       -1.192   1.862   0.298  0.00  0.00    -0.630 N 
ATOM     22  H   LIG    1       -1.204   2.821   0.442  0.00  0.00    +0.420 HD
ATOM     23  C   LIG    1       -0.018   1.217   0.151  0.00  0.00    +0.550 C 
ATOM     24  O   LIG    1       -0.003   0.015  -0.029  0.00  0.00    -0.440 OA
BRANCH  23  25
ATOM     25  C   LIG    1        1.251   1.972   0.203  0.00  0.00    -0.130 A 
ATOM     26  C   LIG    1        1.238   3.353   0.409  0.00  0.00    +0.050 A 
ATOM     27  C   LIG    1        2.426   4.052   0.457  0.00  0.00    +0.020 A 
ATOM     28  C   LIG    1        3.630   3.388   0.299  0.00  0.00    +0.060 A 
ATOM     29  C   LIG    1        3.652   2.021   0.094  0.00  0.00    +0.020 A 
ATOM     30  C   LIG    1        2.471   1.307   0.050  0.00  0.00    +0.020 A 
ATOM     31 CL   LIG    1        2.500  -0.411  -0.199  0.00  0.00    -0.020 Cl
ENDBRANCH  23  25
ENDBRANCH   6  21
TORSDOF 4
