REMARK  Name = ZINCvU0000000ET8.1
REMARK                            x       y       z     vdW  Elec       q    Type
REMARK                         _______ _______ _______ _____ _____    ______ ____
ROOT
ATOM      1  N   LIG    1        0.792   3.933  -1.024  0.00  0.00    -0.520 NA
ATOM      2  C   LIG    1        1.569   3.348   0.078  0.00  0.00    +0.190 C 
ATOM      3  C   LIG    1        1.518   1.821  -0.019  0.00  0.00    +0.190 C 
ATOM      4  N   LIG    1        0.118   1.376   0.033  0.00  0.00    -0.530 NA
ATOM      5  C   LIG    1       -0.658   1.961  -1.069  0.00  0.00    +0.190 C 
ATOM      6  C   LIG    1       -0.607   3.488  -0.972  0.00  0.00    +0.190 C 
ENDROOT
BRANCH   1   7
ATOM      7  C   LIG    1        0.880   5.399  -1.008  0.00  0.00    +0.220 C 
BRANCH   7  10
ATOM      8  N   LIG    1        0.255   7.282  -2.486  0.00  0.00    -0.670 N 
ATOM      9  H   LIG    1        0.541   7.889  -1.785  0.00  0.00    +0.410 HD
ATOM     10  C   LIG    1        0.284   5.951  -2.278  0.00  0.00    +0.520 C 
ATOM     11  O   LIG    1       -0.168   5.197  -3.114  0.00  0.00    -0.490 OA
BRANCH   8  16
ATOM     12  C   LIG    1       -1.547   9.338  -7.458  0.00  0.00    +0.100 C 
ATOM     13  C   LIG    1       -1.068   8.793  -6.137  0.00  0.00    -0.100 A 
ATOM     14  C   LIG    1       -0.556   7.511  -6.066  0.00  0.00    +0.050 A 
ATOM     15  C   LIG    1       -0.111   7.009  -4.857  0.00  0.00    +0.040 A 
ATOM     16  C   LIG    1       -0.190   7.790  -3.712  0.00  0.00    +0.180 A 
ATOM     17  C   LIG    1       -0.705   9.078  -3.787  0.00  0.00    -0.120 A 
ATOM     18 BR   LIG    1       -0.807  10.149  -2.232  0.00  0.00    -0.050 Br
ATOM     19  C   LIG    1       -1.143   9.576  -5.000  0.00  0.00    +0.070 A 
ENDBRANCH   8  16
ENDBRANCH   7  10
ENDBRANCH   1   7
BRANCH   4  20
ATOM     20  C   LIG    1        0.031  -0.090   0.017  0.00  0.00    +0.230 C 
BRANCH  20  21
ATOM     21  C   LIG    1       -1.405  -0.510   0.194  0.00  0.00    -0.080 A 
ATOM     22  C   LIG    1       -2.243   0.221   1.016  0.00  0.00    +0.040 A 
ATOM     23  C   LIG    1       -3.562  -0.162   1.174  0.00  0.00    +0.000 A 
ATOM     24  C   LIG    1       -4.041  -1.280   0.518  0.00  0.00    +0.000 A 
ATOM     25  C   LIG    1       -3.202  -2.014  -0.300  0.00  0.00    +0.000 A 
ATOM     26  C   LIG    1       -1.884  -1.629  -0.462  0.00  0.00    +0.010 A 
ENDBRANCH  20  21
BRANCH  20  27
ATOM     27  C   LIG    1        0.861  -0.654   1.142  0.00  0.00    -0.080 A 
ATOM     28  C   LIG    1        0.791  -0.092   2.403  0.00  0.00    +0.040 A 
ATOM     29  C   LIG    1        1.548  -0.612   3.435  0.00  0.00    +0.000 A 
ATOM     30  C   LIG    1        2.384  -1.689   3.204  0.00  0.00    +0.000 A 
ATOM     31  C   LIG    1        2.459  -2.248   1.942  0.00  0.00    +0.000 A 
ATOM     32  C   LIG    1        1.697  -1.730   0.911  0.00  0.00    +0.010 A 
ENDBRANCH  20  27
ENDBRANCH   4  20
TORSDOF 6
