REMARK  Name = ZINCqH0000008FfC.0
REMARK                            x       y       z     vdW  Elec       q    Type
REMARK                         _______ _______ _______ _____ _____    ______ ____
ROOT
ATOM      1  N   LIG    1        1.462  -1.088   0.086  0.00  0.00    -0.720 N 
ATOM      2  H   LIG    1        0.593  -0.657   0.097  0.00  0.00    +0.400 HD
ATOM      3  C   LIG    1        2.581  -0.345  -0.023  0.00  0.00    +0.580 C 
ATOM      4  O   LIG    1        3.663  -0.889  -0.135  0.00  0.00    -0.530 OA
ENDROOT
BRANCH   1  16
ATOM      5  C   LIG    1       -0.060  -2.594  -1.716  0.00  0.00    +0.020 C 
ATOM      6  C   LIG    1        0.269  -3.174  -0.339  0.00  0.00    -0.010 C 
ATOM      7  C   LIG    1       -0.865  -2.850   0.641  0.00  0.00    +0.030 C 
ATOM      8  C   LIG    1       -0.627  -3.638   1.928  0.00  0.00    +0.080 C 
ATOM      9  C   LIG    1        0.777  -3.423   2.429  0.00  0.00    -0.100 A 
ATOM     10  C   LIG    1        1.050  -3.750   3.753  0.00  0.00    +0.090 A 
ATOM     11  C   LIG    1        2.322  -3.587   4.268  0.00  0.00    +0.000 A 
ATOM     12  C   LIG    1        3.330  -3.095   3.461  0.00  0.00    +0.030 A 
ATOM     13  C   LIG    1        3.060  -2.768   2.148  0.00  0.00    +0.030 A 
ATOM     14  F   LIG    1        0.064  -4.231   4.541  0.00  0.00    -0.140 F 
ATOM     15  C   LIG    1        1.782  -2.929   1.628  0.00  0.00    -0.080 A 
ATOM     16  C   LIG    1        1.557  -2.546   0.189  0.00  0.00    +0.300 C 
ENDBRANCH   1  16
BRANCH   3  17
ATOM     17  C   LIG    1        2.494   1.123  -0.008  0.00  0.00    -0.210 A 
ATOM     18  C   LIG    1        1.280   1.743   0.004  0.00  0.00    +0.330 A 
ATOM     19  N   LIG    1        1.158   3.092   0.018  0.00  0.00    -0.620 N 
ATOM     20  H   LIG    1        0.269   3.480   0.026  0.00  0.00    +0.420 HD
ATOM     21  C   LIG    1        2.224   3.916   0.020  0.00  0.00    +0.550 A 
ATOM     22  C   LIG    1        3.578   3.349   0.007  0.00  0.00    -0.160 A 
ATOM     23  C   LIG    1        4.715   4.156   0.009  0.00  0.00    +0.090 A 
ATOM     24  C   LIG    1        5.963   3.572  -0.003  0.00  0.00    +0.000 A 
ATOM     25  C   LIG    1        6.098   2.190  -0.011  0.00  0.00    +0.050 A 
ATOM     26  C   LIG    1        4.987   1.375  -0.019  0.00  0.00    +0.050 A 
ATOM     27  O   LIG    1        2.065   5.123   0.033  0.00  0.00    -0.510 OA
ATOM     28  C   LIG    1        3.717   1.944  -0.007  0.00  0.00    +0.020 A 
ENDBRANCH   3  17
TORSDOF 2
