REMARK  Name = ZINCrD00000hQ54z.0
REMARK                            x       y       z     vdW  Elec       q    Type
REMARK                         _______ _______ _______ _____ _____    ______ ____
ROOT
ATOM      1  O   LIG    1        8.976   2.665  -2.692  0.00  0.00    -0.540 OA
ATOM      2  C   LIG    1        8.633   2.844  -3.845  0.00  0.00    +0.710 C 
ATOM      3  N   LIG    1        9.322   3.699  -4.627  0.00  0.00    -0.620 N 
ATOM      4  C   LIG    1        8.856   4.027  -5.984  0.00  0.00    +0.260 C 
ATOM      5  C   LIG    1        8.831   5.552  -6.132  0.00  0.00    +0.220 C 
ATOM      6  O   LIG    1       10.103   6.082  -5.752  0.00  0.00    -0.370 OA
ATOM      7  C   LIG    1       10.453   5.844  -4.386  0.00  0.00    +0.240 C 
ATOM      8  C   LIG    1       10.557   4.338  -4.147  0.00  0.00    +0.340 C 
ATOM      9  N   LIG    1        7.566   2.187  -4.341  0.00  0.00    -0.680 N 
ATOM     10  H   LIG    1        7.250   2.382  -5.237  0.00  0.00    +0.400 HD
ENDROOT
BRANCH   9  11
ATOM     11  C   LIG    1        6.913   1.222  -3.561  0.00  0.00    +0.140 A 
ATOM     12  C   LIG    1        5.536   1.075  -3.650  0.00  0.00    +0.030 A 
ATOM     13  C   LIG    1        4.893   0.120  -2.885  0.00  0.00    -0.040 A 
ATOM     14  C   LIG    1        5.621  -0.683  -2.022  0.00  0.00    +0.130 A 
ATOM     15  C   LIG    1        6.999  -0.536  -1.932  0.00  0.00    -0.050 A 
ATOM     16 CL   LIG    1        7.912  -1.547  -0.856  0.00  0.00    -0.050 Cl
ATOM     17  C   LIG    1        7.644   0.414  -2.700  0.00  0.00    +0.080 A 
BRANCH  14  18
ATOM     18  O   LIG    1        4.987  -1.619  -1.266  0.00  0.00    -0.290 OA
BRANCH  18  19
ATOM     19  C   LIG    1        3.581  -1.774  -1.471  0.00  0.00    +0.160 C 
ATOM     20  C   LIG    1        2.789  -0.828  -0.535  0.00  0.00    +0.000 C 
ATOM     21  C   LIG    1        1.409  -1.525  -0.434  0.00  0.00    +0.020 C 
ATOM     22  C   LIG    1        1.746  -3.030  -0.393  0.00  0.00    +0.020 C 
ATOM     23  C   LIG    1        3.128  -3.188  -1.052  0.00  0.00    +0.030 C 
ENDBRANCH  18  19
ENDBRANCH  14  18
ENDBRANCH   9  11
BRANCH   8  24
ATOM     24  C   LIG    1       10.728   4.070  -2.674  0.00  0.00    +0.250 A 
ATOM     25  N   LIG    1       11.735   3.441  -2.127  0.00  0.00    -0.310 NA
ATOM     26  N   LIG    1       11.495   3.415  -0.744  0.00  0.00    -0.480 N 
ATOM     27  H   LIG    1       12.060   3.018  -0.063  0.00  0.00    +0.440 HD
ATOM     28  C   LIG    1       10.326   4.050  -0.550  0.00  0.00    +0.480 A 
ATOM     29  N   LIG    1        9.879   4.442  -1.716  0.00  0.00    -0.510 NA
ENDBRANCH   8  24
TORSDOF 4
