REMARK  Name = ZINCrD00000hQ54z.1
REMARK                            x       y       z     vdW  Elec       q    Type
REMARK                         _______ _______ _______ _____ _____    ______ ____
ROOT
ATOM      1  O   LIG    1        9.284   2.345  -2.788  0.00  0.00    -0.530 OA
ATOM      2  C   LIG    1        8.976   2.466  -3.958  0.00  0.00    +0.700 C 
ATOM      3  N   LIG    1        9.498   3.469  -4.692  0.00  0.00    -0.630 N 
ATOM      4  C   LIG    1        9.029   3.728  -6.063  0.00  0.00    +0.260 C 
ATOM      5  C   LIG    1        8.688   5.222  -6.178  0.00  0.00    +0.210 C 
ATOM      6  O   LIG    1        9.806   5.994  -5.734  0.00  0.00    -0.370 OA
ATOM      7  C   LIG    1       10.147   5.794  -4.359  0.00  0.00    +0.240 C 
ATOM      8  C   LIG    1       10.559   4.332  -4.149  0.00  0.00    +0.330 C 
ATOM      9  N   LIG    1        8.112   1.598  -4.521  0.00  0.00    -0.680 N 
ATOM     10  H   LIG    1        7.808   1.738  -5.431  0.00  0.00    +0.400 HD
ENDROOT
BRANCH   9  11
ATOM     11  C   LIG    1        7.654   0.493  -3.791  0.00  0.00    +0.140 A 
ATOM     12  C   LIG    1        6.415  -0.064  -4.079  0.00  0.00    +0.020 A 
ATOM     13  C   LIG    1        5.965  -1.156  -3.362  0.00  0.00    -0.040 A 
ATOM     14  C   LIG    1        6.746  -1.690  -2.348  0.00  0.00    +0.120 A 
ATOM     15  C   LIG    1        7.985  -1.134  -2.059  0.00  0.00    -0.050 A 
ATOM     16 CL   LIG    1        8.965  -1.807  -0.795  0.00  0.00    -0.050 Cl
ATOM     17  C   LIG    1        8.438  -0.045  -2.779  0.00  0.00    +0.080 A 
BRANCH  14  18
ATOM     18  O   LIG    1        6.301  -2.762  -1.640  0.00  0.00    -0.290 OA
BRANCH  18  19
ATOM     19  C   LIG    1        5.083  -3.369  -2.078  0.00  0.00    +0.150 C 
ATOM     20  C   LIG    1        3.890  -2.866  -1.227  0.00  0.00    +0.010 C 
ATOM     21  C   LIG    1        2.851  -4.002  -1.392  0.00  0.00    +0.020 C 
ATOM     22  C   LIG    1        3.696  -5.293  -1.388  0.00  0.00    +0.020 C 
ATOM     23  C   LIG    1        5.115  -4.890  -1.825  0.00  0.00    +0.030 C 
ENDBRANCH  18  19
ENDBRANCH  14  18
ENDBRANCH   9  11
BRANCH   8  24
ATOM     24  C   LIG    1       10.731   4.060  -2.677  0.00  0.00    +0.170 A 
ATOM     25  N   LIG    1        9.790   4.070  -1.773  0.00  0.00    -0.220 NA
ATOM     26  N   LIG    1       10.292   3.793  -0.622  0.00  0.00    -0.290 NA
ATOM     27  C   LIG    1       11.577   3.595  -0.739  0.00  0.00    +0.370 A 
ATOM     28  N   LIG    1       11.891   3.753  -2.048  0.00  0.00    -0.580 N 
ATOM     29  H   LIG    1       12.769   3.666  -2.451  0.00  0.00    +0.420 HD
ENDBRANCH   8  24
TORSDOF 4
