REMARK  Name = ZINCtV000002L40c.1
REMARK                            x       y       z     vdW  Elec       q    Type
REMARK                         _______ _______ _______ _____ _____    ______ ____
ROOT
ATOM      1  N   LIG    1       -2.138   1.101  -1.210  0.00  0.00    -0.500 N 
ATOM      2  C   LIG    1       -0.754   1.594  -1.231  0.00  0.00    +0.180 C 
ATOM      3  C   LIG    1       -0.013   1.086   0.008  0.00  0.00    +0.040 C 
ATOM      4  C   LIG    1       -0.731   1.580   1.267  0.00  0.00    +0.010 C 
ATOM      5  C   LIG    1       -2.184   1.095   1.239  0.00  0.00    +0.000 C 
ATOM      6  C   LIG    1       -2.862   1.602  -0.035  0.00  0.00    +0.200 C 
ENDROOT
BRANCH   1  13
ATOM      7  C   LIG    1       -4.190  -1.484  -5.040  0.00  0.00    -0.150 A 
ATOM      8  C   LIG    1       -4.395  -0.171  -5.334  0.00  0.00    +0.110 A 
ATOM      9  C   LIG    1       -3.934   0.822  -4.452  0.00  0.00    +0.130 A 
ATOM     10  N   LIG    1       -4.122   2.120  -4.716  0.00  0.00    -0.470 NA
ATOM     11  C   LIG    1       -3.699   3.058  -3.901  0.00  0.00    +0.320 A 
ATOM     12  C   LIG    1       -3.032   2.757  -2.722  0.00  0.00    -0.060 A 
ATOM     13  C   LIG    1       -2.801   1.433  -2.382  0.00  0.00    +0.160 A 
ATOM     14  C   LIG    1       -3.257   0.432  -3.272  0.00  0.00    -0.070 A 
ATOM     15  C   LIG    1       -3.068  -0.929  -2.997  0.00  0.00    +0.080 A 
ATOM     16  C   LIG    1       -3.529  -1.864  -3.874  0.00  0.00    +0.050 A 
BRANCH   7  18
ATOM     17  F   LIG    1       -3.690  -2.835  -6.926  0.00  0.00    -0.170 F 
ATOM     18  C   LIG    1       -4.687  -2.543  -5.990  0.00  0.00    +0.510 C 
ATOM     19  F   LIG    1       -5.827  -2.076  -6.653  0.00  0.00    -0.170 F 
ATOM     20  F   LIG    1       -5.007  -3.700  -5.272  0.00  0.00    -0.170 F 
ENDBRANCH   7  18
ENDBRANCH   1  13
BRANCH   5  21
ATOM     21  C   LIG    1       -2.926   1.635   2.463  0.00  0.00    +0.250 C 
BRANCH  21  22
ATOM     22  N   LIG    1       -2.350   1.054   3.679  0.00  0.00    -0.740 N 
ATOM     23  H   LIG    1       -1.611   0.429   3.615  0.00  0.00    +0.400 HD
BRANCH  22  24
ATOM     24  C   LIG    1       -2.867   1.400   4.930  0.00  0.00    +0.220 A 
ATOM     25  C   LIG    1       -3.922   2.298   5.024  0.00  0.00    -0.060 A 
ATOM     26  C   LIG    1       -4.435   2.633   6.261  0.00  0.00    +0.070 A 
ATOM     27  C   LIG    1       -3.890   2.084   7.409  0.00  0.00    -0.090 A 
ATOM     28  C   LIG    1       -2.835   1.193   7.319  0.00  0.00    +0.070 A 
ATOM     29 CL   LIG    1       -4.531   2.513   8.964  0.00  0.00    -0.080 Cl
ATOM     30  C   LIG    1       -2.322   0.850   6.083  0.00  0.00    -0.050 A 
ENDBRANCH  22  24
ENDBRANCH  21  22
ENDBRANCH   5  21
TORSDOF 5
