REMARK  Name = ZINCrH000004tLZU.0
REMARK                            x       y       z     vdW  Elec       q    Type
REMARK                         _______ _______ _______ _____ _____    ______ ____
ROOT
ATOM      1  N   LIG    1       -3.623   1.813   0.027  0.00  0.00    -0.490 NA
ATOM      2  C   LIG    1       -3.739   2.530  -1.256  0.00  0.00    +0.200 C 
ATOM      3  C   LIG    1       -5.159   2.267  -1.800  0.00  0.00    +0.010 C 
ATOM      4  C   LIG    1       -5.956   1.885  -0.525  0.00  0.00    +0.060 C 
ATOM      5  C   LIG    1       -4.893   1.103   0.286  0.00  0.00    +0.150 C 
ENDROOT
BRANCH   5   6
ATOM      6  C   LIG    1       -5.224   1.139   1.756  0.00  0.00    +0.520 C 
ATOM      7  N   LIG    1       -6.347   0.546   2.208  0.00  0.00    -0.670 N 
ATOM      8  H   LIG    1       -6.975   0.154   1.582  0.00  0.00    +0.410 HD
ATOM      9  O   LIG    1       -4.480   1.700   2.531  0.00  0.00    -0.480 OA
BRANCH   7  10
ATOM     10  C   LIG    1       -6.607   0.498   3.583  0.00  0.00    +0.170 A 
ATOM     11  C   LIG    1       -6.224   1.551   4.401  0.00  0.00    +0.060 A 
ATOM     12  C   LIG    1       -6.482   1.500   5.758  0.00  0.00    -0.010 A 
ATOM     13  C   LIG    1       -7.123   0.401   6.301  0.00  0.00    +0.040 A 
ATOM     14  C   LIG    1       -7.506  -0.651   5.488  0.00  0.00    +0.070 A 
ATOM     15 CL   LIG    1       -6.004   2.818   6.782  0.00  0.00    -0.050 Cl
ATOM     16  C   LIG    1       -7.256  -0.603   4.130  0.00  0.00    -0.060 A 
ATOM     17 CL   LIG    1       -7.744  -1.920   3.110  0.00  0.00    -0.060 Cl
ENDBRANCH   7  10
ENDBRANCH   5   6
BRANCH   1  18
ATOM     18  C   LIG    1       -2.491   0.876   0.006  0.00  0.00    +0.200 C 
BRANCH  18  20
ATOM     19  O   LIG    1       -1.217   2.863   0.019  0.00  0.00    -0.510 OA
ATOM     20  C   LIG    1       -1.198   1.650   0.004  0.00  0.00    +0.520 C 
ATOM     21  N   LIG    1       -0.021   0.995  -0.014  0.00  0.00    -0.730 N 
ATOM     22  H   LIG    1       -0.005   0.025  -0.025  0.00  0.00    +0.400 HD
BRANCH  21  23
ATOM     23  C   LIG    1        1.236   1.748  -0.022  0.00  0.00    +0.320 C 
BRANCH  23  24
ATOM     24  C   LIG    1        2.397   0.787  -0.049  0.00  0.00    -0.110 A 
ATOM     25  C   LIG    1        2.949   0.336   1.136  0.00  0.00    +0.020 A 
ATOM     26  C   LIG    1        4.011  -0.548   1.111  0.00  0.00    +0.010 A 
ATOM     27  C   LIG    1        4.527  -0.975  -0.098  0.00  0.00    +0.010 A 
ATOM     28  C   LIG    1        3.978  -0.521  -1.283  0.00  0.00    +0.000 A 
ATOM     29  C   LIG    1        2.913   0.360  -1.258  0.00  0.00    +0.020 A 
ENDBRANCH  23  24
ENDBRANCH  21  23
ENDBRANCH  18  20
ENDBRANCH   1  18
TORSDOF 6
