REMARK  Name = ZINCrg000000sFuu.0
REMARK                            x       y       z     vdW  Elec       q    Type
REMARK                         _______ _______ _______ _____ _____    ______ ____
ROOT
ATOM      1  O   LIG    1        0.066  -0.003   0.031  0.00  0.00    -0.650 OA
ENDROOT
BRANCH   1   2
ATOM      2  C   LIG    1        0.031   1.356   0.032  0.00  0.00    +0.060 A 
ATOM      3  C   LIG    1       -1.182   2.020  -0.076  0.00  0.00    +0.030 A 
ATOM      4  C   LIG    1       -1.217   3.400  -0.070  0.00  0.00    +0.050 A 
ATOM      5  C   LIG    1       -0.038   4.124   0.032  0.00  0.00    +0.120 A 
ATOM      6  C   LIG    1        1.176   3.461   0.134  0.00  0.00    +0.040 A 
ATOM      7  C   LIG    1        1.210   2.080   0.134  0.00  0.00    +0.080 A 
BRANCH   5   8
ATOM      8  O   LIG    1       -0.072   5.483   0.033  0.00  0.00    -0.250 OA
BRANCH   8   9
ATOM      9  C   LIG    1        0.415   6.133  -1.054  0.00  0.00    +0.310 A 
ATOM     10  C   LIG    1        0.510   7.519  -1.041  0.00  0.00    -0.030 A 
ATOM     11  C   LIG    1        1.009   8.170  -2.156  0.00  0.00    +0.110 A 
ATOM     12  C   LIG    1        1.398   7.407  -3.249  0.00  0.00    -0.060 A 
ATOM     13  C   LIG    1        1.276   6.033  -3.192  0.00  0.00    +0.300 A 
ATOM     14  N   LIG    1        0.801   5.441  -2.113  0.00  0.00    -0.530 NA
ENDBRANCH   8   9
ENDBRANCH   5   8
ENDBRANCH   1   2
BRANCH   1  15
ATOM     15  S   LIG    1       -0.037  -0.625   1.417  0.00  0.00    +2.710 S 
ATOM     16  O   LIG    1        0.721   0.205   2.286  0.00  0.00    -0.950 OA
ATOM     17  O   LIG    1        0.215  -2.014   1.252  0.00  0.00    -0.900 OA
BRANCH  15  21
ATOM     18  C   LIG    1       -3.769   1.529   4.244  0.00  0.00    +0.350 C 
ATOM     19  N   LIG    1       -3.382   0.534   3.241  0.00  0.00    -0.530 N 
ATOM     20  C   LIG    1       -2.072   0.432   2.858  0.00  0.00    +0.520 A 
ATOM     21  C   LIG    1       -1.716  -0.481   1.930  0.00  0.00    -0.880 A 
ATOM     22  C   LIG    1       -2.710  -1.326   1.379  0.00  0.00    +0.590 A 
ATOM     23  N   LIG    1       -3.988  -1.198   1.787  0.00  0.00    -0.550 N 
ATOM     24  C   LIG    1       -5.024  -2.067   1.224  0.00  0.00    +0.350 C 
ATOM     25  O   LIG    1       -2.412  -2.161   0.543  0.00  0.00    -0.480 OA
ATOM     26  C   LIG    1       -4.316  -0.275   2.710  0.00  0.00    +0.690 A 
ATOM     27  O   LIG    1       -5.473  -0.170   3.068  0.00  0.00    -0.520 OA
ENDBRANCH  15  21
ENDBRANCH   1  15
TORSDOF 5
