REMARK  Name = ZINCvU0000000I0Q.0
REMARK                            x       y       z     vdW  Elec       q    Type
REMARK                         _______ _______ _______ _____ _____    ______ ____
ROOT
ATOM      1  C   LIG    1       -2.929   3.412   5.130  0.00  0.00    +0.060 C 
ENDROOT
BRANCH   1   2
ATOM      2  C   LIG    1       -4.244   3.177   4.433  0.00  0.00    -0.100 A 
ATOM      3  C   LIG    1       -4.968   4.248   3.943  0.00  0.00    +0.040 A 
ATOM      4  C   LIG    1       -6.173   4.032   3.300  0.00  0.00    +0.010 A 
ATOM      5  C   LIG    1       -6.657   2.745   3.155  0.00  0.00    +0.020 A 
ATOM      6  C   LIG    1       -5.936   1.675   3.649  0.00  0.00    +0.010 A 
ATOM      7  C   LIG    1       -4.730   1.891   4.289  0.00  0.00    +0.060 A 
ENDBRANCH   1   2
BRANCH   1  10
ATOM      8  N   LIG    1       -3.526   3.745   7.508  0.00  0.00    -0.660 N 
ATOM      9  H   LIG    1       -3.729   2.798   7.559  0.00  0.00    +0.420 HD
ATOM     10  C   LIG    1       -3.149   4.291   6.335  0.00  0.00    +0.550 C 
ATOM     11  O   LIG    1       -2.987   5.490   6.248  0.00  0.00    -0.490 OA
BRANCH   8  16
ATOM     12  C   LIG    1       -3.921   6.982  12.151  0.00  0.00    +0.100 C 
ATOM     13  C   LIG    1       -3.816   6.123  10.917  0.00  0.00    -0.090 A 
ATOM     14  C   LIG    1       -4.679   5.057  10.744  0.00  0.00    +0.050 A 
ATOM     15  C   LIG    1       -4.585   4.267   9.615  0.00  0.00    +0.000 A 
ATOM     16  C   LIG    1       -3.623   4.544   8.652  0.00  0.00    +0.150 A 
ATOM     17  C   LIG    1       -2.754   5.613   8.831  0.00  0.00    +0.040 A 
ATOM     18  C   LIG    1       -2.856   6.403   9.960  0.00  0.00    -0.020 A 
ATOM     19 CL   LIG    1       -1.775   7.743  10.182  0.00  0.00    -0.060 Cl
ENDBRANCH   8  16
ENDBRANCH   1  10
BRANCH   1  20
ATOM     20  S   LIG    1       -1.780   4.225   3.992  0.00  0.00    +0.150 S 
BRANCH  20  21
ATOM     21  C   LIG    1       -1.590   2.952   2.789  0.00  0.00    +0.120 A 
ATOM     22  N   LIG    1       -2.166   1.774   2.805  0.00  0.00    -0.270 NA
ATOM     23  N   LIG    1       -1.796   1.105   1.770  0.00  0.00    -0.250 NA
ATOM     24  C   LIG    1       -0.977   1.823   1.058  0.00  0.00    +0.180 A 
ATOM     25  O   LIG    1       -0.821   3.005   1.685  0.00  0.00    -0.200 OA
BRANCH  24  26
ATOM     26  C   LIG    1       -0.318   1.405  -0.231  0.00  0.00    +0.310 C 
BRANCH  26  27
ATOM     27  C   LIG    1       -1.196   1.793  -1.393  0.00  0.00    +0.060 A 
ATOM     28  C   LIG    1       -0.761   2.546  -2.408  0.00  0.00    -0.070 A 
ATOM     29  S   LIG    1       -2.096   2.758  -3.538  0.00  0.00    +0.140 S 
ATOM     30  C   LIG    1       -3.107   1.812  -2.534  0.00  0.00    +0.050 A 
ATOM     31  C   LIG    1       -4.549   1.486  -2.823  0.00  0.00    +0.180 C 
ATOM     32  N   LIG    1       -2.454   1.412  -1.495  0.00  0.00    -0.460 NA
ENDBRANCH  26  27
ENDBRANCH  24  26
ENDBRANCH  20  21
ENDBRANCH   1  20
TORSDOF 7
