REMARK  Name = ZINCnE000008Jfpo.0
REMARK                            x       y       z     vdW  Elec       q    Type
REMARK                         _______ _______ _______ _____ _____    ______ ____
ROOT
ATOM      1  S   LIG    1       -1.903   2.584   3.682  0.00  0.00    +2.610 S 
ATOM      2  O   LIG    1       -2.865   2.796   4.706  0.00  0.00    -1.040 OA
ATOM      3  O   LIG    1       -1.276   3.645   2.974  0.00  0.00    -1.020 OA
ENDROOT
BRANCH   1   6
ATOM      4  C   LIG    1       -4.610   0.381   1.683  0.00  0.00    +0.060 A 
ATOM      5  C   LIG    1       -3.999   1.185   2.634  0.00  0.00    +0.070 A 
ATOM      6  C   LIG    1       -2.682   1.570   2.470  0.00  0.00    -0.620 A 
ATOM      7  C   LIG    1       -1.976   1.163   1.348  0.00  0.00    +0.200 A 
ATOM      8  C   LIG    1       -2.587   0.359   0.397  0.00  0.00    -0.060 A 
ATOM      9  C   LIG    1       -3.901  -0.030   0.564  0.00  0.00    -0.040 A 
ATOM     10  C   LIG    1       -4.566  -0.904  -0.469  0.00  0.00    +0.100 C 
BRANCH   4  12
ATOM     11  C   LIG    1       -6.573   0.459   3.023  0.00  0.00    +0.240 C 
ATOM     12  O   LIG    1       -5.904  -0.002   1.848  0.00  0.00    -0.320 OA
ENDBRANCH   4  12
BRANCH   7  13
ATOM     13  O   LIG    1       -0.682   1.547   1.184  0.00  0.00    -0.290 OA
ATOM     14  C   LIG    1       -0.013   1.086   0.008  0.00  0.00    +0.230 C 
ENDBRANCH   7  13
ENDBRANCH   1   6
BRANCH   1  15
ATOM     15  N   LIG    1       -0.686   1.690   4.361  0.00  0.00    -1.080 NA
BRANCH  15  16
ATOM     16  C   LIG    1        0.112   2.245   5.364  0.00  0.00    +0.290 A 
ATOM     17  C   LIG    1       -0.115   3.546   5.794  0.00  0.00    -0.180 A 
ATOM     18  C   LIG    1        0.676   4.091   6.787  0.00  0.00    +0.030 A 
ATOM     19  C   LIG    1        1.691   3.343   7.353  0.00  0.00    -0.130 A 
ATOM     20  C   LIG    1        1.919   2.047   6.928  0.00  0.00    -0.060 A 
ATOM     21  C   LIG    1        3.028   1.235   7.547  0.00  0.00    +0.070 C 
ATOM     22  C   LIG    1        1.130   1.494   5.939  0.00  0.00    -0.150 A 
ATOM     23  C   LIG    1        1.375   0.080   5.480  0.00  0.00    +0.070 C 
ENDBRANCH  15  16
ENDBRANCH   1  15
TORSDOF 5
