REMARK  Name = ZINCrg000000tT3G.0
REMARK                            x       y       z     vdW  Elec       q    Type
REMARK                         _______ _______ _______ _____ _____    ______ ____
ROOT
ATOM      1  O   LIG    1        0.057   0.021  -0.033  0.00  0.00    -0.540 OA
ATOM      2  C   LIG    1        0.035   1.236  -0.029  0.00  0.00    +0.710 C 
ATOM      3  N   LIG    1        1.133   2.001  -0.051  0.00  0.00    -0.680 N 
ATOM      4  H   LIG    1        2.039   1.654  -0.072  0.00  0.00    +0.440 HD
ATOM      5  C   LIG    1        0.824   3.314  -0.041  0.00  0.00    +0.530 C 
ATOM      6  C   LIG    1       -0.686   3.373  -0.007  0.00  0.00    +0.120 C 
ATOM      7  C   LIG    1       -1.217   4.081  -1.250  0.00  0.00    +0.060 C 
ATOM      8  C   LIG    1       -2.749   4.072  -1.225  0.00  0.00    +0.280 C 
ATOM      9  N   LIG    1       -3.204   4.641   0.052  0.00  0.00    -0.610 N 
ATOM     10  C   LIG    1       -2.693   4.066   1.304  0.00  0.00    +0.300 C 
ATOM     11  C   LIG    1       -4.073   5.670   0.074  0.00  0.00    +0.530 C 
ATOM     12  O   LIG    1       -4.442   6.130   1.134  0.00  0.00    -0.520 OA
ATOM     13  C   LIG    1       -1.161   4.074   1.261  0.00  0.00    +0.060 C 
ATOM     14  O   LIG    1        1.595   4.249  -0.056  0.00  0.00    -0.450 OA
ATOM     15  N   LIG    1       -1.098   1.964  -0.008  0.00  0.00    -0.720 N 
ATOM     16  H   LIG    1       -2.007   1.625   0.007  0.00  0.00    +0.440 HD
ENDROOT
BRANCH  11  17
ATOM     17  C   LIG    1       -4.588   6.249  -1.219  0.00  0.00    +0.010 C 
ATOM     18  C   LIG    1       -3.431   6.825  -2.067  0.00  0.00    +0.100 C 
ATOM     19  C   LIG    1       -3.379   8.287  -1.680  0.00  0.00    +0.520 C 
ATOM     20  N   LIG    1       -4.516   8.641  -1.057  0.00  0.00    -0.550 N 
ATOM     21  O   LIG    1       -2.446   9.031  -1.900  0.00  0.00    -0.500 OA
ATOM     22  C   LIG    1       -5.444   7.508  -0.958  0.00  0.00    +0.320 C 
BRANCH  20  23
ATOM     23  C   LIG    1       -4.780   9.924  -0.565  0.00  0.00    +0.180 A 
ATOM     24  C   LIG    1       -3.790  10.897  -0.593  0.00  0.00    +0.010 A 
ATOM     25  C   LIG    1       -4.055  12.164  -0.112  0.00  0.00    +0.080 A 
ATOM     26  C   LIG    1       -5.302  12.461   0.408  0.00  0.00    -0.120 A 
ATOM     27  C   LIG    1       -6.289  11.492   0.443  0.00  0.00    +0.080 A 
ATOM     28 BR   LIG    1       -5.659  14.195   1.074  0.00  0.00    -0.050 Br
ATOM     29  C   LIG    1       -6.031  10.225  -0.042  0.00  0.00    -0.010 A 
ENDBRANCH  20  23
ENDBRANCH  11  17
TORSDOF 2
