REMARK  Name = ZINCvU0000000Iqv.0
REMARK                            x       y       z     vdW  Elec       q    Type
REMARK                         _______ _______ _______ _____ _____    ______ ____
ROOT
ATOM      1  C   LIG    1       -2.945   1.315  -2.031  0.00  0.00    -0.690 A 
ATOM      2  C   LIG    1       -2.422   0.354  -2.877  0.00  0.00    +0.160 A 
ATOM      3  C   LIG    1       -3.222  -0.676  -3.342  0.00  0.00    +0.010 A 
ATOM      4  C   LIG    1       -4.549  -0.743  -2.973  0.00  0.00    +0.110 A 
ATOM      5  C   LIG    1       -5.084   0.228  -2.123  0.00  0.00    -0.160 A 
ATOM      6  C   LIG    1       -4.271   1.260  -1.654  0.00  0.00    +0.200 A 
ENDROOT
BRANCH   5   7
ATOM      7  C   LIG    1       -6.506   0.163  -1.724  0.00  0.00    +0.570 C 
ATOM      8  N   LIG    1       -7.288  -0.836  -2.179  0.00  0.00    -0.670 N 
ATOM      9  H   LIG    1       -6.937  -1.474  -2.820  0.00  0.00    +0.420 HD
ATOM     10  O   LIG    1       -6.969   1.010  -0.985  0.00  0.00    -0.500 OA
BRANCH   8  11
ATOM     11  C   LIG    1       -8.609  -0.951  -1.728  0.00  0.00    +0.120 A 
ATOM     12  C   LIG    1       -9.350   0.188  -1.448  0.00  0.00    +0.080 A 
ATOM     13  C   LIG    1      -10.655   0.071  -1.008  0.00  0.00    +0.050 A 
ATOM     14  C   LIG    1      -11.220  -1.180  -0.836  0.00  0.00    -0.020 A 
ATOM     15  C   LIG    1      -10.482  -2.319  -1.109  0.00  0.00    +0.020 A 
ATOM     16 CL   LIG    1      -12.857  -1.321  -0.276  0.00  0.00    -0.050 Cl
ATOM     17  C   LIG    1       -9.178  -2.208  -1.555  0.00  0.00    +0.090 A 
ATOM     18  F   LIG    1       -8.458  -3.320  -1.821  0.00  0.00    -0.130 F 
ENDBRANCH   8  11
ENDBRANCH   5   7
BRANCH   1  19
ATOM     19  S   LIG    1       -1.916   2.618  -1.439  0.00  0.00    +2.680 S 
ATOM     20  O   LIG    1       -0.851   2.744  -2.372  0.00  0.00    -0.930 OA
ATOM     21  O   LIG    1       -2.783   3.692  -1.101  0.00  0.00    -0.930 OA
BRANCH  19  22
ATOM     22  N   LIG    1       -1.237   2.100  -0.021  0.00  0.00    -0.950 N 
BRANCH  22  23
ATOM     23  C   LIG    1       -0.015   1.423  -0.037  0.00  0.00    +0.140 A 
ATOM     24  C   LIG    1        0.011   0.035  -0.044  0.00  0.00    +0.040 A 
ATOM     25  C   LIG    1        1.221  -0.632  -0.067  0.00  0.00    +0.030 A 
ATOM     26  C   LIG    1        2.405   0.081  -0.082  0.00  0.00    +0.050 A 
ATOM     27  C   LIG    1        2.384   1.464  -0.074  0.00  0.00    +0.040 A 
ATOM     28  C   LIG    1        1.178   2.137  -0.053  0.00  0.00    -0.020 A 
ATOM     29 CL   LIG    1        1.152   3.873  -0.045  0.00  0.00    -0.050 Cl
ENDBRANCH  22  23
BRANCH  22  30
ATOM     30  C   LIG    1       -1.917   2.353   1.252  0.00  0.00    +0.330 C 
BRANCH  30  32
ATOM     31  C   LIG    1       -2.188   4.586   2.200  0.00  0.00    +0.040 C 
ATOM     32  C   LIG    1       -1.373   3.615   1.871  0.00  0.00    -0.070 C 
ENDBRANCH  30  32
ENDBRANCH  22  30
ENDBRANCH  19  22
ENDBRANCH   1  19
TORSDOF 7
