REMARK  Name = ZINCpk00000eaI63.0
REMARK                            x       y       z     vdW  Elec       q    Type
REMARK                         _______ _______ _______ _____ _____    ______ ____
ROOT
ATOM      1  C   LIG    1       -0.014   1.209   0.009  0.00  0.00    +0.520 C 
ATOM      2  N   LIG    1       -1.191   1.867   0.018  0.00  0.00    -0.620 N 
ATOM      3  C   LIG    1       -1.233   3.337   0.032  0.00  0.00    +0.300 C 
ATOM      4  C   LIG    1       -2.163   3.803  -1.099  0.00  0.00    +0.200 C 
ATOM      5  N   LIG    1       -3.468   3.143  -0.957  0.00  0.00    -0.490 N 
ATOM      6  C   LIG    1       -3.347   1.687  -1.105  0.00  0.00    +0.190 C 
ATOM      7  C   LIG    1       -2.466   1.133   0.020  0.00  0.00    +0.310 C 
ATOM      8  O   LIG    1        0.002  -0.004   0.002  0.00  0.00    -0.510 OA
ENDROOT
BRANCH   5   9
ATOM      9  C   LIG    1       -4.393   3.663  -1.865  0.00  0.00    +0.170 A 
ATOM     10  C   LIG    1       -5.050   2.818  -2.750  0.00  0.00    -0.020 A 
ATOM     11  C   LIG    1       -5.970   3.336  -3.642  0.00  0.00    +0.140 A 
ATOM     12  C   LIG    1       -6.227   4.694  -3.662  0.00  0.00    -0.070 A 
ATOM     13  C   LIG    1       -5.570   5.538  -2.786  0.00  0.00    +0.130 A 
ATOM     14  C   LIG    1       -4.655   5.027  -1.887  0.00  0.00    +0.010 A 
BRANCH  12  15
ATOM     15  N   LIG    1       -7.209   5.245  -4.623  0.00  0.00    +0.030 N 
ATOM     16  O   LIG    1       -7.788   4.502  -5.395  0.00  0.00    -0.160 OA
ATOM     17  O   LIG    1       -7.437   6.441  -4.641  0.00  0.00    -0.160 OA
ENDBRANCH  12  15
ENDBRANCH   5   9
BRANCH   1  18
ATOM     18  C   LIG    1        1.280   1.980   0.001  0.00  0.00    +0.250 C 
BRANCH  18  19
ATOM     19  O   LIG    1        2.397   1.051  -0.015  0.00  0.00    -0.330 OA
BRANCH  19  20
ATOM     20  C   LIG    1        3.630   1.581  -0.024  0.00  0.00    +0.500 C 
ATOM     21  O   LIG    1        3.772   2.781  -0.019  0.00  0.00    -0.500 OA
BRANCH  20  25
ATOM     22  C   LIG    1        6.262   2.874  -0.042  0.00  0.00    +0.070 C 
ATOM     23  C   LIG    1        6.215   1.344  -0.050  0.00  0.00    +0.010 C 
ATOM     24  C   LIG    1        5.687   0.660  -1.312  0.00  0.00    +0.070 C 
ATOM     25  C   LIG    1        4.837   0.680  -0.041  0.00  0.00    -0.030 C 
ENDBRANCH  20  25
ENDBRANCH  19  20
ENDBRANCH  18  19
ENDBRANCH   1  18
TORSDOF 6
