REMARK  Name = ZINCpk000000oXsR.0
REMARK                            x       y       z     vdW  Elec       q    Type
REMARK                         _______ _______ _______ _____ _____    ______ ____
ROOT
ATOM      1  N   LIG    1       -5.856   1.271   1.402  0.00  0.00    -0.620 N 
ATOM      2  H   LIG    1       -5.686   2.209   1.221  0.00  0.00    +0.420 HD
ATOM      3  C   LIG    1       -5.144   0.322   0.762  0.00  0.00    +0.610 C 
ATOM      4  O   LIG    1       -5.357  -0.853   0.988  0.00  0.00    -0.470 OA
ENDROOT
BRANCH   3   5
ATOM      5  C   LIG    1       -4.107   0.710  -0.211  0.00  0.00    -0.290 A 
ATOM      6  C   LIG    1       -2.779   0.944   0.058  0.00  0.00    +0.140 A 
ATOM      7  C   LIG    1       -2.080   0.863   1.392  0.00  0.00    +0.120 C 
ATOM      8  C   LIG    1       -0.729   1.579   1.269  0.00  0.00    +0.030 C 
ATOM      9  C   LIG    1       -0.013   1.086   0.008  0.00  0.00    +0.040 C 
ATOM     10  C   LIG    1       -0.753   1.593  -1.234  0.00  0.00    +0.260 C 
ATOM     11  C   LIG    1       -0.188   0.912  -2.482  0.00  0.00    +0.050 C 
ATOM     12  N   LIG    1       -2.178   1.270  -1.101  0.00  0.00    -0.350 N 
ATOM     13  N   LIG    1       -3.136   1.243  -2.116  0.00  0.00    -0.290 NA
ATOM     14  C   LIG    1       -4.289   0.911  -1.600  0.00  0.00    +0.110 A 
ATOM     15  C   LIG    1       -5.587   0.767  -2.352  0.00  0.00    +0.160 C 
ENDBRANCH   3   5
BRANCH   1  19
ATOM     16  N   LIG    1       -8.437   0.945   3.808  0.00  0.00    -0.380 N 
ATOM     17  C   LIG    1       -8.124  -0.336   3.548  0.00  0.00    +0.510 A 
ATOM     18  N   LIG    1       -7.165  -0.349   2.658  0.00  0.00    -0.510 NA
ATOM     19  C   LIG    1       -6.840   0.904   2.325  0.00  0.00    +0.450 A 
ATOM     20  N   LIG    1       -7.591   1.732   3.010  0.00  0.00    -0.320 NA
BRANCH  16  21
ATOM     21  C   LIG    1       -9.456   1.425   4.745  0.00  0.00    +0.430 C 
BRANCH  21  22
ATOM     22  C   LIG    1       -8.827   2.381   5.726  0.00  0.00    +0.450 C 
ATOM     23  O   LIG    1       -7.648   2.634   5.650  0.00  0.00    -0.480 OA
BRANCH  22  24
ATOM     24  O   LIG    1       -9.576   2.950   6.683  0.00  0.00    -0.360 OA
BRANCH  24  26
ATOM     25  C   LIG    1       -9.911   4.405   8.606  0.00  0.00    +0.070 C 
ATOM     26  C   LIG    1       -8.903   3.860   7.593  0.00  0.00    +0.200 C 
ENDBRANCH  24  26
ENDBRANCH  22  24
ENDBRANCH  21  22
ENDBRANCH  16  21
ENDBRANCH   1  19
TORSDOF 6
