REMARK  Name = ZINCrD0000075jJL.0
REMARK                            x       y       z     vdW  Elec       q    Type
REMARK                         _______ _______ _______ _____ _____    ______ ____
ROOT
ATOM      1  C   LIG    1        1.191   3.088  -2.173  0.00  0.00    -0.140 A 
ATOM      2  C   LIG    1        1.786   3.678  -3.277  0.00  0.00    +0.160 A 
ATOM      3  C   LIG    1        1.007   3.967  -4.397  0.00  0.00    -0.180 A 
ATOM      4  C   LIG    1        1.189   4.531  -5.662  0.00  0.00    +0.060 A 
ATOM      5  O   LIG    1       -0.018   4.503  -6.249  0.00  0.00    +0.150 OA
ATOM      6  N   LIG    1       -0.884   4.021  -5.555  0.00  0.00    -0.360 NA
ATOM      7  C   LIG    1       -0.434   3.638  -4.383  0.00  0.00    +0.060 A 
ATOM      8  C   LIG    1       -0.981   3.037  -3.228  0.00  0.00    +0.050 A 
ATOM      9  C   LIG    1       -0.184   2.771  -2.167  0.00  0.00    +0.080 A 
ENDROOT
BRANCH   1  16
ATOM     10  C   LIG    1        2.418   1.481   1.048  0.00  0.00    +0.250 C 
ATOM     11  C   LIG    1        2.985   0.058   1.038  0.00  0.00    +0.020 C 
ATOM     12  C   LIG    1        1.855  -0.936   0.758  0.00  0.00    +0.020 C 
ATOM     13  C   LIG    1        1.250  -0.647  -0.618  0.00  0.00    +0.010 C 
ATOM     14  C   LIG    1        0.663   0.767  -0.627  0.00  0.00    +0.270 C 
ATOM     15  N   LIG    1        1.708   1.716  -0.217  0.00  0.00    -0.590 N 
ATOM     16  C   LIG    1        2.010   2.780  -0.986  0.00  0.00    +0.580 C 
ATOM     17  O   LIG    1        2.958   3.487  -0.702  0.00  0.00    -0.540 OA
BRANCH  10  18
ATOM     18  C   LIG    1        3.561   2.488   1.189  0.00  0.00    +0.070 C 
BRANCH  18  22
ATOM     19  N   LIG    1        3.822   4.901   1.664  0.00  0.00    -0.860 N 
ATOM     20  H   LIG    1        3.458   5.778   1.862  0.00  0.00    +0.400 HD
ATOM     21  H   LIG    1        4.782   4.781   1.587  0.00  0.00    +0.400 HD
ATOM     22  C   LIG    1        2.995   3.850   1.497  0.00  0.00    +0.550 C 
ATOM     23  O   LIG    1        1.796   4.001   1.594  0.00  0.00    -0.570 OA
ENDBRANCH  18  22
ENDBRANCH  10  18
ENDBRANCH   1  16
BRANCH   4  24
ATOM     24  C   LIG    1        2.445   5.049  -6.232  0.00  0.00    -0.040 A 
ATOM     25  C   LIG    1        3.266   5.890  -5.476  0.00  0.00    +0.050 A 
ATOM     26  C   LIG    1        4.442   6.367  -6.015  0.00  0.00    +0.010 A 
ATOM     27  C   LIG    1        4.805   6.023  -7.306  0.00  0.00    +0.030 A 
ATOM     28  C   LIG    1        3.995   5.195  -8.063  0.00  0.00    +0.010 A 
ATOM     29  C   LIG    1        2.818   4.706  -7.535  0.00  0.00    +0.050 A 
ENDBRANCH   4  24
TORSDOF 4
