REMARK  Name = ZINCrH000004otl5.0
REMARK                            x       y       z     vdW  Elec       q    Type
REMARK                         _______ _______ _______ _____ _____    ______ ____
ROOT
ATOM      1  C   LIG    1        0.522  -1.756   3.418  0.00  0.00    +0.070 C 
ENDROOT
BRANCH   1   3
ATOM      2  N   LIG    1        0.626  -0.434   1.329  0.00  0.00    -0.610 N 
ATOM      3  C   LIG    1       -0.048  -1.315   2.094  0.00  0.00    +0.520 C 
ATOM      4  O   LIG    1       -1.114  -1.754   1.717  0.00  0.00    -0.540 OA
ATOM      5  C   LIG    1        1.914   0.096   1.785  0.00  0.00    +0.280 C 
BRANCH   2   7
ATOM      6  C   LIG    1       -0.016   1.521   0.008  0.00  0.00    +0.040 C 
ATOM      7  C   LIG    1        0.072  -0.006   0.043  0.00  0.00    +0.300 C 
BRANCH   7   8
ATOM      8  C   LIG    1        0.966  -0.483  -1.073  0.00  0.00    -0.110 A 
ATOM      9  C   LIG    1        1.057   0.246  -2.244  0.00  0.00    +0.060 A 
ATOM     10  C   LIG    1        1.881  -0.188  -3.266  0.00  0.00    -0.010 A 
ATOM     11  C   LIG    1        2.606  -1.358  -3.120  0.00  0.00    +0.100 A 
ATOM     12  C   LIG    1        2.509  -2.090  -1.949  0.00  0.00    -0.010 A 
ATOM     13  F   LIG    1        3.407  -1.786  -4.120  0.00  0.00    -0.140 F 
ATOM     14  C   LIG    1        1.689  -1.652  -0.927  0.00  0.00    +0.060 A 
ENDBRANCH   7   8
ENDBRANCH   2   7
ENDBRANCH   1   3
BRANCH   1  15
ATOM     15  C   LIG    1       -0.434  -2.751   4.079  0.00  0.00    +0.070 C 
BRANCH  15  16
ATOM     16  C   LIG    1        0.137  -3.191   5.403  0.00  0.00    +0.400 C 
ATOM     17  O   LIG    1        1.203  -2.752   5.780  0.00  0.00    -0.450 OA
BRANCH  16  18
ATOM     18  C   LIG    1       -0.599  -4.151   6.236  0.00  0.00    -0.170 A 
ATOM     19  C   LIG    1       -1.832  -4.655   5.806  0.00  0.00    +0.090 A 
ATOM     20  C   LIG    1       -2.516  -5.558   6.588  0.00  0.00    +0.010 A 
ATOM     21  C   LIG    1       -1.992  -5.965   7.811  0.00  0.00    +0.090 A 
ATOM     22  O   LIG    1       -2.691  -6.850   8.570  0.00  0.00    -0.300 OA
ATOM     23  C   LIG    1       -1.966  -7.523   9.605  0.00  0.00    +0.230 C 
ATOM     24  C   LIG    1       -1.136  -6.480  10.366  0.00  0.00    +0.230 C 
ATOM     25  O   LIG    1       -0.239  -5.858   9.439  0.00  0.00    -0.300 OA
ATOM     26  C   LIG    1       -0.766  -5.465   8.248  0.00  0.00    +0.040 A 
ATOM     27  C   LIG    1       -0.071  -4.562   7.466  0.00  0.00    +0.100 A 
ENDBRANCH  16  18
ENDBRANCH  15  16
ENDBRANCH   1  15
TORSDOF 6
