REMARK  Name = ZINCb70000002hej.0
REMARK                            x       y       z     vdW  Elec       q    Type
REMARK                         _______ _______ _______ _____ _____    ______ ____
ROOT
ATOM      1  C   LIG    1       -1.423   3.605  -0.008  0.00  0.00    +0.080 C 
ATOM      2  C   LIG    1       -0.682   3.038  -1.221  0.00  0.00    +0.260 C 
ATOM      3  N   LIG    1       -0.722   1.572  -1.182  0.00  0.00    -0.500 N 
ATOM      4  C   LIG    1       -0.013   1.086   0.008  0.00  0.00    +0.260 C 
ATOM      5  C   LIG    1       -0.728   1.579   1.267  0.00  0.00    +0.060 C 
ATOM      6  C   LIG    1        0.012   1.071   2.508  0.00  0.00    +0.240 C 
ATOM      7  O   LIG    1       -0.071  -0.356   2.552  0.00  0.00    -0.370 OA
ATOM      8  C   LIG    1       -1.413  -0.852   2.567  0.00  0.00    +0.210 C 
ATOM      9  C   LIG    1       -2.151  -0.345   1.325  0.00  0.00    +0.190 C 
ATOM     10  O   LIG    1       -2.069   1.083   1.280  0.00  0.00    -0.360 OA
ATOM     11  H   LIG    1       -1.682   1.264  -1.149  0.00  0.00    +0.430 HD
ATOM     12  H   LIG    1       -0.279   1.202  -2.010  0.00  0.00    +0.430 HD
ATOM     13  C   LIG    1       -0.748   3.109   1.274  0.00  0.00    +0.090 C 
ENDROOT
TORSDOF 0
