REMARK  Name = ZINCvU0000000HhR.0
REMARK                            x       y       z     vdW  Elec       q    Type
REMARK                         _______ _______ _______ _____ _____    ______ ____
ROOT
ATOM      1  C   LIG    1       -2.315  -2.858  -0.921  0.00  0.00    +0.090 C 
ATOM      2  C   LIG    1       -1.107  -2.100  -0.435  0.00  0.00    -0.070 A 
ATOM      3  C   LIG    1       -1.056  -0.725  -0.565  0.00  0.00    +0.020 A 
ATOM      4  C   LIG    1        0.051  -0.025  -0.119  0.00  0.00    -0.090 A 
ATOM      5  C   LIG    1        1.111  -0.700   0.452  0.00  0.00    +0.040 A 
ATOM      6  C   LIG    1        1.061  -2.081   0.589  0.00  0.00    +0.170 A 
ATOM      7  C   LIG    1       -0.052  -2.780   0.141  0.00  0.00    -0.010 A 
ENDROOT
BRANCH   6   8
ATOM      8  N   LIG    1        2.132  -2.767   1.173  0.00  0.00    -0.680 N 
ATOM      9  H   LIG    1        2.360  -3.659   0.869  0.00  0.00    +0.410 HD
ATOM     10  C   LIG    1        2.846  -2.188   2.158  0.00  0.00    +0.700 C 
ATOM     11  N   LIG    1        3.940  -2.804   2.649  0.00  0.00    -0.680 N 
ATOM     12  H   LIG    1        4.251  -3.631   2.249  0.00  0.00    +0.410 HD
ATOM     13  O   LIG    1        2.505  -1.109   2.604  0.00  0.00    -0.550 OA
BRANCH  11  14
ATOM     14  C   LIG    1        4.625  -2.251   3.736  0.00  0.00    +0.170 A 
ATOM     15  C   LIG    1        4.735  -0.871   3.857  0.00  0.00    +0.040 A 
ATOM     16  C   LIG    1        5.405  -0.322   4.929  0.00  0.00    +0.050 A 
ATOM     17  C   LIG    1        5.984  -1.155   5.889  0.00  0.00    -0.030 A 
ATOM     18  C   LIG    1        5.877  -2.542   5.761  0.00  0.00    +0.050 A 
ATOM     19  C   LIG    1        5.200  -3.083   4.689  0.00  0.00    -0.010 A 
BRANCH  17  20
ATOM     20  C   LIG    1        6.709  -0.571   7.036  0.00  0.00    +0.030 A 
ATOM     21  C   LIG    1        6.886   0.755   7.277  0.00  0.00    -0.040 A 
ATOM     22  C   LIG    1        7.629   0.856   8.470  0.00  0.00    -0.060 A 
ATOM     23  C   LIG    1        7.866  -0.401   8.894  0.00  0.00    +0.180 A 
ATOM     24  O   LIG    1        7.305  -1.260   8.028  0.00  0.00    -0.170 OA
ENDBRANCH  17  20
ENDBRANCH  11  14
ENDBRANCH   6   8
BRANCH   4  25
ATOM     25  C   LIG    1        0.102   1.474  -0.264  0.00  0.00    +0.340 C 
BRANCH  25  26
ATOM     26  N   LIG    1       -0.470   2.099   0.932  0.00  0.00    -0.710 N 
ATOM     27  H   LIG    1       -0.805   1.547   1.655  0.00  0.00    +0.410 HD
ATOM     28  C   LIG    1       -0.529   3.442   1.026  0.00  0.00    +0.650 C 
ATOM     29  O   LIG    1       -0.110   4.135   0.121  0.00  0.00    -0.570 OA
BRANCH  28  30
ATOM     30  O   LIG    1       -1.055   4.017   2.125  0.00  0.00    -0.360 OA
BRANCH  30  31
ATOM     31  C   LIG    1       -1.087   5.468   2.159  0.00  0.00    +0.140 C 
ATOM     32  C   LIG    1        0.339   6.012   2.052  0.00  0.00    +0.040 C 
ATOM     33  C   LIG    1       -1.713   5.934   3.474  0.00  0.00    +0.080 C 
ATOM     34  C   LIG    1       -1.920   5.987   0.985  0.00  0.00    +0.040 C 
ENDBRANCH  30  31
ENDBRANCH  28  30
ENDBRANCH  25  26
ENDBRANCH   4  25
TORSDOF 7
