REMARK  Name = ZINCvU0000000GxI.0
REMARK                            x       y       z     vdW  Elec       q    Type
REMARK                         _______ _______ _______ _____ _____    ______ ____
ROOT
ATOM      1  S   LIG    1       -5.085   6.143   0.507  0.00  0.00    +0.100 S 
ENDROOT
BRANCH   1   2
ATOM      2  C   LIG    1       -3.442   5.561   0.254  0.00  0.00    +0.150 A 
ATOM      3  N   LIG    1       -2.402   6.289  -0.088  0.00  0.00    -0.290 NA
ATOM      4  N   LIG    1       -1.357   5.548  -0.187  0.00  0.00    -0.250 NA
ATOM      5  C   LIG    1       -1.664   4.299   0.086  0.00  0.00    +0.260 A 
ATOM      6  N   LIG    1       -3.012   4.269   0.371  0.00  0.00    -0.450 N 
BRANCH   6   7
ATOM      7  C   LIG    1       -3.816   3.098   0.728  0.00  0.00    +0.250 C 
ATOM      8  C   LIG    1       -4.932   2.913  -0.302  0.00  0.00    +0.020 C 
ATOM      9  C   LIG    1       -5.772   1.689   0.071  0.00  0.00    +0.040 C 
ATOM     10  C   LIG    1       -6.386   1.895   1.457  0.00  0.00    +0.010 C 
ATOM     11  C   LIG    1       -5.269   2.080   2.487  0.00  0.00    +0.040 C 
ATOM     12  C   LIG    1       -4.430   3.303   2.114  0.00  0.00    +0.020 C 
ENDBRANCH   6   7
BRANCH   5  13
ATOM     13  C   LIG    1       -0.746   3.150   0.081  0.00  0.00    +0.040 A 
ATOM     14  C   LIG    1        0.616   3.214   0.077  0.00  0.00    +0.030 A 
ATOM     15  C   LIG    1        1.084   1.886   0.073  0.00  0.00    -0.050 A 
ATOM     16  C   LIG    1        0.000   1.084   0.075  0.00  0.00    +0.200 A 
ATOM     17  O   LIG    1       -1.103   1.851   0.074  0.00  0.00    -0.180 OA
ENDBRANCH   5  13
ENDBRANCH   1   2
BRANCH   1  18
ATOM     18  C   LIG    1       -4.852   7.905   0.165  0.00  0.00    +0.100 C 
BRANCH  18  20
ATOM     19  O   LIG    1       -7.162   8.009   0.639  0.00  0.00    -0.500 OA
ATOM     20  C   LIG    1       -6.165   8.626   0.325  0.00  0.00    +0.540 C 
ATOM     21  N   LIG    1       -6.233   9.956   0.119  0.00  0.00    -0.660 N 
ATOM     22  H   LIG    1       -5.426  10.460  -0.068  0.00  0.00    +0.420 HD
BRANCH  21  23
ATOM     23  C   LIG    1       -7.466  10.609   0.174  0.00  0.00    +0.140 A 
ATOM     24  C   LIG    1       -8.435  10.192   1.060  0.00  0.00    +0.020 A 
ATOM     25  C   LIG    1       -9.667  10.836   1.124  0.00  0.00    +0.030 A 
ATOM     26  C   LIG    1       -9.950  11.893   0.314  0.00  0.00    +0.010 A 
ATOM     27  C   LIG    1       -8.989  12.351  -0.604  0.00  0.00    -0.040 A 
ATOM     28  C   LIG    1       -9.253  13.440  -1.452  0.00  0.00    +0.030 A 
ATOM     29  C   LIG    1       -8.300  13.856  -2.330  0.00  0.00    +0.020 A 
ATOM     30  C   LIG    1       -7.063  13.218  -2.402  0.00  0.00    +0.020 A 
ATOM     31  C   LIG    1       -6.773  12.160  -1.596  0.00  0.00    +0.010 A 
ATOM     32  C   LIG    1       -7.729  11.707  -0.674  0.00  0.00    -0.060 A 
ENDBRANCH  21  23
ENDBRANCH  18  20
ENDBRANCH   1  18
TORSDOF 6
