REMARK  Name = ZINCnE000005ui9m.0
REMARK                            x       y       z     vdW  Elec       q    Type
REMARK                         _______ _______ _______ _____ _____    ______ ____
ROOT
ATOM      1  N   LIG    1       -0.611   1.249  -0.901  0.00  0.00    -0.510 NA
ATOM      2  C   LIG    1        0.263   0.765   0.175  0.00  0.00    +0.140 C 
ATOM      3  C   LIG    1       -0.400   1.030   1.529  0.00  0.00    -0.000 C 
ATOM      4  C   LIG    1       -1.750   0.310   1.581  0.00  0.00    +0.160 C 
ATOM      5  C   LIG    1       -2.623   0.796   0.420  0.00  0.00    +0.020 C 
ATOM      6  C   LIG    1       -1.896   0.538  -0.901  0.00  0.00    +0.190 C 
ENDROOT
BRANCH   5   7
ATOM      7  C   LIG    1       -3.953   0.039   0.428  0.00  0.00    -0.010 C 
ATOM      8  C   LIG    1       -3.701  -1.472   0.244  0.00  0.00    +0.010 C 
ATOM      9  C   LIG    1       -4.880  -1.948  -0.642  0.00  0.00    +0.000 C 
ATOM     10  C   LIG    1       -5.069  -0.765  -1.624  0.00  0.00    +0.010 C 
ATOM     11  C   LIG    1       -4.822   0.488  -0.759  0.00  0.00    +0.010 C 
ENDBRANCH   5   7
BRANCH   4  12
ATOM     12  O   LIG    1       -2.399   0.599   2.820  0.00  0.00    -0.560 OA
ATOM     13  H   LIG    1       -1.901   0.318   3.600  0.00  0.00    +0.370 HD
ENDBRANCH   4  12
BRANCH   1  14
ATOM     14  C   LIG    1        0.052   1.138  -2.207  0.00  0.00    +0.090 C 
BRANCH  14  15
ATOM     15  C   LIG    1        1.299   1.984  -2.211  0.00  0.00    -0.010 A 
ATOM     16  C   LIG    1        1.382   3.096  -1.395  0.00  0.00    +0.050 A 
ATOM     17  C   LIG    1        2.527   3.872  -1.398  0.00  0.00    +0.000 A 
ATOM     18  C   LIG    1        3.588   3.535  -2.217  0.00  0.00    -0.010 A 
ATOM     19  C   LIG    1        3.506   2.423  -3.034  0.00  0.00    +0.020 A 
ATOM     20  C   LIG    1        2.364   1.643  -3.026  0.00  0.00    -0.090 A 
ATOM     21 BR   LIG    1        2.253   0.117  -4.138  0.00  0.00    -0.040 Br
ENDBRANCH  14  15
BRANCH  14  23
ATOM     22  O   LIG    1       -1.738   2.447  -3.030  0.00  0.00    -0.670 OA
ATOM     23  C   LIG    1       -0.883   1.617  -3.288  0.00  0.00    +0.510 C 
ATOM     24  O   LIG    1       -0.784   1.175  -4.420  0.00  0.00    -0.680 OA
ENDBRANCH  14  23
ENDBRANCH   1  14
TORSDOF 5
