REMARK  Name = ZINCrg00000N62tj.0
REMARK                            x       y       z     vdW  Elec       q    Type
REMARK                         _______ _______ _______ _____ _____    ______ ____
ROOT
ATOM      1  C   LIG    1       -0.891  -4.060  -1.683  0.00  0.00    +0.170 C 
ATOM      2  C   LIG    1       -0.172  -2.740  -1.298  0.00  0.00    +0.080 C 
ATOM      3  C   LIG    1       -0.914  -2.302  -0.018  0.00  0.00    +0.240 C 
ATOM      4  N   LIG    1       -2.232  -2.953  -0.033  0.00  0.00    -0.600 N 
ATOM      5  C   LIG    1       -3.175  -2.840   0.923  0.00  0.00    +0.550 C 
ATOM      6  O   LIG    1       -2.967  -2.153   1.901  0.00  0.00    -0.510 OA
ATOM      7  C   LIG    1       -2.351  -3.751  -1.268  0.00  0.00    +0.250 C 
ENDROOT
BRANCH   3   8
ATOM      8  C   LIG    1       -1.082  -0.804  -0.011  0.00  0.00    +0.520 C 
ATOM      9  N   LIG    1        0.002  -0.004   0.002  0.00  0.00    -0.620 N 
ATOM     10  C   LIG    1       -0.018   1.466   0.010  0.00  0.00    +0.250 C 
ATOM     11  C   LIG    1        1.449   1.944  -0.001  0.00  0.00    +0.030 C 
ATOM     12  C   LIG    1        2.208   0.724  -0.586  0.00  0.00    +0.040 C 
ATOM     13  C   LIG    1        1.405  -0.458   0.012  0.00  0.00    +0.240 C 
ATOM     14  O   LIG    1       -2.194  -0.319  -0.018  0.00  0.00    -0.520 OA
ENDBRANCH   3   8
BRANCH   5  15
ATOM     15  C   LIG    1       -4.487  -3.567   0.778  0.00  0.00    +0.000 C 
ATOM     16  C   LIG    1       -4.276  -5.099   0.798  0.00  0.00    +0.070 C 
ATOM     17  C   LIG    1       -5.474  -5.628   1.555  0.00  0.00    +0.520 C 
ATOM     18  N   LIG    1       -6.074  -4.630   2.227  0.00  0.00    -0.610 N 
ATOM     19  O   LIG    1       -5.840  -6.784   1.556  0.00  0.00    -0.520 OA
ATOM     20  C   LIG    1       -5.377  -3.354   2.022  0.00  0.00    +0.300 C 
BRANCH  18  21
ATOM     21  C   LIG    1       -7.271  -4.795   3.056  0.00  0.00    +0.240 C 
ATOM     22  C   LIG    1       -7.007  -5.836   4.163  0.00  0.00    +0.010 C 
ATOM     23  C   LIG    1       -8.350  -6.599   4.292  0.00  0.00    +0.020 C 
ATOM     24  C   LIG    1       -8.833  -6.694   2.824  0.00  0.00    +0.010 C 
ATOM     25  C   LIG    1       -8.431  -5.340   2.205  0.00  0.00    +0.010 C 
ENDBRANCH  18  21
ENDBRANCH   5  15
BRANCH   1  27
ATOM     26  C   LIG    1       -0.940  -5.680  -3.448  0.00  0.00    +0.220 C 
ATOM     27  O   LIG    1       -0.799  -4.305  -3.087  0.00  0.00    -0.370 OA
ENDBRANCH   1  27
TORSDOF 4
