REMARK  Name = ZINCvU0000000EN2.0
REMARK                            x       y       z     vdW  Elec       q    Type
REMARK                         _______ _______ _______ _____ _____    ______ ____
ROOT
ATOM      1  C   LIG    1        4.921  -7.394  -0.656  0.00  0.00    -0.090 C 
ATOM      2  C   LIG    1        3.864  -6.549  -0.525  0.00  0.00    +0.140 C 
ATOM      3  N   LIG    1        2.582  -7.047  -0.496  0.00  0.00    -0.640 N 
ATOM      4  H   LIG    1        1.834  -6.461  -0.691  0.00  0.00    +0.420 HD
ATOM      5  C   LIG    1        2.353  -8.362  -0.195  0.00  0.00    +0.220 C 
ATOM      6  C   LIG    1        3.342  -9.275  -0.298  0.00  0.00    -0.260 C 
ATOM      7  C   LIG    1        3.120 -10.624   0.026  0.00  0.00    +0.400 C 
ATOM      8  C   LIG    1        1.777 -11.101   0.508  0.00  0.00    +0.030 C 
ATOM      9  C   LIG    1        1.064  -9.946   1.219  0.00  0.00    +0.060 C 
ATOM     10  O   LIG    1        4.030 -11.422  -0.087  0.00  0.00    -0.460 OA
ATOM     11  C   LIG    1        0.969  -8.765   0.250  0.00  0.00    +0.090 C 
ATOM     12  C   LIG    1        4.719  -8.876  -0.768  0.00  0.00    +0.190 C 
ENDROOT
BRANCH  12  13
ATOM     13  C   LIG    1        4.887  -9.285  -2.208  0.00  0.00    -0.070 A 
ATOM     14  C   LIG    1        4.035  -8.781  -3.174  0.00  0.00    +0.030 A 
ATOM     15  C   LIG    1        4.191  -9.152  -4.496  0.00  0.00    +0.020 A 
ATOM     16  C   LIG    1        5.194 -10.036  -4.852  0.00  0.00    -0.030 A 
ATOM     17  C   LIG    1        6.043 -10.544  -3.885  0.00  0.00    +0.020 A 
ATOM     18 CL   LIG    1        5.387 -10.508  -6.511  0.00  0.00    -0.070 Cl
ATOM     19  C   LIG    1        5.889 -10.168  -2.564  0.00  0.00    +0.040 A 
ENDBRANCH  12  13
BRANCH   1  21
ATOM     20  N   LIG    1        7.304  -6.437  -0.705  0.00  0.00    -0.400 NA
ATOM     21  C   LIG    1        6.250  -6.860  -0.683  0.00  0.00    +0.250 C 
ENDBRANCH   1  21
BRANCH   2  22
ATOM     22  S   LIG    1        4.135  -4.812  -0.399  0.00  0.00    +0.050 S 
BRANCH  22  23
ATOM     23  C   LIG    1        2.425  -4.236  -0.260  0.00  0.00    +0.080 C 
BRANCH  23  24
ATOM     24  C   LIG    1        2.410  -2.734  -0.138  0.00  0.00    +0.530 C 
ATOM     25  N   LIG    1        1.237  -2.079  -0.021  0.00  0.00    -0.670 N 
ATOM     26  H   LIG    1        0.409  -2.578   0.061  0.00  0.00    +0.410 HD
ATOM     27  O   LIG    1        3.452  -2.114  -0.144  0.00  0.00    -0.490 OA
BRANCH  25  28
ATOM     28  C   LIG    1        1.214  -0.680  -0.019  0.00  0.00    +0.140 A 
ATOM     29  C   LIG    1        2.137   0.032  -0.773  0.00  0.00    +0.010 A 
ATOM     30  C   LIG    1        2.112   1.413  -0.768  0.00  0.00    +0.030 A 
ATOM     31  C   LIG    1        1.169   2.086  -0.013  0.00  0.00    +0.000 A 
ATOM     32  C   LIG    1        0.249   1.380   0.739  0.00  0.00    +0.030 A 
ATOM     33  C   LIG    1        0.269  -0.001   0.738  0.00  0.00    -0.010 A 
ENDBRANCH  25  28
ENDBRANCH  23  24
ENDBRANCH  22  23
ENDBRANCH   2  22
TORSDOF 6
