REMARK  Name = ZINCrD00000F5Lx8.0
REMARK                            x       y       z     vdW  Elec       q    Type
REMARK                         _______ _______ _______ _____ _____    ______ ____
ROOT
ATOM      1  C   LIG    1       -0.068   4.165   0.005  0.00  0.00    -0.020 A 
ATOM      2  C   LIG    1        1.150   3.487  -0.001  0.00  0.00    +0.070 A 
ATOM      3  C   LIG    1        1.171   2.108  -0.002  0.00  0.00    -0.010 A 
ATOM      4  C   LIG    1       -0.021   1.395   0.003  0.00  0.00    +0.140 A 
ATOM      5  C   LIG    1       -1.237   2.068   0.004  0.00  0.00    +0.020 A 
ATOM      6  C   LIG    1       -1.263   3.446   0.011  0.00  0.00    +0.040 A 
ENDROOT
BRANCH   1  12
ATOM      7  C   LIG    1        1.338  11.419   0.002  0.00  0.00    +0.120 C 
ATOM      8  C   LIG    1        0.598  10.106   0.005  0.00  0.00    -0.070 A 
ATOM      9  C   LIG    1        1.288   8.934   0.001  0.00  0.00    +0.060 A 
ATOM     10  C   LIG    1        0.579   7.715   0.003  0.00  0.00    +0.230 A 
ATOM     11  N   LIG    1        0.981   6.453   0.006  0.00  0.00    -0.480 NA
ATOM     12  C   LIG    1       -0.093   5.648   0.005  0.00  0.00    +0.100 A 
ATOM     13  C   LIG    1       -1.211   6.428   0.011  0.00  0.00    +0.100 A 
ATOM     14  N   LIG    1       -0.793   7.729   0.010  0.00  0.00    -0.360 N 
ATOM     15  C   LIG    1       -1.472   8.913   0.014  0.00  0.00    +0.230 A 
ATOM     16  C   LIG    1       -0.806  10.088   0.011  0.00  0.00    +0.010 A 
ENDBRANCH   1  12
BRANCH   4  17
ATOM     17  N   LIG    1        0.002  -0.004   0.002  0.00  0.00    -0.660 N 
ATOM     18  H   LIG    1        0.695  -0.477  -0.484  0.00  0.00    +0.420 HD
ATOM     19  C   LIG    1       -0.938  -0.695   0.677  0.00  0.00    +0.540 C 
ATOM     20  O   LIG    1       -1.853  -0.107   1.215  0.00  0.00    -0.490 OA
BRANCH  19  21
ATOM     21  C   LIG    1       -0.854  -2.197   0.762  0.00  0.00    +0.100 C 
ATOM     22  O   LIG    1        0.422  -2.681   1.284  0.00  0.00    -0.310 OA
ATOM     23  C   LIG    1       -0.268  -3.618   1.973  0.00  0.00    +0.510 C 
ATOM     24  O   LIG    1        0.007  -4.716   2.395  0.00  0.00    -0.420 OA
ATOM     25  C   LIG    1       -1.289  -2.890  -0.530  0.00  0.00    +0.110 C 
ATOM     26  C   LIG    1       -1.505  -2.772   2.012  0.00  0.00    -0.240 C 
ATOM     27  C   LIG    1       -2.948  -3.129   2.309  0.00  0.00    +0.100 C 
ATOM     28  C   LIG    1       -2.213  -2.094   3.168  0.00  0.00    +0.140 C 
ENDBRANCH  19  21
ENDBRANCH   4  17
TORSDOF 3
