REMARK  Name = ZINC650000004SXc.0
REMARK                            x       y       z     vdW  Elec       q    Type
REMARK                         _______ _______ _______ _____ _____    ______ ____
ROOT
ATOM      1  O   LIG    1        0.002  -0.004   0.002  0.00  0.00    -1.040 OA
ATOM      2  S   LIG    1       -0.018   1.450   0.010  0.00  0.00    +2.640 S 
ATOM      3  O   LIG    1       -0.752   1.947  -1.143  0.00  0.00    -1.040 OA
ATOM      4  O   LIG    1        1.341   1.970  -0.000  0.00  0.00    -1.050 OA
ENDROOT
BRANCH   2   5
ATOM      5  C   LIG    1       -0.848   2.016   1.520  0.00  0.00    -0.350 C 
ATOM      6 CL   LIG    1       -2.484   1.264   1.624  0.00  0.00    -0.150 Cl
ENDBRANCH   2   5
TORSDOF 1
