REMARK  Name = ZINCc70000005lWZ.0
REMARK                            x       y       z     vdW  Elec       q    Type
REMARK                         _______ _______ _______ _____ _____    ______ ____
ROOT
ATOM      1  N   LIG    1        1.303  -0.420  -0.543  0.00  0.00    -1.010 NA
ATOM      2  C   LIG    1        0.002  -0.004   0.002  0.00  0.00    +0.270 C 
ATOM      3  C   LIG    1       -0.019   1.539   0.011  0.00  0.00    +0.030 C 
ATOM      4  C   LIG    1        1.488   1.907  -0.002  0.00  0.00    +0.170 C 
ATOM      5  C   LIG    1        2.075   0.785  -0.895  0.00  0.00    +0.300 C 
ENDROOT
BRANCH   1   6
ATOM      6  S   LIG    1        1.815  -1.984  -0.730  0.00  0.00    +2.700 S 
ATOM      7  O   LIG    1        1.069  -2.764   0.195  0.00  0.00    -0.950 OA
ATOM      8  O   LIG    1        3.236  -1.941  -0.743  0.00  0.00    -0.960 OA
BRANCH   6  10
ATOM      9  C   LIG    1        2.223  -2.793  -3.241  0.00  0.00    +0.230 C 
ATOM     10  C   LIG    1        1.319  -2.507  -2.337  0.00  0.00    -0.590 C 
ENDBRANCH   6  10
ENDBRANCH   1   6
BRANCH   4  11
ATOM     11  O   LIG    1        2.039   1.854   1.315  0.00  0.00    -0.370 OA
ATOM     12  C   LIG    1        1.988   3.097   2.018  0.00  0.00    +0.200 C 
ENDBRANCH   4  11
TORSDOF 3
