REMARK  Name = ZINCb700000010b2.1
REMARK                            x       y       z     vdW  Elec       q    Type
REMARK                         _______ _______ _______ _____ _____    ______ ____
ROOT
ATOM      1  C   LIG    1       -2.380   1.300   3.009  0.00  0.00    +0.180 C 
ATOM      2  C   LIG    1       -3.087   2.630   2.689  0.00  0.00    +0.190 C 
ATOM      3  S   LIG    1       -4.834   2.312   3.160  0.00  0.00    -0.140 S 
ATOM      4  C   LIG    1       -4.448   0.852   4.214  0.00  0.00    +0.370 C 
ATOM      5  N   LIG    1       -3.306   0.258   3.465  0.00  0.00    -0.500 N 
ATOM      6  H   LIG    1       -2.812  -0.383   4.067  0.00  0.00    +0.440 HD
ATOM      7  H   LIG    1       -3.659  -0.245   2.665  0.00  0.00    +0.440 HD
ENDROOT
BRANCH   1   9
ATOM      8  N   LIG    1       -0.698   1.558   1.213  0.00  0.00    -0.580 N 
ATOM      9  C   LIG    1       -1.675   0.814   1.769  0.00  0.00    +0.510 C 
ATOM     10  O   LIG    1       -1.986  -0.248   1.271  0.00  0.00    -0.520 OA
ATOM     11  C   LIG    1       -0.323   2.840   1.815  0.00  0.00    +0.310 C 
BRANCH   8  13
ATOM     12  C   LIG    1       -0.753   1.593  -1.232  0.00  0.00    +0.030 C 
ATOM     13  C   LIG    1       -0.013   1.086   0.008  0.00  0.00    +0.290 C 
ENDBRANCH   8  13
ENDBRANCH   1   9
TORSDOF 2
