REMARK  Name = ZINCah0000002BbF.0
REMARK                            x       y       z     vdW  Elec       q    Type
REMARK                         _______ _______ _______ _____ _____    ______ ____
ROOT
ATOM      1  C   LIG    1       -1.226   1.645   0.017  0.00  0.00    +0.290 A 
ATOM      2  C   LIG    1       -1.259   3.011   0.030  0.00  0.00    -0.150 A 
ATOM      3  C   LIG    1       -2.464   3.711   0.035  0.00  0.00    +0.100 A 
ATOM      4  C   LIG    1       -3.669   3.090   0.037  0.00  0.00    -0.050 A 
ATOM      5  C   LIG    1       -3.743   1.680   0.029  0.00  0.00    +0.140 A 
ATOM      6  N   LIG    1       -4.727   0.800   0.028  0.00  0.00    -0.310 NA
ATOM      7  N   LIG    1       -4.183  -0.490   0.018  0.00  0.00    -0.440 N 
ATOM      8  H   LIG    1       -4.698  -1.312   0.017  0.00  0.00    +0.440 HD
ATOM      9  C   LIG    1       -2.844  -0.421   0.013  0.00  0.00    +0.270 A 
ATOM     10  C   LIG    1       -2.488   0.912   0.019  0.00  0.00    -0.240 A 
ENDROOT
BRANCH   1  11
ATOM     11  N   LIG    1       -0.011   0.966   0.007  0.00  0.00    -0.870 N 
ATOM     12  H   LIG    1        0.822   1.462   0.002  0.00  0.00    +0.400 HD
ATOM     13  H   LIG    1        0.002  -0.004   0.002  0.00  0.00    +0.400 HD
ENDBRANCH   1  11
TORSDOF 1
