REMARK  Name = ZINCah0000002BbF.1
REMARK                            x       y       z     vdW  Elec       q    Type
REMARK                         _______ _______ _______ _____ _____    ______ ____
ROOT
ATOM      1  C   LIG    1        1.197   2.112   0.002  0.00  0.00    +0.300 A 
ATOM      2  C   LIG    1       -0.017   1.403   0.010  0.00  0.00    -0.240 A 
ATOM      3  C   LIG    1       -1.376   1.796   0.030  0.00  0.00    +0.270 A 
ATOM      4  N   LIG    1       -2.119   0.727   0.026  0.00  0.00    -0.260 NA
ATOM      5  N   LIG    1       -1.307  -0.413   0.012  0.00  0.00    -0.510 N 
ATOM      6  H   LIG    1       -1.616  -1.333   0.010  0.00  0.00    +0.440 HD
ATOM      7  C   LIG    1        0.002  -0.004   0.002  0.00  0.00    +0.170 A 
ATOM      8  C   LIG    1        1.221  -0.678  -0.013  0.00  0.00    -0.090 A 
ATOM      9  C   LIG    1        2.400   0.031  -0.020  0.00  0.00    +0.120 A 
ATOM     10  C   LIG    1        2.393   1.419  -0.012  0.00  0.00    -0.130 A 
ENDROOT
BRANCH   1  11
ATOM     11  N   LIG    1        1.195   3.506   0.009  0.00  0.00    -0.870 N 
ATOM     12  H   LIG    1        2.034   3.992   0.004  0.00  0.00    +0.400 HD
ATOM     13  H   LIG    1        0.354   3.990   0.019  0.00  0.00    +0.400 HD
ENDBRANCH   1  11
TORSDOF 1
