REMARK  Name = ZINCbw0000000HmO.0
REMARK                            x       y       z     vdW  Elec       q    Type
REMARK                         _______ _______ _______ _____ _____    ______ ____
ROOT
ATOM      1  C   LIG    1       -0.829   1.871   1.381  0.00  0.00    -0.110 C 
ATOM      2  C   LIG    1       -1.223   1.236   2.469  0.00  0.00    +0.320 C 
ATOM      3  F   LIG    1       -1.518   1.932   3.588  0.00  0.00    -0.080 F 
ATOM      4  F   LIG    1       -1.332  -0.111   2.462  0.00  0.00    -0.080 F 
ENDROOT
BRANCH   1   5
ATOM      5  C   LIG    1       -0.380   1.091   0.173  0.00  0.00    +0.500 C 
ATOM      6  F   LIG    1       -1.199   1.405  -0.916  0.00  0.00    -0.170 F 
ATOM      7  F   LIG    1        0.946   1.421  -0.129  0.00  0.00    -0.160 F 
ATOM      8  F   LIG    1       -0.468  -0.279   0.444  0.00  0.00    -0.160 F 
ENDBRANCH   1   5
BRANCH   1   9
ATOM      9  O   LIG    1       -0.828   3.232   1.351  0.00  0.00    -0.290 OA
BRANCH   9  11
ATOM     10  F   LIG    1       -3.048   3.720   0.945  0.00  0.00    -0.210 F 
ATOM     11  C   LIG    1       -1.746   3.861   0.454  0.00  0.00    +0.440 C 
ENDBRANCH   9  11
ENDBRANCH   1   9
TORSDOF 3
