REMARK  Name = ZINCrH000004qKvs.0
REMARK                            x       y       z     vdW  Elec       q    Type
REMARK                         _______ _______ _______ _____ _____    ______ ____
ROOT
ATOM      1  N   LIG    1        0.457  -1.783   5.932  0.00  0.00    -0.660 N 
ATOM      2  H   LIG    1        0.200  -1.515   6.828  0.00  0.00    +0.410 HD
ATOM      3  C   LIG    1        1.386  -2.743   5.756  0.00  0.00    +0.500 C 
ATOM      4  O   LIG    1        1.758  -3.030   4.637  0.00  0.00    -0.490 OA
ENDROOT
BRANCH   3   5
ATOM      5  C   LIG    1        1.963  -3.461   6.949  0.00  0.00    +0.200 C 
ATOM      6  O   LIG    1        2.752  -4.572   6.508  0.00  0.00    -0.280 OA
ATOM      7  C   LIG    1        3.960  -4.281   5.951  0.00  0.00    +0.060 A 
ATOM      8  C   LIG    1        4.609  -5.244   5.193  0.00  0.00    +0.020 A 
ATOM      9  C   LIG    1        5.837  -4.965   4.623  0.00  0.00    +0.020 A 
ATOM     10  C   LIG    1        6.421  -3.726   4.806  0.00  0.00    +0.020 A 
ATOM     11  C   LIG    1        5.779  -2.761   5.559  0.00  0.00    +0.020 A 
ATOM     12  C   LIG    1        4.546  -3.034   6.133  0.00  0.00    +0.050 A 
ATOM     13  O   LIG    1        3.924  -2.073   6.870  0.00  0.00    -0.300 OA
ATOM     14  C   LIG    1        2.870  -2.507   7.737  0.00  0.00    +0.160 C 
ATOM     15  C   LIG    1        2.060  -1.300   8.213  0.00  0.00    +0.090 C 
ENDBRANCH   3   5
BRANCH   1  22
ATOM     16  C   LIG    1       -0.800   0.741   6.303  0.00  0.00    +0.090 C 
ATOM     17  C   LIG    1       -0.761   0.063   4.957  0.00  0.00    -0.110 A 
ATOM     18  C   LIG    1       -1.346   0.666   3.863  0.00  0.00    +0.050 A 
ATOM     19  C   LIG    1       -1.310   0.041   2.623  0.00  0.00    +0.080 A 
ATOM     20  C   LIG    1       -0.689  -1.194   2.486  0.00  0.00    -0.010 A 
ATOM     21  C   LIG    1       -0.100  -1.795   3.581  0.00  0.00    +0.040 A 
ATOM     22  C   LIG    1       -0.136  -1.170   4.820  0.00  0.00    +0.140 A 
BRANCH  19  23
ATOM     23  N   LIG    1       -1.903   0.652   1.513  0.00  0.00    -0.510 N 
ATOM     24  C   LIG    1       -2.554  -0.339   0.653  0.00  0.00    +0.210 C 
ATOM     25  C   LIG    1       -3.549   0.357  -0.281  0.00  0.00    +0.120 C 
ATOM     26  S   LIG    1       -2.630   1.513  -1.345  0.00  0.00    -0.270 S 
ATOM     27  C   LIG    1       -1.669   2.461  -0.126  0.00  0.00    +0.120 C 
ATOM     28  C   LIG    1       -0.933   1.475   0.787  0.00  0.00    +0.210 C 
ENDBRANCH  19  23
ENDBRANCH   1  22
TORSDOF 3
