REMARK  Name = ZINCrH000004ssNW.0
REMARK                            x       y       z     vdW  Elec       q    Type
REMARK                         _______ _______ _______ _____ _____    ______ ____
ROOT
ATOM      1  C   LIG    1        1.152   3.172   0.001  0.00  0.00    +0.160 A 
ATOM      2  C   LIG    1        1.170   1.782  -0.006  0.00  0.00    -0.010 A 
ATOM      3  C   LIG    1       -0.013   1.076   0.003  0.00  0.00    +0.140 A 
ATOM      4  C   LIG    1       -1.232   1.759   0.014  0.00  0.00    -0.170 A 
ATOM      5  C   LIG    1       -1.245   3.157   0.026  0.00  0.00    +0.090 A 
ATOM      6  C   LIG    1       -0.059   3.855   0.017  0.00  0.00    -0.080 A 
ENDROOT
BRANCH   4   7
ATOM      7  C   LIG    1       -2.501   1.007   0.018  0.00  0.00    +0.550 C 
ATOM      8  N   LIG    1       -3.676   1.668   0.029  0.00  0.00    -0.660 N 
ATOM      9  H   LIG    1       -3.688   2.634   0.108  0.00  0.00    +0.420 HD
ATOM     10  O   LIG    1       -2.487  -0.209   0.012  0.00  0.00    -0.460 OA
BRANCH   8  11
ATOM     11  C   LIG    1       -4.870   0.964  -0.075  0.00  0.00    +0.380 A 
ATOM     12  N   LIG    1       -4.842  -0.353  -0.086  0.00  0.00    -0.470 NA
ATOM     13  C   LIG    1       -5.967  -1.071  -0.178  0.00  0.00    +0.160 A 
ATOM     14  C   LIG    1       -5.930  -2.475  -0.184  0.00  0.00    +0.040 A 
ATOM     15  C   LIG    1       -7.090  -3.181  -0.284  0.00  0.00    +0.040 A 
ATOM     16  C   LIG    1       -8.319  -2.533  -0.382  0.00  0.00    +0.000 A 
ATOM     17  C   LIG    1       -8.393  -1.173  -0.380  0.00  0.00    +0.040 A 
ATOM     18  C   LIG    1       -7.218  -0.414  -0.278  0.00  0.00    -0.130 A 
ATOM     19  C   LIG    1       -7.255   0.996  -0.272  0.00  0.00    +0.120 A 
ATOM     20  C   LIG    1       -6.076   1.672  -0.170  0.00  0.00    -0.060 A 
ENDBRANCH   8  11
ENDBRANCH   4   7
BRANCH   1  21
ATOM     21  O   LIG    1        2.319   3.864  -0.009  0.00  0.00    -0.300 OA
BRANCH  21  22
ATOM     22  C   LIG    1        2.228   5.290  -0.001  0.00  0.00    +0.360 C 
BRANCH  22  26
ATOM     23  C   LIG    1        6.655   7.168   1.397  0.00  0.00    +0.260 C 
ATOM     24  C   LIG    1        5.481   6.674   0.592  0.00  0.00    +0.190 A 
ATOM     25  N   LIG    1        4.356   6.194   1.065  0.00  0.00    -0.470 NA
ATOM     26  C   LIG    1        3.614   5.881  -0.013  0.00  0.00    +0.160 A 
ATOM     27  N   LIG    1        4.310   6.189  -1.067  0.00  0.00    -0.360 NA
ATOM     28  O   LIG    1        5.386   6.646  -0.741  0.00  0.00    +0.090 OA
ENDBRANCH  22  26
ENDBRANCH  21  22
ENDBRANCH   1  21
TORSDOF 5
