REMARK  Name = ZINCrg000000oj2r.0
REMARK                            x       y       z     vdW  Elec       q    Type
REMARK                         _______ _______ _______ _____ _____    ______ ____
ROOT
ATOM      1  C   LIG    1        0.591   3.544   0.015  0.00  0.00    +0.040 A 
ATOM      2  C   LIG    1        1.069   2.266   0.004  0.00  0.00    +0.140 A 
ATOM      3  N   LIG    1       -0.018   1.461   0.010  0.00  0.00    -0.280 N 
ATOM      4  N   LIG    1       -1.072   2.198   0.018  0.00  0.00    -0.070 NA
ATOM      5  N   LIG    1       -0.750   3.443   0.028  0.00  0.00    -0.250 NA
ENDROOT
BRANCH   1   9
ATOM      6  C   LIG    1        2.883   7.129   0.013  0.00  0.00    +0.140 A 
ATOM      7  C   LIG    1        1.497   7.193   0.026  0.00  0.00    -0.010 A 
ATOM      8  C   LIG    1        0.751   6.033   0.027  0.00  0.00    +0.090 A 
ATOM      9  C   LIG    1        1.391   4.795   0.015  0.00  0.00    -0.050 A 
ATOM     10  C   LIG    1        2.783   4.733   0.007  0.00  0.00    +0.070 A 
ATOM     11  C   LIG    1        3.523   5.897   0.001  0.00  0.00    -0.080 A 
BRANCH   6  12
ATOM     12  O   LIG    1        3.616   8.274   0.012  0.00  0.00    -0.310 OA
BRANCH  12  14
ATOM     13  C   LIG    1        5.686   9.520  -0.000  0.00  0.00    +0.070 C 
ATOM     14  C   LIG    1        5.038   8.134  -0.002  0.00  0.00    +0.170 C 
ENDBRANCH  12  14
ENDBRANCH   6  12
ENDBRANCH   1   9
BRANCH   3  15
ATOM     15  C   LIG    1        0.002  -0.004   0.002  0.00  0.00    +0.260 C 
ATOM     16  C   LIG    1        1.393  -0.607   0.271  0.00  0.00    +0.310 C 
ATOM     17  N   LIG    1        1.075  -1.566  -0.805  0.00  0.00    -0.640 N 
ATOM     18  C   LIG    1        1.489  -2.810  -1.114  0.00  0.00    +0.550 C 
ATOM     19  O   LIG    1        1.041  -3.374  -2.089  0.00  0.00    -0.500 OA
ATOM     20  C   LIG    1        0.120  -0.615  -1.406  0.00  0.00    +0.320 C 
BRANCH  18  21
ATOM     21  C   LIG    1        2.510  -3.501  -0.247  0.00  0.00    +0.180 C 
ATOM     22  C   LIG    1        1.917  -3.750   1.142  0.00  0.00    +0.170 C 
ATOM     23  N   LIG    1        2.889  -4.493   1.958  0.00  0.00    -0.540 NA
ATOM     24  C   LIG    1        3.236  -5.772   1.321  0.00  0.00    +0.150 C 
ATOM     25  C   LIG    1        3.816  -5.501  -0.070  0.00  0.00    +0.240 C 
ATOM     26  C   LIG    1        2.379  -4.705   3.320  0.00  0.00    +0.200 C 
ATOM     27  O   LIG    1        2.871  -4.753  -0.838  0.00  0.00    -0.360 OA
ENDBRANCH  18  21
ENDBRANCH   3  15
TORSDOF 5
