REMARK  Name = ZINCtj00001UqOwa.1
REMARK                            x       y       z     vdW  Elec       q    Type
REMARK                         _______ _______ _______ _____ _____    ______ ____
ROOT
ATOM      1  C   LIG    1        0.506   2.197  -0.742  0.00  0.00    +0.340 C 
ENDROOT
BRANCH   1   4
ATOM      2  N   LIG    1       -1.064   4.070  -1.120  0.00  0.00    -0.660 N 
ATOM      3  H   LIG    1       -0.310   4.677  -1.049  0.00  0.00    +0.420 HD
ATOM      4  C   LIG    1       -0.882   2.747  -0.945  0.00  0.00    +0.510 C 
ATOM      5  O   LIG    1       -1.836   1.997  -0.951  0.00  0.00    -0.520 OA
BRANCH   2   9
ATOM      6  C   LIG    1       -4.865   5.559  -1.969  0.00  0.00    +0.140 A 
ATOM      7  C   LIG    1       -4.720   4.472  -1.118  0.00  0.00    +0.000 A 
ATOM      8  C   LIG    1       -3.461   3.979  -0.837  0.00  0.00    +0.040 A 
ATOM      9  C   LIG    1       -2.341   4.570  -1.406  0.00  0.00    +0.110 A 
ATOM     10  C   LIG    1       -2.486   5.661  -2.253  0.00  0.00    +0.020 A 
ATOM     11  C   LIG    1       -3.745   6.151  -2.538  0.00  0.00    +0.040 A 
BRANCH   6  13
ATOM     12  C   LIG    1       -6.412   6.563  -3.475  0.00  0.00    +0.510 C 
ATOM     13  N   LIG    1       -6.142   6.060  -2.254  0.00  0.00    -0.680 N 
ATOM     14  H   LIG    1       -6.832   6.044  -1.572  0.00  0.00    +0.410 HD
ATOM     15  O   LIG    1       -5.579   6.501  -4.354  0.00  0.00    -0.520 OA
BRANCH  12  17
ATOM     16  C   LIG    1       -7.796   7.688  -5.198  0.00  0.00    +0.050 C 
ATOM     17  C   LIG    1       -7.749   7.202  -3.747  0.00  0.00    +0.060 C 
ENDBRANCH  12  17
ENDBRANCH   6  13
ENDBRANCH   2   9
ENDBRANCH   1   4
BRANCH   1  18
ATOM     18  N   LIG    1        0.437   0.743  -0.576  0.00  0.00    -0.690 N 
ATOM     19  H   LIG    1       -0.421   0.292  -0.608  0.00  0.00    +0.420 HD
ATOM     20  C   LIG    1        1.565   0.032  -0.379  0.00  0.00    +0.510 C 
ATOM     21  O   LIG    1        2.638   0.596  -0.344  0.00  0.00    -0.530 OA
BRANCH  20  22
ATOM     22  C   LIG    1        1.493  -1.463  -0.209  0.00  0.00    +0.280 C 
BRANCH  22  23
ATOM     23  N   LIG    1        2.847  -2.000  -0.017  0.00  0.00    -0.370 N 
ATOM     24  C   LIG    1        3.636  -1.785  -1.237  0.00  0.00    +0.330 C 
ATOM     25  H   LIG    1        3.289  -1.527   0.757  0.00  0.00    +0.440 HD
BRANCH  23  26
ATOM     26  C   LIG    1        2.768  -3.439   0.268  0.00  0.00    +0.260 C 
BRANCH  26  27
ATOM     27  C   LIG    1        2.068  -3.655   1.611  0.00  0.00    +0.220 C 
BRANCH  27  28
ATOM     28  O   LIG    1        2.781  -2.962   2.637  0.00  0.00    -0.540 OA
ATOM     29  H   LIG    1        3.698  -3.252   2.744  0.00  0.00    +0.400 HD
ENDBRANCH  27  28
BRANCH  27  30
ATOM     30  C   LIG    1        2.034  -5.150   1.934  0.00  0.00    +0.060 C 
BRANCH  30  31
ATOM     31  C   LIG    1        1.226  -5.377   3.213  0.00  0.00    +0.460 C 
ATOM     32  F   LIG    1        1.824  -4.685   4.272  0.00  0.00    -0.170 F 
ATOM     33  F   LIG    1        1.195  -6.745   3.508  0.00  0.00    -0.170 F 
ATOM     34  F   LIG    1       -0.080  -4.910   3.029  0.00  0.00    -0.180 F 
ENDBRANCH  30  31
ENDBRANCH  27  30
ENDBRANCH  26  27
ENDBRANCH  23  26
ENDBRANCH  22  23
ENDBRANCH  20  22
ENDBRANCH   1  18
TORSDOF 12
