REMARK  Name = ZINCtj00001UqOwa.2
REMARK                            x       y       z     vdW  Elec       q    Type
REMARK                         _______ _______ _______ _____ _____    ______ ____
ROOT
ATOM      1  C   LIG    1        0.397   1.274   9.814  0.00  0.00    +0.340 C 
ENDROOT
BRANCH   1   4
ATOM      2  N   LIG    1        0.214   1.533  12.267  0.00  0.00    -0.660 N 
ATOM      3  H   LIG    1        1.007   0.981  12.354  0.00  0.00    +0.420 HD
ATOM      4  C   LIG    1       -0.309   1.774  11.048  0.00  0.00    +0.510 C 
ATOM      5  O   LIG    1       -1.347   2.393  10.944  0.00  0.00    -0.520 OA
BRANCH   2   9
ATOM      6  C   LIG    1       -1.580   3.158  15.663  0.00  0.00    +0.140 A 
ATOM      7  C   LIG    1       -2.364   2.749  14.591  0.00  0.00    +0.000 A 
ATOM      8  C   LIG    1       -1.770   2.212  13.467  0.00  0.00    +0.040 A 
ATOM      9  C   LIG    1       -0.389   2.079  13.407  0.00  0.00    +0.110 A 
ATOM     10  C   LIG    1        0.395   2.482  14.481  0.00  0.00    +0.010 A 
ATOM     11  C   LIG    1       -0.199   3.024  15.603  0.00  0.00    +0.050 A 
BRANCH   6  13
ATOM     12  C   LIG    1       -1.565   4.688  17.486  0.00  0.00    +0.510 C 
ATOM     13  N   LIG    1       -2.182   3.703  16.803  0.00  0.00    -0.680 N 
ATOM     14  H   LIG    1       -3.044   3.372  17.102  0.00  0.00    +0.410 HD
ATOM     15  O   LIG    1       -0.452   5.044  17.163  0.00  0.00    -0.520 OA
BRANCH  12  17
ATOM     16  C   LIG    1       -1.348   6.422  19.245  0.00  0.00    +0.050 C 
ATOM     17  C   LIG    1       -2.259   5.346  18.651  0.00  0.00    +0.060 C 
ENDBRANCH  12  17
ENDBRANCH   6  13
ENDBRANCH   2   9
ENDBRANCH   1   4
BRANCH   1  18
ATOM     18  N   LIG    1       -0.366   1.662   8.624  0.00  0.00    -0.690 N 
ATOM     19  H   LIG    1       -1.190   2.164   8.720  0.00  0.00    +0.420 HD
ATOM     20  C   LIG    1        0.078   1.320   7.398  0.00  0.00    +0.510 C 
ATOM     21  O   LIG    1        1.108   0.692   7.280  0.00  0.00    -0.520 OA
BRANCH  20  22
ATOM     22  C   LIG    1       -0.707   1.719   6.175  0.00  0.00    +0.290 C 
BRANCH  22  23
ATOM     23  N   LIG    1       -0.019   1.232   4.972  0.00  0.00    -0.370 N 
ATOM     24  C   LIG    1       -0.017  -0.237   4.970  0.00  0.00    +0.320 C 
ATOM     25  H   LIG    1        0.932   1.570   4.968  0.00  0.00    +0.440 HD
BRANCH  23  26
ATOM     26  C   LIG    1       -0.718   1.722   3.776  0.00  0.00    +0.250 C 
BRANCH  26  27
ATOM     27  C   LIG    1        0.067   1.320   2.526  0.00  0.00    +0.220 C 
BRANCH  27  28
ATOM     28  O   LIG    1        1.376   1.892   2.581  0.00  0.00    -0.540 OA
ATOM     29  H   LIG    1        1.381   2.858   2.623  0.00  0.00    +0.390 HD
ENDBRANCH  27  28
BRANCH  27  30
ATOM     30  C   LIG    1       -0.660   1.831   1.281  0.00  0.00    +0.060 C 
BRANCH  30  31
ATOM     31  C   LIG    1        0.056   1.323   0.028  0.00  0.00    +0.460 C 
ATOM     32  F   LIG    1       -0.610   1.790  -1.111  0.00  0.00    -0.170 F 
ATOM     33  F   LIG    1        1.374   1.792   0.022  0.00  0.00    -0.170 F 
ATOM     34  F   LIG    1        0.058  -0.076   0.026  0.00  0.00    -0.180 F 
ENDBRANCH  30  31
ENDBRANCH  27  30
ENDBRANCH  26  27
ENDBRANCH  23  26
ENDBRANCH  22  23
ENDBRANCH  20  22
ENDBRANCH   1  18
TORSDOF 12
