REMARK  Name = ZINCrD000002I4yN.1
REMARK                            x       y       z     vdW  Elec       q    Type
REMARK                         _______ _______ _______ _____ _____    ______ ____
ROOT
ATOM      1  N   LIG    1       -2.270   4.058   0.045  0.00  0.00    -0.470 N 
ATOM      2  C   LIG    1       -1.244   3.133   0.030  0.00  0.00    +0.060 A 
ATOM      3  C   LIG    1       -1.218   1.742   0.017  0.00  0.00    +0.040 A 
ATOM      4  C   LIG    1       -0.013   1.076   0.008  0.00  0.00    -0.050 A 
ATOM      5  C   LIG    1        1.187   1.782   0.000  0.00  0.00    +0.110 A 
ATOM      6  C   LIG    1        1.179   3.164   0.008  0.00  0.00    +0.010 A 
ATOM      7  C   LIG    1       -0.035   3.846   0.023  0.00  0.00    -0.030 A 
ATOM      8  C   LIG    1       -0.407   5.273   0.035  0.00  0.00    -0.240 A 
ATOM      9  C   LIG    1       -1.770   5.317   0.048  0.00  0.00    +0.150 A 
ATOM     10  C   LIG    1       -2.597   6.577   0.063  0.00  0.00    +0.160 C 
ENDROOT
BRANCH   8  11
ATOM     11  C   LIG    1        0.509   6.420   0.032  0.00  0.00    +0.600 C 
ATOM     12  N   LIG    1        0.941   6.941   1.198  0.00  0.00    -0.720 N 
ATOM     13  H   LIG    1        0.646   6.557   2.039  0.00  0.00    +0.400 HD
ATOM     14  O   LIG    1        0.879   6.902  -1.023  0.00  0.00    -0.530 OA
BRANCH  12  15
ATOM     15  C   LIG    1        1.855   8.085   1.196  0.00  0.00    +0.250 C 
ATOM     16  C   LIG    1        1.710   8.858   2.510  0.00  0.00    +0.020 C 
ATOM     17  C   LIG    1        2.472  10.185   2.412  0.00  0.00    +0.130 C 
ATOM     18  C   LIG    1        3.865   9.898   1.909  0.00  0.00    +0.000 A 
ATOM     19  C   LIG    1        4.229   8.744   1.310  0.00  0.00    -0.020 A 
ATOM     20  N   LIG    1        5.550   8.852   1.001  0.00  0.00    -0.560 N 
ATOM     21  H   LIG    1        6.097   8.182   0.563  0.00  0.00    +0.420 HD
ATOM     22  C   LIG    1        5.956  10.073   1.421  0.00  0.00    +0.390 A 
ATOM     23  N   LIG    1        4.939  10.691   1.963  0.00  0.00    -0.480 NA
ATOM     24  C   LIG    1        3.299   7.587   1.054  0.00  0.00    +0.110 C 
ENDBRANCH  12  15
ENDBRANCH   8  11
BRANCH   5  25
ATOM     25  O   LIG    1        2.369   1.110  -0.014  0.00  0.00    -0.320 OA
ATOM     26  C   LIG    1        2.304  -0.317  -0.021  0.00  0.00    +0.230 C 
ENDBRANCH   5  25
BRANCH   1  27
ATOM     27  C   LIG    1       -3.696   3.724   0.057  0.00  0.00    +0.280 C 
BRANCH  27  29
ATOM     28  C   LIG    1       -5.696   3.268  -1.370  0.00  0.00    +0.030 C 
ATOM     29  C   LIG    1       -4.207   3.616  -1.382  0.00  0.00    +0.000 C 
ENDBRANCH  27  29
ENDBRANCH   1  27
TORSDOF 5
