REMARK  Name = ZINCrD000002I4yN.0
REMARK                            x       y       z     vdW  Elec       q    Type
REMARK                         _______ _______ _______ _____ _____    ______ ____
ROOT
ATOM      1  N   LIG    1        1.252   1.835   0.000  0.00  0.00    -0.470 N 
ATOM      2  C   LIG    1        2.157   0.793  -0.014  0.00  0.00    +0.060 A 
ATOM      3  C   LIG    1        3.547   0.741  -0.028  0.00  0.00    +0.040 A 
ATOM      4  C   LIG    1        4.191  -0.477  -0.041  0.00  0.00    -0.050 A 
ATOM      5  C   LIG    1        3.462  -1.663  -0.040  0.00  0.00    +0.110 A 
ATOM      6  C   LIG    1        2.080  -1.630  -0.027  0.00  0.00    +0.010 A 
ATOM      7  C   LIG    1        1.421  -0.403  -0.014  0.00  0.00    -0.030 A 
ATOM      8  C   LIG    1        0.002  -0.004   0.002  0.00  0.00    -0.240 A 
ATOM      9  C   LIG    1       -0.016   1.360   0.009  0.00  0.00    +0.150 A 
ATOM     10  C   LIG    1       -1.261   2.210   0.020  0.00  0.00    +0.160 C 
ENDROOT
BRANCH   8  11
ATOM     11  C   LIG    1       -1.163  -0.899   0.008  0.00  0.00    +0.600 C 
ATOM     12  N   LIG    1       -1.686  -1.316   1.178  0.00  0.00    -0.720 N 
ATOM     13  H   LIG    1       -1.293  -1.025   2.016  0.00  0.00    +0.400 HD
ATOM     14  O   LIG    1       -1.655  -1.264  -1.043  0.00  0.00    -0.530 OA
BRANCH  12  15
ATOM     15  C   LIG    1       -2.848  -2.208   1.185  0.00  0.00    +0.240 C 
ATOM     16  C   LIG    1       -2.868  -3.010   2.489  0.00  0.00    +0.040 C 
ATOM     17  C   LIG    1       -3.927  -4.115   2.393  0.00  0.00    +0.120 C 
ATOM     18  C   LIG    1       -5.215  -3.498   1.914  0.00  0.00    -0.030 A 
ATOM     19  C   LIG    1       -5.310  -2.284   1.331  0.00  0.00    +0.010 A 
ATOM     20  N   LIG    1       -6.595  -2.063   1.042  0.00  0.00    -0.480 NA
ATOM     21  C   LIG    1       -7.303  -3.095   1.423  0.00  0.00    +0.390 A 
ATOM     22  N   LIG    1       -6.474  -4.013   1.972  0.00  0.00    -0.560 N 
ATOM     23  H   LIG    1       -6.728  -4.875   2.338  0.00  0.00    +0.420 HD
ATOM     24  C   LIG    1       -4.131  -1.377   1.075  0.00  0.00    +0.120 C 
ENDBRANCH  12  15
ENDBRANCH   8  11
BRANCH   5  25
ATOM     25  O   LIG    1        4.112  -2.857  -0.052  0.00  0.00    -0.320 OA
ATOM     26  C   LIG    1        5.540  -2.819  -0.066  0.00  0.00    +0.230 C 
ENDBRANCH   5  25
BRANCH   1  27
ATOM     27  C   LIG    1        1.612   3.256   0.004  0.00  0.00    +0.280 C 
BRANCH  27  29
ATOM     28  C   LIG    1        2.127   5.226   1.451  0.00  0.00    +0.030 C 
ATOM     29  C   LIG    1        1.751   3.743   1.447  0.00  0.00    +0.000 C 
ENDBRANCH  27  29
ENDBRANCH   1  27
TORSDOF 5
