REMARK  Name = ZINCtV000002wAIS.0
REMARK                            x       y       z     vdW  Elec       q    Type
REMARK                         _______ _______ _______ _____ _____    ______ ____
ROOT
ATOM      1  C   LIG    1        1.141  -0.764  -0.018  0.00  0.00    -0.170 A 
ATOM      2  C   LIG    1        0.002  -0.004   0.002  0.00  0.00    +0.040 A 
ATOM      3  S   LIG    1       -1.389  -0.988   0.009  0.00  0.00    +0.330 S 
ATOM      4  C   LIG    1       -0.444  -2.466  -0.008  0.00  0.00    -0.230 A 
ATOM      5  C   LIG    1       -1.028  -3.856  -0.011  0.00  0.00    +0.150 C 
ATOM      6  C   LIG    1        0.865  -2.192  -0.018  0.00  0.00    -0.020 A 
ENDROOT
BRANCH   6   7
ATOM      7  C   LIG    1        1.922  -3.231  -0.034  0.00  0.00    -0.040 A 
ATOM      8  C   LIG    1        2.792  -3.362   1.048  0.00  0.00    +0.020 A 
ATOM      9  C   LIG    1        3.770  -4.335   1.030  0.00  0.00    +0.000 A 
ATOM     10  C   LIG    1        3.895  -5.173  -0.064  0.00  0.00    +0.010 A 
ATOM     11  C   LIG    1        3.038  -5.045  -1.143  0.00  0.00    +0.010 A 
ATOM     12  C   LIG    1        2.053  -4.079  -1.134  0.00  0.00    +0.020 A 
ENDBRANCH   6   7
BRANCH   2  13
ATOM     13  N   LIG    1       -0.017   1.381   0.010  0.00  0.00    -0.630 N 
ATOM     14  H   LIG    1        0.817   1.878   0.004  0.00  0.00    +0.420 HD
ATOM     15  C   LIG    1       -1.193   2.039   0.019  0.00  0.00    +0.530 C 
ATOM     16  O   LIG    1       -2.235   1.419   0.020  0.00  0.00    -0.480 OA
BRANCH  15  17
ATOM     17  C   LIG    1       -1.213   3.546   0.027  0.00  0.00    +0.100 C 
BRANCH  17  18
ATOM     18  S   LIG    1       -2.932   4.128   0.038  0.00  0.00    -0.010 S 
BRANCH  18  19
ATOM     19  C   LIG    1       -2.757   5.881   0.047  0.00  0.00    -0.100 A 
ATOM     20  C   LIG    1       -1.491   6.454   0.050  0.00  0.00    +0.000 A 
ATOM     21  C   LIG    1       -1.357   7.829   0.052  0.00  0.00    +0.050 A 
ATOM     22  C   LIG    1       -2.482   8.635   0.062  0.00  0.00    -0.040 A 
ATOM     23  C   LIG    1       -3.744   8.067   0.064  0.00  0.00    +0.050 A 
ATOM     24 CL   LIG    1       -2.310  10.362   0.072  0.00  0.00    -0.060 Cl
ATOM     25  C   LIG    1       -3.884   6.693   0.057  0.00  0.00    +0.060 A 
ENDBRANCH  18  19
ENDBRANCH  17  18
ENDBRANCH  15  17
ENDBRANCH   2  13
BRANCH   1  26
ATOM     26  C   LIG    1        2.491  -0.201  -0.034  0.00  0.00    +0.540 C 
ATOM     27  O   LIG    1        3.067   0.028   1.012  0.00  0.00    -0.490 OA
BRANCH  26  28
ATOM     28  O   LIG    1        3.096   0.067  -1.210  0.00  0.00    -0.350 OA
BRANCH  28  30
ATOM     29  C   LIG    1        4.955   0.859  -2.570  0.00  0.00    +0.070 C 
ATOM     30  C   LIG    1        4.435   0.625  -1.150  0.00  0.00    +0.200 C 
ENDBRANCH  28  30
ENDBRANCH  26  28
ENDBRANCH   1  26
TORSDOF 8
