REMARK  Name = ZINCtj00001UqOuJ.1
REMARK                            x       y       z     vdW  Elec       q    Type
REMARK                         _______ _______ _______ _____ _____    ______ ____
ROOT
ATOM      1  N   LIG    1       -2.005   3.566   0.315  0.00  0.00    -0.370 N 
ATOM      2  C   LIG    1       -1.227   3.504  -0.928  0.00  0.00    +0.260 C 
ATOM      3  C   LIG    1       -0.689   2.085  -1.128  0.00  0.00    +0.070 C 
ATOM      4  C   LIG    1        0.207   1.714   0.057  0.00  0.00    +0.060 C 
ATOM      5  C   LIG    1       -0.593   1.854   1.355  0.00  0.00    -0.100 C 
ATOM      6  C   LIG    1       -1.759   0.864   1.346  0.00  0.00    +0.060 C 
ATOM      7  C   LIG    1       -1.135   3.280   1.462  0.00  0.00    +0.300 C 
ATOM      8  H   LIG    1       -2.747   2.883   0.280  0.00  0.00    +0.430 HD
ENDROOT
BRANCH   5   9
ATOM      9  C   LIG    1        0.304   1.565   2.532  0.00  0.00    +0.530 C 
ATOM     10  N   LIG    1        0.798   0.325   2.715  0.00  0.00    -0.600 N 
ATOM     11  C   LIG    1        0.558  -0.730   1.721  0.00  0.00    +0.260 C 
ATOM     12  C   LIG    1        1.911  -1.330   1.308  0.00  0.00    +0.050 C 
ATOM     13  C   LIG    1        2.656  -1.802   2.559  0.00  0.00    -0.060 C 
ATOM     14  C   LIG    1        2.919  -0.609   3.479  0.00  0.00    +0.040 C 
ATOM     15  C   LIG    1        1.582   0.001   3.914  0.00  0.00    +0.290 C 
ATOM     16  O   LIG    1        0.580   2.450   3.315  0.00  0.00    -0.530 OA
BRANCH  13  17
ATOM     17  C   LIG    1        1.805  -2.838   3.297  0.00  0.00    +0.160 C 
BRANCH  17  18
ATOM     18  O   LIG    1        1.559  -3.953   2.438  0.00  0.00    -0.550 OA
ATOM     19  H   LIG    1        1.024  -4.650   2.842  0.00  0.00    +0.370 HD
ENDBRANCH  17  18
ENDBRANCH  13  17
BRANCH  13  20
ATOM     20  C   LIG    1        3.988  -2.435   2.150  0.00  0.00    +0.170 C 
BRANCH  20  21
ATOM     21  O   LIG    1        3.742  -3.549   1.291  0.00  0.00    -0.550 OA
ATOM     22  H   LIG    1        4.544  -4.000   0.992  0.00  0.00    +0.380 HD
ENDBRANCH  20  21
ENDBRANCH  13  20
ENDBRANCH   5   9
BRANCH   1  23
ATOM     23  C   LIG    1       -2.584   4.908   0.462  0.00  0.00    +0.280 C 
BRANCH  23  25
ATOM     24  N   LIG    1       -4.238   6.324  -0.712  0.00  0.00    -0.580 N 
ATOM     25  C   LIG    1       -3.578   5.151  -0.644  0.00  0.00    +0.500 C 
ATOM     26  O   LIG    1       -3.784   4.290  -1.474  0.00  0.00    -0.520 OA
BRANCH  24  28
ATOM     27  C   LIG    1       -4.492   6.478  -3.139  0.00  0.00    +0.040 C 
ATOM     28  C   LIG    1       -5.204   6.560  -1.787  0.00  0.00    +0.240 C 
ATOM     29  C   LIG    1       -6.305   5.500  -1.726  0.00  0.00    +0.040 C 
ENDBRANCH  24  28
BRANCH  24  30
ATOM     30  C   LIG    1       -3.989   7.363   0.290  0.00  0.00    +0.210 C 
ATOM     31  C   LIG    1       -5.261   7.599   1.107  0.00  0.00    +0.040 C 
ATOM     32  C   LIG    1       -3.585   8.662  -0.411  0.00  0.00    +0.040 C 
ENDBRANCH  24  30
ENDBRANCH  23  25
ENDBRANCH   1  23
TORSDOF 9
