REMARK  Name = ZINCtj00001UqOuJ.0
REMARK                            x       y       z     vdW  Elec       q    Type
REMARK                         _______ _______ _______ _____ _____    ______ ____
ROOT
ATOM      1  N   LIG    1       -0.451   0.938   2.588  0.00  0.00    -0.370 N 
ATOM      2  C   LIG    1       -1.589   0.112   2.167  0.00  0.00    +0.250 C 
ATOM      3  C   LIG    1       -2.386  -0.330   3.396  0.00  0.00    +0.070 C 
ATOM      4  C   LIG    1       -2.899   0.908   4.137  0.00  0.00    +0.070 C 
ATOM      5  C   LIG    1       -1.710   1.800   4.506  0.00  0.00    -0.100 C 
ATOM      6  C   LIG    1       -2.218   3.077   5.177  0.00  0.00    +0.100 C 
ATOM      7  C   LIG    1       -0.939   2.162   3.235  0.00  0.00    +0.290 C 
ATOM      8  H   LIG    1        0.118   0.418   3.240  0.00  0.00    +0.440 HD
ENDROOT
BRANCH   5   9
ATOM      9  C   LIG    1       -0.802   1.060   5.454  0.00  0.00    +0.520 C 
ATOM     10  N   LIG    1       -1.224   0.767   6.700  0.00  0.00    -0.580 N 
ATOM     11  C   LIG    1       -2.603   1.062   7.113  0.00  0.00    +0.270 C 
ATOM     12  C   LIG    1       -3.232  -0.224   7.671  0.00  0.00    +0.050 C 
ATOM     13  C   LIG    1       -2.346  -0.774   8.790  0.00  0.00    -0.060 C 
ATOM     14  C   LIG    1       -0.965  -1.119   8.227  0.00  0.00    +0.040 C 
ATOM     15  C   LIG    1       -0.312   0.151   7.674  0.00  0.00    +0.280 C 
ATOM     16  O   LIG    1        0.308   0.728   5.096  0.00  0.00    -0.560 OA
BRANCH  13  17
ATOM     17  C   LIG    1       -2.199   0.280   9.889  0.00  0.00    +0.160 C 
BRANCH  17  18
ATOM     18  O   LIG    1       -3.489   0.602  10.415  0.00  0.00    -0.550 OA
ATOM     19  H   LIG    1       -3.472   1.266  11.118  0.00  0.00    +0.380 HD
ENDBRANCH  17  18
ENDBRANCH  13  17
BRANCH  13  20
ATOM     20  C   LIG    1       -2.987  -2.034   9.375  0.00  0.00    +0.170 C 
BRANCH  20  21
ATOM     21  O   LIG    1       -4.276  -1.713   9.900  0.00  0.00    -0.550 OA
ATOM     22  H   LIG    1       -4.742  -2.466  10.288  0.00  0.00    +0.380 HD
ENDBRANCH  20  21
ENDBRANCH  13  20
ENDBRANCH   5   9
BRANCH   1  23
ATOM     23  C   LIG    1        0.355   1.295   1.413  0.00  0.00    +0.280 C 
BRANCH  23  25
ATOM     24  N   LIG    1        1.812   0.140  -0.218  0.00  0.00    -0.580 N 
ATOM     25  C   LIG    1        0.961   0.048   0.823  0.00  0.00    +0.510 C 
ATOM     26  O   LIG    1        0.682  -1.039   1.283  0.00  0.00    -0.530 OA
BRANCH  24  28
ATOM     27  C   LIG    1        1.043   2.351  -0.925  0.00  0.00    +0.040 C 
ATOM     28  C   LIG    1        2.259   1.455  -0.685  0.00  0.00    +0.230 C 
ATOM     29  C   LIG    1        3.161   2.092   0.374  0.00  0.00    +0.020 C 
ENDBRANCH  24  28
BRANCH  24  30
ATOM     30  C   LIG    1        2.291  -1.075  -0.883  0.00  0.00    +0.240 C 
ATOM     31  C   LIG    1        3.821  -1.087  -0.883  0.00  0.00    +0.030 C 
ATOM     32  C   LIG    1        1.780  -1.102  -2.325  0.00  0.00    +0.040 C 
ENDBRANCH  24  30
ENDBRANCH  23  25
ENDBRANCH   1  23
TORSDOF 9
