REMARK  Name = ZINCrH000004udTo.1
REMARK                            x       y       z     vdW  Elec       q    Type
REMARK                         _______ _______ _______ _____ _____    ______ ____
ROOT
ATOM      1  N   LIG    1       -4.878   0.448   0.028  0.00  0.00    -0.540 NA
ATOM      2  C   LIG    1       -4.914  -0.308  -1.232  0.00  0.00    +0.190 C 
ATOM      3  C   LIG    1       -6.024  -1.359  -1.160  0.00  0.00    +0.210 C 
ATOM      4  N   LIG    1       -7.310  -0.694  -0.912  0.00  0.00    -0.490 N 
ATOM      5  C   LIG    1       -7.274   0.063   0.347  0.00  0.00    +0.200 C 
ATOM      6  C   LIG    1       -6.164   1.114   0.276  0.00  0.00    +0.200 C 
ENDROOT
BRANCH   4   7
ATOM      7  C   LIG    1       -8.360  -1.615  -0.912  0.00  0.00    +0.110 A 
ATOM      8  C   LIG    1       -9.197  -1.716   0.191  0.00  0.00    +0.000 A 
ATOM      9  C   LIG    1      -10.234  -2.629   0.187  0.00  0.00    +0.050 A 
ATOM     10  C   LIG    1      -10.439  -3.441  -0.913  0.00  0.00    +0.040 A 
ATOM     11  C   LIG    1       -9.607  -3.343  -2.013  0.00  0.00    -0.160 A 
ATOM     12  C   LIG    1       -8.571  -2.429  -2.018  0.00  0.00    +0.050 A 
BRANCH  11  13
ATOM     13  C   LIG    1       -9.834  -4.230  -3.211  0.00  0.00    +0.510 C 
ATOM     14  F   LIG    1       -8.697  -5.015  -3.432  0.00  0.00    -0.180 F 
ATOM     15  F   LIG    1      -10.080  -3.438  -4.337  0.00  0.00    -0.180 F 
ATOM     16  F   LIG    1      -10.935  -5.059  -2.974  0.00  0.00    -0.180 F 
ENDBRANCH  11  13
ENDBRANCH   4   7
BRANCH   1  17
ATOM     17  C   LIG    1       -3.774   1.418   0.028  0.00  0.00    +0.180 C 
BRANCH  17  18
ATOM     18  C   LIG    1       -2.439   0.671   0.017  0.00  0.00    +0.020 C 
BRANCH  18  19
ATOM     19  C   LIG    1       -1.290   1.681   0.017  0.00  0.00    +0.260 C 
BRANCH  19  22
ATOM     20  O   LIG    1        1.130   2.872   0.007  0.00  0.00    -0.530 OA
ATOM     21  C   LIG    1        1.147   1.655   0.000  0.00  0.00    +0.590 C 
ATOM     22  N   LIG    1       -0.011   0.966   0.007  0.00  0.00    -0.730 N 
ATOM     23  H   LIG    1        0.002  -0.004   0.002  0.00  0.00    +0.400 HD
BRANCH  21  24
ATOM     24  C   LIG    1        2.426   0.940  -0.016  0.00  0.00    -0.270 A 
ATOM     25  C   LIG    1        3.661   1.524  -0.025  0.00  0.00    +0.110 A 
ATOM     26  C   LIG    1        4.693   0.616  -0.040  0.00  0.00    +0.000 A 
ATOM     27  C   LIG    1        4.317  -0.669  -0.043  0.00  0.00    -0.050 A 
ATOM     28  S   LIG    1        2.617  -0.808  -0.020  0.00  0.00    +0.200 S 
ENDBRANCH  21  24
ENDBRANCH  19  22
ENDBRANCH  18  19
ENDBRANCH  17  18
ENDBRANCH   1  17
TORSDOF 7
