REMARK  Name = ZINCvU00000004Nd.0
REMARK                            x       y       z     vdW  Elec       q    Type
REMARK                         _______ _______ _______ _____ _____    ______ ____
ROOT
ATOM      1  C   LIG    1       -0.004   0.957  -2.313  0.00  0.00    +0.190 C 
ENDROOT
BRANCH   1   2
ATOM      2  N   LIG    1       -0.322   0.707  -0.900  0.00  0.00    -0.510 NA
ATOM      3  C   LIG    1       -1.728   0.312  -0.739  0.00  0.00    +0.200 C 
ATOM      4  C   LIG    1       -2.039   0.138   0.749  0.00  0.00    +0.210 C 
ATOM      5  N   LIG    1       -1.142  -0.876   1.320  0.00  0.00    -0.490 N 
ATOM      6  C   LIG    1        0.265  -0.481   1.158  0.00  0.00    +0.200 C 
ATOM      7  C   LIG    1        0.576  -0.308  -0.330  0.00  0.00    +0.190 C 
BRANCH   5   8
ATOM      8  C   LIG    1       -1.444  -1.113   2.663  0.00  0.00    +0.130 A 
ATOM      9  C   LIG    1       -2.727  -1.499   3.029  0.00  0.00    -0.010 A 
ATOM     10  C   LIG    1       -3.023  -1.734   4.358  0.00  0.00    +0.050 A 
ATOM     11  C   LIG    1       -2.045  -1.585   5.323  0.00  0.00    -0.010 A 
ATOM     12  C   LIG    1       -0.765  -1.200   4.962  0.00  0.00    -0.010 A 
ATOM     13 CL   LIG    1        0.461  -1.015   6.177  0.00  0.00    -0.070 Cl
ATOM     14  C   LIG    1       -0.461  -0.970   3.633  0.00  0.00    -0.020 A 
ENDBRANCH   5   8
ENDBRANCH   1   2
BRANCH   1  15
ATOM     15  C   LIG    1       -0.933   2.011  -2.857  0.00  0.00    -0.090 A 
ATOM     16  C   LIG    1       -1.207   3.143  -2.112  0.00  0.00    +0.050 A 
ATOM     17  C   LIG    1       -2.055   4.112  -2.614  0.00  0.00    +0.010 A 
ATOM     18  C   LIG    1       -2.637   3.945  -3.857  0.00  0.00    +0.010 A 
ATOM     19  C   LIG    1       -2.367   2.811  -4.600  0.00  0.00    +0.010 A 
ATOM     20  C   LIG    1       -1.515   1.844  -4.100  0.00  0.00    +0.010 A 
ENDBRANCH   1  15
BRANCH   1  23
ATOM     21  N   LIG    1        2.115   1.209  -3.563  0.00  0.00    -0.670 N 
ATOM     22  H   LIG    1        1.720   0.688  -4.279  0.00  0.00    +0.410 HD
ATOM     23  C   LIG    1        1.421   1.433  -2.430  0.00  0.00    +0.520 C 
ATOM     24  O   LIG    1        1.943   2.018  -1.505  0.00  0.00    -0.490 OA
BRANCH  21  29
ATOM     25  C   LIG    1        7.350   3.318  -4.147  0.00  0.00    +0.100 C 
ATOM     26  C   LIG    1        5.960   2.757  -3.991  0.00  0.00    -0.090 A 
ATOM     27  C   LIG    1        5.016   3.448  -3.254  0.00  0.00    +0.050 A 
ATOM     28  C   LIG    1        3.739   2.939  -3.114  0.00  0.00    +0.030 A 
ATOM     29  C   LIG    1        3.407   1.728  -3.707  0.00  0.00    +0.150 A 
ATOM     30  C   LIG    1        4.356   1.036  -4.447  0.00  0.00    +0.010 A 
ATOM     31  C   LIG    1        5.631   1.552  -4.588  0.00  0.00    -0.020 A 
ATOM     32 CL   LIG    1        6.819   0.689  -5.513  0.00  0.00    -0.060 Cl
ENDBRANCH  21  29
ENDBRANCH   1  23
TORSDOF 5
