REMARK  Name = ZINCtV00000L6jVP.0
REMARK                            x       y       z     vdW  Elec       q    Type
REMARK                         _______ _______ _______ _____ _____    ______ ____
ROOT
ATOM      1  C   LIG    1        4.387   8.907  -0.415  0.00  0.00    +0.510 C 
ATOM      2  O   LIG    1        5.515   8.457  -0.442  0.00  0.00    -0.500 OA
ENDROOT
BRANCH   1   3
ATOM      3  C   LIG    1        4.172  10.366  -0.507  0.00  0.00    -0.120 A 
ATOM      4  C   LIG    1        2.877  10.887  -0.482  0.00  0.00    +0.070 A 
ATOM      5  C   LIG    1        2.684  12.250  -0.564  0.00  0.00    -0.080 A 
ATOM      6  C   LIG    1        3.769  13.100  -0.682  0.00  0.00    +0.060 A 
ATOM      7  C   LIG    1        5.055  12.590  -0.713  0.00  0.00    -0.080 A 
ATOM      8  C   LIG    1        5.263  11.229  -0.626  0.00  0.00    +0.080 A 
BRANCH   7   9
ATOM      9  C   LIG    1        6.231  13.524  -0.841  0.00  0.00    -0.030 C 
ATOM     10  C   LIG    1        6.245  14.493   0.343  0.00  0.00    +0.040 C 
ATOM     11  C   LIG    1        6.115  14.315  -2.145  0.00  0.00    +0.040 C 
ATOM     12  C   LIG    1        7.528  12.712  -0.850  0.00  0.00    +0.030 C 
ENDBRANCH   7   9
BRANCH   5  13
ATOM     13  C   LIG    1        1.287  12.815  -0.531  0.00  0.00    -0.030 C 
ATOM     14  C   LIG    1        1.147  13.761   0.663  0.00  0.00    +0.040 C 
ATOM     15  C   LIG    1        0.278  11.672  -0.397  0.00  0.00    +0.030 C 
ATOM     16  C   LIG    1        1.017  13.584  -1.826  0.00  0.00    +0.040 C 
ENDBRANCH   5  13
ENDBRANCH   1   3
BRANCH   1  17
ATOM     17  O   LIG    1        3.333   8.077  -0.300  0.00  0.00    -0.330 OA
BRANCH  17  18
ATOM     18  C   LIG    1        3.619   6.656  -0.214  0.00  0.00    +0.270 C 
BRANCH  18  21
ATOM     19  N   LIG    1        2.346   4.546   0.003  0.00  0.00    -0.660 N 
ATOM     20  H   LIG    1        3.193   4.077   0.073  0.00  0.00    +0.420 HD
ATOM     21  C   LIG    1        2.326   5.890  -0.092  0.00  0.00    +0.520 C 
ATOM     22  O   LIG    1        1.269   6.483  -0.079  0.00  0.00    -0.490 OA
BRANCH  19  30
ATOM     23  C   LIG    1        2.313   1.982   1.238  0.00  0.00    +0.110 C 
ATOM     24  C   LIG    1        1.086   2.571   0.592  0.00  0.00    -0.110 A 
ATOM     25  C   LIG    1       -0.101   1.863   0.587  0.00  0.00    -0.020 A 
ATOM     26  C   LIG    1       -1.227   2.402  -0.012  0.00  0.00    +0.020 A 
ATOM     27  C   LIG    1       -1.170   3.653  -0.596  0.00  0.00    +0.050 A 
ATOM     28  C   LIG    1        0.013   4.366  -0.594  0.00  0.00    +0.030 A 
ATOM     29 CL   LIG    1       -0.178   0.294   1.325  0.00  0.00    -0.060 Cl
ATOM     30  C   LIG    1        1.146   3.826   0.000  0.00  0.00    +0.160 A 
ENDBRANCH  19  30
ENDBRANCH  18  21
ENDBRANCH  17  18
ENDBRANCH   1  17
TORSDOF 7
