REMARK  Name = ZINCrg000000tkPG.0
REMARK                            x       y       z     vdW  Elec       q    Type
REMARK                         _______ _______ _______ _____ _____    ______ ____
ROOT
ATOM      1  O   LIG    1       -5.500   2.284  -0.575  0.00  0.00    -0.500 OA
ATOM      2  C   LIG    1       -4.956   3.048  -1.350  0.00  0.00    +0.590 C 
ATOM      3  N   LIG    1       -3.669   3.399  -1.157  0.00  0.00    -0.700 N 
ATOM      4  H   LIG    1       -3.213   3.948  -1.815  0.00  0.00    +0.400 HD
ENDROOT
BRANCH   2   5
ATOM      5  C   LIG    1       -5.701   3.587  -2.494  0.00  0.00    -0.010 A 
ATOM      6  C   LIG    1       -5.945   2.959  -3.685  0.00  0.00    -0.040 A 
ATOM      7  N   LIG    1       -6.654   3.792  -4.448  0.00  0.00    -0.450 NA
ATOM      8  C   LIG    1       -6.868   4.906  -3.802  0.00  0.00    +0.240 A 
ATOM      9  C   LIG    1       -7.628   6.115  -4.296  0.00  0.00    +0.170 C 
ATOM     10  C   LIG    1       -7.965   6.998  -3.088  0.00  0.00    +0.030 C 
ATOM     11  C   LIG    1       -6.702   7.204  -2.247  0.00  0.00    +0.050 C 
ATOM     12  C   LIG    1       -6.317   5.883  -1.572  0.00  0.00    +0.290 C 
ATOM     13  N   LIG    1       -6.298   4.822  -2.582  0.00  0.00    -0.420 N 
BRANCH   6  14
ATOM     14  C   LIG    1       -5.493   1.573  -4.066  0.00  0.00    +0.550 C 
ATOM     15  F   LIG    1       -4.293   1.277  -3.411  0.00  0.00    -0.170 F 
ATOM     16  F   LIG    1       -5.297   1.510  -5.450  0.00  0.00    -0.160 F 
ATOM     17  F   LIG    1       -6.470   0.644  -3.692  0.00  0.00    -0.170 F 
ENDBRANCH   6  14
ENDBRANCH   2   5
BRANCH   3  18
ATOM     18  C   LIG    1       -2.959   2.952   0.044  0.00  0.00    +0.260 C 
BRANCH  18  19
ATOM     19  C   LIG    1       -1.525   3.485   0.016  0.00  0.00    +0.030 C 
ATOM     20  C   LIG    1       -0.806   2.955  -1.227  0.00  0.00    +0.240 C 
ATOM     21  O   LIG    1       -0.717   1.530  -1.150  0.00  0.00    -0.370 OA
ATOM     22  C   LIG    1       -0.024   1.058   0.008  0.00  0.00    +0.220 C 
ATOM     23  C   LIG    1       -0.735   1.567   1.265  0.00  0.00    +0.150 C 
ATOM     24  C   LIG    1       -1.548   5.015  -0.023  0.00  0.00    +0.250 C 
ATOM     25  O   LIG    1       -2.144   5.510   1.178  0.00  0.00    -0.380 OA
ATOM     26  C   LIG    1       -1.467   5.098   2.369  0.00  0.00    +0.220 C 
ATOM     27  C   LIG    1       -1.445   3.569   2.434  0.00  0.00    +0.150 C 
ATOM     28  N   LIG    1       -0.810   3.035   1.220  0.00  0.00    -0.510 NA
ENDBRANCH  18  19
ENDBRANCH   3  18
TORSDOF 4
