REMARK  Name = ZINCpe00000MIiJu.0
REMARK                            x       y       z     vdW  Elec       q    Type
REMARK                         _______ _______ _______ _____ _____    ______ ____
ROOT
ATOM      1  N   LIG    1        6.040   2.811  -3.539  0.00  0.00    -0.540 N 
ATOM      2  C   LIG    1        6.023   1.973  -4.731  0.00  0.00    +0.270 C 
ATOM      3  C   LIG    1        5.109   0.765  -4.524  0.00  0.00    +0.040 C 
ATOM      4  C   LIG    1        3.751   1.260  -4.010  0.00  0.00    +0.050 C 
ATOM      5  C   LIG    1        3.944   1.825  -2.600  0.00  0.00    +0.270 C 
ATOM      6  C   LIG    1        5.108   2.774  -2.585  0.00  0.00    +0.500 C 
ATOM      7  O   LIG    1        5.206   3.548  -1.657  0.00  0.00    -0.480 OA
ENDROOT
BRANCH   1  12
ATOM      8  C   LIG    1        8.835   6.940  -3.762  0.00  0.00    +0.160 C 
ATOM      9  C   LIG    1        8.369   5.537  -3.469  0.00  0.00    +0.080 A 
ATOM     10  N   LIG    1        9.053   4.619  -2.835  0.00  0.00    -0.280 NA
ATOM     11  N   LIG    1        8.275   3.456  -2.768  0.00  0.00    -0.370 N 
ATOM     12  C   LIG    1        7.098   3.707  -3.385  0.00  0.00    +0.300 A 
ATOM     13  C   LIG    1        8.667   2.192  -2.141  0.00  0.00    +0.350 C 
ATOM     14  C   LIG    1        7.134   4.992  -3.833  0.00  0.00    -0.090 A 
ENDBRANCH   1  12
BRANCH   5  15
ATOM     15  N   LIG    1        4.200   0.726  -1.666  0.00  0.00    -1.100 NA
ATOM     16  H   LIG    1        4.714  -0.045  -1.953  0.00  0.00    +0.420 HD
BRANCH  15  17
ATOM     17  S   LIG    1        3.613   0.800  -0.119  0.00  0.00    +2.720 S 
ATOM     18  O   LIG    1        3.996  -0.413   0.514  0.00  0.00    -0.950 OA
ATOM     19  O   LIG    1        3.964   2.083   0.382  0.00  0.00    -0.910 OA
BRANCH  17  20
ATOM     20  C   LIG    1        1.855   0.772  -0.227  0.00  0.00    -0.800 A 
ATOM     21  C   LIG    1        1.036  -0.307  -0.222  0.00  0.00    +0.120 A 
ATOM     22  O   LIG    1       -0.214   0.166  -0.323  0.00  0.00    +0.100 OA
ATOM     23  N   LIG    1       -0.230   1.373  -0.387  0.00  0.00    -0.360 NA
ATOM     24  C   LIG    1        1.449  -1.752  -0.121  0.00  0.00    +0.220 C 
ATOM     25  C   LIG    1        0.972   1.871  -0.338  0.00  0.00    +0.110 A 
ATOM     26  C   LIG    1        1.348   3.329  -0.391  0.00  0.00    +0.180 C 
ENDBRANCH  17  20
ENDBRANCH  15  17
ENDBRANCH   5  15
TORSDOF 4
