REMARK  Name = ZINCpk00000xIigO.0
REMARK                            x       y       z     vdW  Elec       q    Type
REMARK                         _______ _______ _______ _____ _____    ______ ____
ROOT
ATOM      1  N   LIG    1        4.807   0.127  -0.043  0.00  0.00    -0.520 N 
ATOM      2  C   LIG    1        3.702  -0.653  -0.036  0.00  0.00    +0.560 A 
ATOM      3  C   LIG    1        2.396   0.022  -0.020  0.00  0.00    -0.190 A 
ATOM      4  C   LIG    1        1.198  -0.689  -0.013  0.00  0.00    +0.100 A 
ATOM      5  C   LIG    1        0.002  -0.004   0.002  0.00  0.00    +0.010 A 
ATOM      6  C   LIG    1       -0.017   1.384   0.010  0.00  0.00    +0.070 A 
ATOM      7  C   LIG    1        1.156   2.106   0.002  0.00  0.00    +0.040 A 
ATOM      8  C   LIG    1        2.380   1.435  -0.013  0.00  0.00    +0.150 A 
ATOM      9  N   LIG    1        3.559   2.106  -0.021  0.00  0.00    -0.510 NA
ATOM     10  O   LIG    1        3.785  -1.868  -0.043  0.00  0.00    -0.500 OA
ATOM     11  C   LIG    1        4.698   1.481  -0.035  0.00  0.00    +0.420 A 
ENDROOT
BRANCH   1  12
ATOM     12  C   LIG    1        6.134  -0.494  -0.059  0.00  0.00    +0.330 C 
BRANCH  12  16
ATOM     13  N   LIG    1        7.805  -1.277   1.589  0.00  0.00    -0.840 N 
ATOM     14  H   LIG    1        8.106  -1.418   2.499  0.00  0.00    +0.410 HD
ATOM     15  H   LIG    1        8.369  -1.540   0.845  0.00  0.00    +0.410 HD
ATOM     16  C   LIG    1        6.602  -0.714   1.356  0.00  0.00    +0.500 C 
ATOM     17  O   LIG    1        5.897  -0.384   2.287  0.00  0.00    -0.530 OA
ENDBRANCH  12  16
ENDBRANCH   1  12
BRANCH  11  18
ATOM     18  C   LIG    1        5.963   2.301  -0.044  0.00  0.00    +0.170 C 
BRANCH  18  19
ATOM     19  S   LIG    1        5.541   4.061  -0.032  0.00  0.00    +0.180 S 
BRANCH  19  20
ATOM     20  C   LIG    1        7.157   4.762  -0.045  0.00  0.00    +0.110 A 
ATOM     21  N   LIG    1        8.291   4.104  -0.053  0.00  0.00    -0.290 NA
ATOM     22  N   LIG    1        9.269   4.940  -0.065  0.00  0.00    -0.280 NA
ATOM     23  C   LIG    1        8.804   6.154  -0.055  0.00  0.00    +0.200 A 
ATOM     24  O   LIG    1        7.458   6.075  -0.042  0.00  0.00    -0.200 OA
BRANCH  23  25
ATOM     25  C   LIG    1        9.621   7.421  -0.057  0.00  0.00    +0.050 C 
ATOM     26  C   LIG    1       11.129   7.288  -0.279  0.00  0.00    +0.080 C 
ATOM     27  C   LIG    1       10.587   7.640   1.109  0.00  0.00    +0.060 C 
ENDBRANCH  23  25
ENDBRANCH  19  20
ENDBRANCH  18  19
ENDBRANCH  11  18
TORSDOF 6
