REMARK  Name = ZINCqH0000003JW1.0
REMARK                            x       y       z     vdW  Elec       q    Type
REMARK                         _______ _______ _______ _____ _____    ______ ____
ROOT
ATOM      1  C   LIG    1       -0.018   1.220   0.026  0.00  0.00    +0.520 C 
ATOM      2  N   LIG    1       -1.196   1.874   0.033  0.00  0.00    -0.670 N 
ATOM      3  H   LIG    1       -1.214   2.840   0.114  0.00  0.00    +0.430 HD
ATOM      4  O   LIG    1        0.003   0.007   0.005  0.00  0.00    -0.490 OA
ENDROOT
BRANCH   2   5
ATOM      5  C   LIG    1       -2.394   1.159  -0.079  0.00  0.00    +0.230 A 
ATOM      6  C   LIG    1       -2.513  -0.095   0.506  0.00  0.00    +0.060 A 
ATOM      7  C   LIG    1       -3.696  -0.799   0.396  0.00  0.00    +0.130 A 
ATOM      8  C   LIG    1       -4.763  -0.255  -0.297  0.00  0.00    -0.060 A 
ATOM      9  C   LIG    1       -4.648   0.994  -0.882  0.00  0.00    +0.140 A 
ATOM     10 CL   LIG    1       -6.249  -1.142  -0.434  0.00  0.00    -0.030 Cl
ATOM     11  C   LIG    1       -3.469   1.704  -0.769  0.00  0.00    -0.070 A 
BRANCH  11  12
ATOM     12  N   LIG    1       -3.348   3.043  -1.389  0.00  0.00    +0.040 N 
ATOM     13  O   LIG    1       -2.278   3.624  -1.379  0.00  0.00    -0.170 OA
ATOM     14  O   LIG    1       -4.319   3.563  -1.909  0.00  0.00    -0.140 OA
ENDBRANCH  11  12
ENDBRANCH   2   5
BRANCH   1  15
ATOM     15  C   LIG    1        1.274   1.996   0.038  0.00  0.00    +0.230 C 
BRANCH  15  16
ATOM     16  N   LIG    1        2.407   1.060   0.021  0.00  0.00    -0.520 NA
ATOM     17  C   LIG    1        2.457   0.317  -1.245  0.00  0.00    +0.190 C 
BRANCH  16  18
ATOM     18  C   LIG    1        3.673   1.762   0.270  0.00  0.00    +0.240 C 
BRANCH  18  22
ATOM     19  C   LIG    1        6.788  -1.096   0.892  0.00  0.00    +0.130 A 
ATOM     20  C   LIG    1        6.515  -0.634  -0.387  0.00  0.00    -0.020 A 
ATOM     21  C   LIG    1        5.507   0.290  -0.586  0.00  0.00    +0.060 A 
ATOM     22  C   LIG    1        4.772   0.754   0.489  0.00  0.00    -0.120 A 
ATOM     23  C   LIG    1        5.046   0.299   1.766  0.00  0.00    +0.080 A 
ATOM     24  C   LIG    1        6.049  -0.630   1.968  0.00  0.00    -0.080 A 
BRANCH  19  25
ATOM     25  O   LIG    1        7.780  -2.005   1.089  0.00  0.00    -0.320 OA
BRANCH  25  27
ATOM     26  C   LIG    1        9.151  -3.451   2.457  0.00  0.00    +0.070 C 
ATOM     27  C   LIG    1        8.006  -2.436   2.433  0.00  0.00    +0.170 C 
ENDBRANCH  25  27
ENDBRANCH  19  25
ENDBRANCH  18  22
ENDBRANCH  16  18
ENDBRANCH  15  16
ENDBRANCH   1  15
TORSDOF 8
