REMARK  Name = ZINCqH0000004Rxv.0
REMARK                            x       y       z     vdW  Elec       q    Type
REMARK                         _______ _______ _______ _____ _____    ______ ____
ROOT
ATOM      1  N   LIG    1       -2.358   0.923   0.055  0.00  0.00    -0.510 N 
ATOM      2  C   LIG    1       -3.486   1.342   0.838  0.00  0.00    +0.250 C 
ATOM      3  C   LIG    1       -4.336   2.385   0.148  0.00  0.00    -0.040 C 
ATOM      4  C   LIG    1       -3.667   3.713   0.123  0.00  0.00    +0.520 C 
ATOM      5  N   LIG    1       -2.383   3.931   0.003  0.00  0.00    -0.650 N 
ATOM      6  H   LIG    1       -2.173   4.869  -0.127  0.00  0.00    +0.400 HD
ATOM      7  C   LIG    1       -1.259   3.129   0.019  0.00  0.00    +0.150 A 
ATOM      8  C   LIG    1       -0.037   3.819   0.011  0.00  0.00    -0.020 A 
ATOM      9  C   LIG    1        1.164   3.149   0.005  0.00  0.00    +0.050 A 
ATOM     10  C   LIG    1        1.178   1.767   0.000  0.00  0.00    -0.010 A 
ATOM     11  C   LIG    1       -0.013   1.076   0.008  0.00  0.00    +0.060 A 
ATOM     12  O   LIG    1       -4.381   4.688   0.225  0.00  0.00    -0.530 OA
ATOM     13  C   LIG    1       -5.669   2.512   0.888  0.00  0.00    +0.070 C 
ATOM     14  C   LIG    1       -1.243   1.746   0.018  0.00  0.00    +0.070 A 
ENDROOT
BRANCH   1  15
ATOM     15  C   LIG    1       -2.772   0.544  -1.303  0.00  0.00    +0.310 C 
BRANCH  15  25
ATOM     16  N   LIG    1       -1.358  -1.453  -2.001  0.00  0.00    -0.480 N 
ATOM     17  C   LIG    1       -0.225  -1.657  -2.763  0.00  0.00    +0.080 A 
ATOM     18  C   LIG    1        0.512  -2.780  -3.115  0.00  0.00    +0.010 A 
ATOM     19  C   LIG    1        1.627  -2.646  -3.914  0.00  0.00    +0.070 A 
ATOM     20  C   LIG    1        2.020  -1.397  -4.371  0.00  0.00    -0.030 A 
ATOM     21  C   LIG    1        1.301  -0.270  -4.032  0.00  0.00    +0.160 A 
ATOM     22  F   LIG    1        1.690   0.943  -4.481  0.00  0.00    -0.130 F 
ATOM     23  C   LIG    1        0.167  -0.389  -3.222  0.00  0.00    +0.010 A 
ATOM     24  N   LIG    1       -0.730   0.505  -2.732  0.00  0.00    -0.460 NA
ATOM     25  C   LIG    1       -1.619  -0.117  -2.013  0.00  0.00    +0.290 A 
BRANCH  16  27
ATOM     26  C   LIG    1       -3.227  -3.012  -2.240  0.00  0.00    +0.030 C 
ATOM     27  C   LIG    1       -2.135  -2.483  -1.308  0.00  0.00    +0.290 C 
ENDBRANCH  16  27
ENDBRANCH  15  25
ENDBRANCH   1  15
TORSDOF 3
