REMARK  Name = ZINCkj00000dDK45.0
REMARK                            x       y       z     vdW  Elec       q    Type
REMARK                         _______ _______ _______ _____ _____    ______ ____
ROOT
ATOM      1  N   LIG    1       -0.425  -0.133  -2.913  0.00  0.00    -0.700 N 
ATOM      2  H   LIG    1        0.490   0.178  -2.987  0.00  0.00    +0.420 HD
ATOM      3  C   LIG    1       -1.273   0.464  -2.053  0.00  0.00    +0.510 C 
ATOM      4  O   LIG    1       -2.418   0.075  -1.961  0.00  0.00    -0.520 OA
ENDROOT
BRANCH   3   5
ATOM      5  C   LIG    1       -0.799   1.616  -1.205  0.00  0.00    +0.180 C 
ATOM      6  C   LIG    1       -0.013   1.086   0.008  0.00  0.00    +0.120 C 
ATOM      7  C   LIG    1       -0.778   1.605   1.246  0.00  0.00    +0.190 C 
ATOM      8  C   LIG    1       -1.565   2.817   0.682  0.00  0.00    +0.260 C 
ATOM      9  N   LIG    1       -1.960   2.365  -0.676  0.00  0.00    -0.500 N 
ATOM     10  H   LIG    1       -2.767   1.762  -0.622  0.00  0.00    +0.440 HD
ATOM     11  H   LIG    1       -2.158   3.160  -1.264  0.00  0.00    +0.440 HD
BRANCH   7  12
ATOM     12  O   LIG    1        0.132   2.022   2.266  0.00  0.00    -0.530 OA
ATOM     13  H   LIG    1       -0.298   2.356   3.065  0.00  0.00    +0.400 HD
ENDBRANCH   7  12
ENDBRANCH   3   5
BRANCH   1  15
ATOM     14  C   LIG    1       -1.557  -0.713  -5.003  0.00  0.00    +0.060 C 
ATOM     15  C   LIG    1       -0.886  -1.253  -3.738  0.00  0.00    +0.360 C 
BRANCH  15  16
ATOM     16  C   LIG    1        0.290  -2.113  -4.121  0.00  0.00    -0.010 A 
ATOM     17  C   LIG    1        0.281  -3.452  -4.161  0.00  0.00    +0.000 A 
ATOM     18  C   LIG    1        1.627  -3.858  -4.582  0.00  0.00    -0.140 A 
ATOM     19  C   LIG    1        2.248  -5.085  -4.809  0.00  0.00    +0.060 A 
ATOM     20  C   LIG    1        3.566  -5.117  -5.210  0.00  0.00    +0.010 A 
ATOM     21  C   LIG    1        4.272  -3.937  -5.385  0.00  0.00    +0.060 A 
ATOM     22  C   LIG    1        3.670  -2.716  -5.164  0.00  0.00    +0.020 A 
ATOM     23  C   LIG    1        2.342  -2.662  -4.760  0.00  0.00    +0.060 A 
ATOM     24  O   LIG    1        1.500  -1.647  -4.478  0.00  0.00    -0.200 OA
ENDBRANCH  15  16
ENDBRANCH   1  15
TORSDOF 4
