REMARK  Name = ZINCtV00000vBNik.0
REMARK                            x       y       z     vdW  Elec       q    Type
REMARK                         _______ _______ _______ _____ _____    ______ ____
ROOT
ATOM      1  N   LIG    1        2.290  -3.353  -2.473  0.00  0.00    -0.740 N 
ATOM      2  H   LIG    1        2.548  -2.623  -1.889  0.00  0.00    +0.390 HD
ATOM      3  C   LIG    1        2.819  -4.580  -2.293  0.00  0.00    +0.710 C 
ATOM      4  N   LIG    1        3.708  -4.792  -1.302  0.00  0.00    -0.740 N 
ATOM      5  H   LIG    1        3.966  -4.062  -0.718  0.00  0.00    +0.390 HD
ATOM      6  O   LIG    1        2.496  -5.495  -3.026  0.00  0.00    -0.580 OA
ENDROOT
BRANCH   4   7
ATOM      7  C   LIG    1        4.283  -6.125  -1.107  0.00  0.00    +0.270 C 
ATOM      8  C   LIG    1        3.902  -6.665   0.282  0.00  0.00    +0.010 C 
ATOM      9  C   LIG    1        5.223  -6.896   1.043  0.00  0.00    +0.010 C 
ATOM     10  C   LIG    1        6.232  -5.947   0.350  0.00  0.00    +0.020 C 
ATOM     11  C   LIG    1        5.824  -6.045  -1.141  0.00  0.00    +0.010 C 
BRANCH  11  12
ATOM     12  C   LIG    1        6.272  -4.819  -1.893  0.00  0.00    -0.000 A 
ATOM     13  C   LIG    1        6.274  -3.587  -1.266  0.00  0.00    +0.000 A 
ATOM     14  C   LIG    1        6.689  -2.462  -1.954  0.00  0.00    +0.050 A 
ATOM     15  C   LIG    1        7.094  -2.568  -3.272  0.00  0.00    +0.000 A 
ATOM     16  C   LIG    1        7.087  -3.799  -3.900  0.00  0.00    +0.070 A 
ATOM     17  C   LIG    1        6.676  -4.924  -3.211  0.00  0.00    -0.180 A 
BRANCH  17  18
ATOM     18  C   LIG    1        6.668  -6.267  -3.896  0.00  0.00    +0.500 C 
ATOM     19  F   LIG    1        5.367  -6.781  -3.899  0.00  0.00    -0.170 F 
ATOM     20  F   LIG    1        7.515  -7.145  -3.211  0.00  0.00    -0.180 F 
ATOM     21  F   LIG    1        7.114  -6.120  -5.214  0.00  0.00    -0.180 F 
ENDBRANCH  17  18
ENDBRANCH  11  12
ENDBRANCH   4   7
BRANCH   1  23
ATOM     22  C   LIG    1        0.130  -4.063  -3.375  0.00  0.00    +0.040 C 
ATOM     23  C   LIG    1        1.324  -3.123  -3.550  0.00  0.00    +0.240 C 
ATOM     24  C   LIG    1        1.992  -3.393  -4.900  0.00  0.00    +0.050 C 
BRANCH  23  25
ATOM     25  C   LIG    1        0.849  -1.693  -3.502  0.00  0.00    -0.080 A 
ATOM     26  C   LIG    1        0.916  -0.983  -2.318  0.00  0.00    +0.020 A 
ATOM     27  C   LIG    1        0.480   0.328  -2.273  0.00  0.00    +0.040 A 
ATOM     28  C   LIG    1       -0.023   0.929  -3.413  0.00  0.00    -0.040 A 
ATOM     29  C   LIG    1       -0.089   0.218  -4.598  0.00  0.00    +0.040 A 
ATOM     30 CL   LIG    1       -0.571   2.575  -3.357  0.00  0.00    -0.070 Cl
ATOM     31  C   LIG    1        0.347  -1.093  -4.641  0.00  0.00    +0.040 A 
ENDBRANCH  23  25
ENDBRANCH   1  23
TORSDOF 5
