REMARK  Name = ZINCah0000002mVf.0
REMARK                            x       y       z     vdW  Elec       q    Type
REMARK                         _______ _______ _______ _____ _____    ______ ____
ROOT
ATOM      1  C   LIG    1       -0.752   1.584   1.268  0.00  0.00    +0.000 C 
ATOM      2  C   LIG    1       -0.087   0.990   0.025  0.00  0.00    +0.030 C 
ATOM      3  C   LIG    1       -0.836   1.494  -1.214  0.00  0.00    +0.020 C 
ATOM      4  C   LIG    1       -0.599   2.999  -1.351  0.00  0.00    +0.260 C 
ATOM      5  N   LIG    1       -0.884   3.676  -0.092  0.00  0.00    -0.720 N 
ATOM      6  H   LIG    1       -1.046   4.632  -0.117  0.00  0.00    +0.400 HD
ATOM      7  C   LIG    1       -0.936   3.064   1.091  0.00  0.00    +0.520 C 
ATOM      8  O   LIG    1       -1.142   3.739   2.078  0.00  0.00    -0.550 OA
ENDROOT
BRANCH   1  10
ATOM      9  C   LIG    1        0.294  -0.185   2.690  0.00  0.00    +0.030 C 
ATOM     10  C   LIG    1        0.131   1.323   2.490  0.00  0.00    +0.000 C 
ATOM     11  C   LIG    1        1.505   1.960   2.272  0.00  0.00    +0.020 C 
ENDBRANCH   1  10
TORSDOF 1
