REMARK  Name = ZINCvU0000000Al2.0
REMARK                            x       y       z     vdW  Elec       q    Type
REMARK                         _______ _______ _______ _____ _____    ______ ____
ROOT
ATOM      1  C   LIG    1       -4.010  -1.485   0.032  0.00  0.00    -0.120 A 
ATOM      2  C   LIG    1       -3.363  -1.236  -1.180  0.00  0.00    +0.090 A 
ATOM      3  C   LIG    1       -2.069  -0.758  -1.182  0.00  0.00    +0.040 A 
ATOM      4  C   LIG    1       -1.412  -0.526   0.013  0.00  0.00    -0.060 A 
ATOM      5  C   LIG    1       -2.044  -0.776   1.218  0.00  0.00    +0.030 A 
ATOM      6  C   LIG    1       -3.341  -1.248   1.235  0.00  0.00    +0.040 A 
ENDROOT
BRANCH   1   8
ATOM      7  O   LIG    1       -5.976  -2.203  -1.006  0.00  0.00    -0.490 OA
ATOM      8  C   LIG    1       -5.396  -1.997   0.043  0.00  0.00    +0.580 C 
ATOM      9  N   LIG    1       -6.017  -2.237   1.215  0.00  0.00    -0.580 N 
ATOM     10  H   LIG    1       -5.554  -2.073   2.051  0.00  0.00    +0.390 HD
BRANCH   9  11
ATOM     11  N   LIG    1       -7.331  -2.722   1.225  0.00  0.00    -0.210 NA
ATOM     12  C   LIG    1       -7.929  -2.953   2.353  0.00  0.00    +0.230 C 
BRANCH  12  13
ATOM     13  C   LIG    1       -9.312  -3.464   2.364  0.00  0.00    -0.010 A 
ATOM     14  C   LIG    1      -10.001  -3.703   1.167  0.00  0.00    +0.020 A 
ATOM     15  C   LIG    1      -11.291  -4.186   1.224  0.00  0.00    +0.260 A 
ATOM     16  N   LIG    1      -11.879  -4.414   2.383  0.00  0.00    -0.480 NA
ATOM     17  C   LIG    1      -11.269  -4.198   3.533  0.00  0.00    +0.260 A 
ATOM     18  C   LIG    1       -9.976  -3.720   3.571  0.00  0.00    -0.010 A 
ENDBRANCH  12  13
ENDBRANCH   9  11
ENDBRANCH   1   8
BRANCH   4  19
ATOM     19  C   LIG    1        0.002  -0.004   0.002  0.00  0.00    +0.250 C 
BRANCH  19  20
ATOM     20  O   LIG    1       -0.017   1.425   0.010  0.00  0.00    -0.300 OA
BRANCH  20  21
ATOM     21  C   LIG    1        1.185   2.058   0.002  0.00  0.00    +0.140 A 
ATOM     22  C   LIG    1        2.358   1.322  -0.008  0.00  0.00    -0.080 A 
ATOM     23  C   LIG    1        3.580   1.967  -0.022  0.00  0.00    +0.050 A 
ATOM     24  C   LIG    1        3.640   3.349  -0.015  0.00  0.00    -0.020 A 
ATOM     25  C   LIG    1        2.478   4.095   0.000  0.00  0.00    +0.060 A 
ATOM     26  C   LIG    1        1.242   3.455   0.009  0.00  0.00    -0.080 A 
BRANCH  26  27
ATOM     27  C   LIG    1       -0.009   4.252   0.025  0.00  0.00    -0.040 A 
ATOM     28  C   LIG    1       -1.022   3.983  -0.893  0.00  0.00    +0.030 A 
ATOM     29  C   LIG    1       -2.186   4.724  -0.870  0.00  0.00    +0.000 A 
ATOM     30  C   LIG    1       -2.344   5.740   0.056  0.00  0.00    +0.000 A 
ATOM     31  C   LIG    1       -1.340   6.014   0.967  0.00  0.00    +0.000 A 
ATOM     32  C   LIG    1       -0.174   5.276   0.956  0.00  0.00    +0.010 A 
ENDBRANCH  26  27
ENDBRANCH  20  21
ENDBRANCH  19  20
ENDBRANCH   4  19
TORSDOF 7
