REMARK  Name = ZINCvU0000000Es9.0
REMARK                            x       y       z     vdW  Elec       q    Type
REMARK                         _______ _______ _______ _____ _____    ______ ____
ROOT
ATOM      1  C   LIG    1       -3.741   2.149   0.032  0.00  0.00    +0.320 C 
ENDROOT
BRANCH   1   2
ATOM      2  C   LIG    1       -4.111   2.495   1.451  0.00  0.00    -0.100 A 
ATOM      3  C   LIG    1       -3.894   1.581   2.465  0.00  0.00    +0.020 A 
ATOM      4  C   LIG    1       -4.230   1.901   3.767  0.00  0.00    +0.000 A 
ATOM      5  C   LIG    1       -4.791   3.131   4.054  0.00  0.00    +0.000 A 
ATOM      6  C   LIG    1       -5.013   4.043   3.039  0.00  0.00    +0.000 A 
ATOM      7  C   LIG    1       -4.673   3.725   1.738  0.00  0.00    +0.020 A 
ENDBRANCH   1   2
BRANCH   1   8
ATOM      8  N   LIG    1       -2.464   1.430   0.021  0.00  0.00    -0.710 N 
ATOM      9  H   LIG    1       -2.454   0.460   0.016  0.00  0.00    +0.390 HD
ATOM     10  C   LIG    1       -1.304   2.116   0.020  0.00  0.00    +0.560 C 
ATOM     11  O   LIG    1       -1.318   3.332   0.026  0.00  0.00    -0.510 OA
BRANCH  10  12
ATOM     12  C   LIG    1       -0.017   1.392   0.010  0.00  0.00    -0.130 A 
ATOM     13  C   LIG    1        0.002  -0.004   0.002  0.00  0.00    +0.050 A 
ATOM     14  C   LIG    1        1.207  -0.675  -0.013  0.00  0.00    +0.020 A 
ATOM     15  C   LIG    1        2.397   0.033  -0.021  0.00  0.00    +0.060 A 
ATOM     16  C   LIG    1        2.387   1.416  -0.013  0.00  0.00    +0.020 A 
ATOM     17  C   LIG    1        1.188   2.100   0.002  0.00  0.00    +0.010 A 
ATOM     18 CL   LIG    1        1.176   3.836   0.011  0.00  0.00    -0.030 Cl
ENDBRANCH  10  12
ENDBRANCH   1   8
BRANCH   1  19
ATOM     19  C   LIG    1       -4.830   1.263  -0.578  0.00  0.00    +0.060 C 
BRANCH  19  21
ATOM     20  O   LIG    1       -3.529   1.503  -2.533  0.00  0.00    -0.520 OA
ATOM     21  C   LIG    1       -4.522   1.017  -2.032  0.00  0.00    +0.510 C 
ATOM     22  N   LIG    1       -5.349   0.258  -2.778  0.00  0.00    -0.730 N 
ATOM     23  H   LIG    1       -6.143  -0.130  -2.377  0.00  0.00    +0.400 HD
BRANCH  22  24
ATOM     24  C   LIG    1       -5.050   0.019  -4.192  0.00  0.00    +0.230 C 
ATOM     25  C   LIG    1       -5.594   1.177  -5.031  0.00  0.00    +0.030 C 
ATOM     26  C   LIG    1       -7.109   1.277  -4.840  0.00  0.00    +0.040 C 
ATOM     27  C   LIG    1       -7.767  -0.030  -5.287  0.00  0.00    -0.010 C 
ATOM     28  C   LIG    1       -7.222  -1.188  -4.448  0.00  0.00    +0.030 C 
ATOM     29  C   LIG    1       -5.707  -1.288  -4.638  0.00  0.00    +0.050 C 
BRANCH  27  30
ATOM     30  C   LIG    1       -9.281   0.069  -5.096  0.00  0.00    +0.450 C 
ATOM     31  F   LIG    1       -9.883  -1.126  -5.504  0.00  0.00    -0.180 F 
ATOM     32  F   LIG    1       -9.779   1.128  -5.863  0.00  0.00    -0.180 F 
ATOM     33  F   LIG    1       -9.567   0.297  -3.745  0.00  0.00    -0.180 F 
ENDBRANCH  27  30
ENDBRANCH  22  24
ENDBRANCH  19  21
ENDBRANCH   1  19
TORSDOF 7
