REMARK  Name = ZINCrD0000075R6G.0
REMARK                            x       y       z     vdW  Elec       q    Type
REMARK                         _______ _______ _______ _____ _____    ______ ____
ROOT
ATOM      1  C   LIG    1        5.971   0.824   2.888  0.00  0.00    +0.290 C 
ATOM      2  C   LIG    1        5.525   2.094   3.643  0.00  0.00    +0.070 C 
ATOM      3  C   LIG    1        6.796   2.488   4.441  0.00  0.00    +0.050 C 
ATOM      4  C   LIG    1        7.920   2.092   3.452  0.00  0.00    +0.250 C 
ATOM      5  N   LIG    1        7.439   0.856   2.808  0.00  0.00    -0.620 N 
ATOM      6  C   LIG    1        8.216  -0.088   2.241  0.00  0.00    +0.730 C 
ATOM      7  N   LIG    1        9.555   0.058   2.231  0.00  0.00    -0.740 N 
ATOM      8  H   LIG    1        9.961   0.842   2.634  0.00  0.00    +0.390 HD
ATOM      9  O   LIG    1        7.708  -1.071   1.737  0.00  0.00    -0.570 OA
ENDROOT
BRANCH   7  10
ATOM     10  C   LIG    1       10.400  -0.968   1.614  0.00  0.00    +0.250 C 
ATOM     11  C   LIG    1       10.675  -2.080   2.628  0.00  0.00    +0.000 C 
ATOM     12  C   LIG    1       11.556  -3.151   1.984  0.00  0.00    +0.010 C 
ATOM     13  C   LIG    1       12.880  -2.525   1.543  0.00  0.00    +0.000 C 
ATOM     14  C   LIG    1       12.605  -1.413   0.528  0.00  0.00    +0.020 C 
ATOM     15  C   LIG    1       11.724  -0.341   1.173  0.00  0.00    +0.010 C 
ENDBRANCH   7  10
BRANCH   1  17
ATOM     16  O   LIG    1        6.109   0.839   0.536  0.00  0.00    -0.480 OA
ATOM     17  C   LIG    1        5.382   0.818   1.501  0.00  0.00    +0.460 C 
BRANCH  17  18
ATOM     18  O   LIG    1        4.050   0.790   1.337  0.00  0.00    -0.350 OA
BRANCH  18  19
ATOM     19  C   LIG    1        3.554   0.787  -0.027  0.00  0.00    +0.390 C 
BRANCH  19  20
ATOM     20  C   LIG    1        2.047   0.754  -0.013  0.00  0.00    +0.240 A 
ATOM     21  N   LIG    1        1.282   1.804  -0.001  0.00  0.00    -0.450 NA
ATOM     22  C   LIG    1       -0.017   1.399   0.010  0.00  0.00    +0.010 A 
ATOM     23  C   LIG    1       -1.239   2.074   0.030  0.00  0.00    +0.090 A 
ATOM     24  C   LIG    1       -2.414   1.357   0.034  0.00  0.00    +0.020 A 
ATOM     25  C   LIG    1       -2.391  -0.030   0.025  0.00  0.00    +0.050 A 
ATOM     26  C   LIG    1       -1.191  -0.710   0.010  0.00  0.00    +0.050 A 
ATOM     27  C   LIG    1        0.002  -0.004   0.002  0.00  0.00    +0.020 A 
ATOM     28  O   LIG    1        1.304  -0.364  -0.012  0.00  0.00    -0.200 OA
ENDBRANCH  19  20
ENDBRANCH  18  19
ENDBRANCH  17  18
ENDBRANCH   1  17
TORSDOF 5
