REMARK  Name = ZINCtV00000L6kU4.0
REMARK                            x       y       z     vdW  Elec       q    Type
REMARK                         _______ _______ _______ _____ _____    ______ ____
ROOT
ATOM      1  N   LIG    1        3.733   3.478  -0.105  0.00  0.00    -0.470 N 
ATOM      2  C   LIG    1        5.085   3.760  -0.065  0.00  0.00    +0.070 A 
ATOM      3  C   LIG    1        5.825   4.932  -0.117  0.00  0.00    +0.010 A 
ATOM      4  C   LIG    1        7.202   4.879  -0.060  0.00  0.00    +0.040 A 
ATOM      5  C   LIG    1        7.854   3.659   0.050  0.00  0.00    +0.000 A 
ATOM      6  C   LIG    1        7.138   2.485   0.104  0.00  0.00    +0.070 A 
ATOM      7  C   LIG    1        5.741   2.521   0.047  0.00  0.00    +0.050 A 
ATOM      8  N   LIG    1        4.784   1.562   0.075  0.00  0.00    -0.450 NA
ATOM      9  C   LIG    1        3.600   2.119  -0.010  0.00  0.00    +0.320 A 
ENDROOT
BRANCH   9  10
ATOM     10  C   LIG    1        2.315   1.388  -0.011  0.00  0.00    -0.020 A 
ATOM     11  C   LIG    1        1.355   1.659  -0.987  0.00  0.00    +0.060 A 
ATOM     12  C   LIG    1        0.158   0.973  -0.982  0.00  0.00    +0.050 A 
ATOM     13  C   LIG    1       -0.093   0.018  -0.012  0.00  0.00    -0.010 A 
ATOM     14  C   LIG    1        0.855  -0.257   0.960  0.00  0.00    +0.050 A 
ATOM     15 CL   LIG    1       -1.602  -0.841  -0.015  0.00  0.00    -0.050 Cl
ATOM     16  C   LIG    1        2.057   0.423   0.966  0.00  0.00    +0.020 A 
ATOM     17 CL   LIG    1        3.244   0.079   2.185  0.00  0.00    -0.020 Cl
ENDBRANCH   9  10
BRANCH   1  18
ATOM     18  C   LIG    1        2.645   4.451  -0.223  0.00  0.00    +0.350 C 
BRANCH  18  21
ATOM     19  N   LIG    1        1.317   5.899   1.280  0.00  0.00    -0.670 N 
ATOM     20  H   LIG    1        0.790   6.164   0.510  0.00  0.00    +0.410 HD
ATOM     21  C   LIG    1        2.297   4.984   1.143  0.00  0.00    +0.490 C 
ATOM     22  O   LIG    1        2.898   4.589   2.119  0.00  0.00    -0.490 OA
BRANCH  19  27
ATOM     23  C   LIG    1        0.271   8.197   6.360  0.00  0.00    +0.090 C 
ATOM     24  C   LIG    1        0.549   7.587   5.011  0.00  0.00    -0.090 A 
ATOM     25  C   LIG    1        0.969   6.272   4.921  0.00  0.00    +0.020 A 
ATOM     26  C   LIG    1        1.224   5.710   3.686  0.00  0.00    +0.030 A 
ATOM     27  C   LIG    1        1.059   6.466   2.533  0.00  0.00    +0.130 A 
ATOM     28  C   LIG    1        0.643   7.787   2.627  0.00  0.00    -0.100 A 
ATOM     29  C   LIG    1        0.468   8.614   1.378  0.00  0.00    +0.080 C 
ATOM     30  C   LIG    1        0.383   8.342   3.864  0.00  0.00    +0.030 A 
ENDBRANCH  19  27
ENDBRANCH  18  21
ENDBRANCH   1  18
TORSDOF 4
