REMARK  Name = ZINCpe000000VxEY.0
REMARK                            x       y       z     vdW  Elec       q    Type
REMARK                         _______ _______ _______ _____ _____    ______ ____
ROOT
ATOM      1  C   LIG    1       -4.075   0.772   0.149  0.00  0.00    -0.210 A 
ATOM      2  C   LIG    1       -2.738   0.994  -0.058  0.00  0.00    +0.090 A 
ATOM      3  C   LIG    1       -1.979   0.938  -1.361  0.00  0.00    +0.350 C 
ATOM      4  O   LIG    1       -0.703   1.559  -1.152  0.00  0.00    -0.370 OA
ATOM      5  C   LIG    1       -0.013   1.086   0.008  0.00  0.00    +0.240 C 
ATOM      6  C   LIG    1       -0.728   1.579   1.271  0.00  0.00    +0.260 C 
ATOM      7  N   LIG    1       -2.162   1.287   1.133  0.00  0.00    -0.430 N 
ATOM      8  C   LIG    1       -3.096   1.263   2.121  0.00  0.00    -0.000 A 
ATOM      9  C   LIG    1       -4.294   0.954   1.591  0.00  0.00    +0.050 A 
ENDROOT
BRANCH   1  10
ATOM     10  C   LIG    1       -5.084   0.424  -0.864  0.00  0.00    +0.540 C 
ATOM     11  O   LIG    1       -4.759   0.306  -2.029  0.00  0.00    -0.520 OA
BRANCH  10  13
ATOM     12  C   LIG    1       -7.308  -0.104  -1.552  0.00  0.00    +0.260 C 
ATOM     13  O   LIG    1       -6.368   0.237  -0.499  0.00  0.00    -0.350 OA
ENDBRANCH  10  13
ENDBRANCH   1  10
BRANCH   8  14
ATOM     14  C   LIG    1       -2.832   1.539   3.579  0.00  0.00    +0.370 C 
BRANCH  14  15
ATOM     15  N   LIG    1       -2.377   0.310   4.234  0.00  0.00    -0.720 N 
ATOM     16  H   LIG    1       -2.289  -0.509   3.722  0.00  0.00    +0.410 HD
ATOM     17  C   LIG    1       -2.078   0.318   5.548  0.00  0.00    +0.610 C 
ATOM     18  O   LIG    1       -2.188   1.345   6.191  0.00  0.00    -0.530 OA
BRANCH  17  19
ATOM     19  C   LIG    1       -1.619  -0.920   6.209  0.00  0.00    -0.010 A 
ATOM     20  N   LIG    1       -1.461  -2.098   5.642  0.00  0.00    -0.250 NA
ATOM     21  N   LIG    1       -1.044  -2.962   6.510  0.00  0.00    -0.300 N 
ATOM     22  C   LIG    1       -0.677  -4.387   6.591  0.00  0.00    +0.320 C 
ATOM     23  C   LIG    1        0.125  -4.537   7.901  0.00  0.00    +0.070 C 
ATOM     24  C   LIG    1       -0.424  -3.363   8.743  0.00  0.00    +0.140 C 
ATOM     25  C   LIG    1       -0.913  -2.367   7.713  0.00  0.00    -0.000 A 
ATOM     26  C   LIG    1       -1.271  -1.068   7.572  0.00  0.00    +0.000 A 
ENDBRANCH  17  19
ENDBRANCH  14  15
ENDBRANCH   8  14
TORSDOF 5
