REMARK  Name = ZINCvU0000000GBy.0
REMARK                            x       y       z     vdW  Elec       q    Type
REMARK                         _______ _______ _______ _____ _____    ______ ____
ROOT
ATOM      1  S   LIG    1        2.890   4.783  -1.355  0.00  0.00    +0.020 S 
ENDROOT
BRANCH   1   2
ATOM      2  C   LIG    1        1.296   4.670  -0.613  0.00  0.00    +0.160 A 
ATOM      3  N   LIG    1        0.336   5.564  -0.691  0.00  0.00    -0.280 NA
ATOM      4  N   LIG    1       -0.692   5.168  -0.029  0.00  0.00    -0.260 NA
ATOM      5  C   LIG    1       -0.453   3.992   0.509  0.00  0.00    +0.270 A 
ATOM      6  N   LIG    1        0.827   3.636   0.148  0.00  0.00    -0.460 N 
BRANCH   5   7
ATOM      7  C   LIG    1       -1.379   3.206   1.341  0.00  0.00    -0.140 A 
ATOM      8  C   LIG    1       -2.501   3.682   1.923  0.00  0.00    +0.070 A 
ATOM      9  C   LIG    1       -3.210   2.752   2.653  0.00  0.00    +0.000 A 
ATOM     10  C   LIG    1       -2.675   1.527   2.682  0.00  0.00    -0.060 A 
ATOM     11  S   LIG    1       -1.191   1.503   1.738  0.00  0.00    +0.190 S 
ENDBRANCH   5   7
BRANCH   6  12
ATOM     12  C   LIG    1        1.540   2.408   0.508  0.00  0.00    +0.330 C 
BRANCH  12  13
ATOM     13  C   LIG    1        1.274   1.335  -0.549  0.00  0.00    +0.150 C 
ATOM     14  C   LIG    1        2.063   0.043  -0.215  0.00  0.00    +0.030 C 
ATOM     15  C   LIG    1        1.203  -1.025  -0.943  0.00  0.00    +0.020 C 
ATOM     16  C   LIG    1       -0.225  -0.459  -0.784  0.00  0.00    +0.190 C 
ATOM     17  O   LIG    1       -0.108   0.945  -0.528  0.00  0.00    -0.360 OA
ENDBRANCH  12  13
ENDBRANCH   6  12
ENDBRANCH   1   2
BRANCH   1  18
ATOM     18  C   LIG    1        2.746   6.394  -2.167  0.00  0.00    +0.210 C 
BRANCH  18  21
ATOM     19  C   LIG    1        5.396   6.695  -4.652  0.00  0.00    +0.300 A 
ATOM     20  N   LIG    1        4.250   6.365  -4.143  0.00  0.00    -0.520 NA
ATOM     21  C   LIG    1        4.032   6.711  -2.887  0.00  0.00    +0.110 A 
ATOM     22  C   LIG    1        5.038   7.367  -2.310  0.00  0.00    -0.100 A 
ATOM     23  S   LIG    1        6.338   7.523  -3.489  0.00  0.00    +0.150 S 
BRANCH  19  24
ATOM     24  N   LIG    1        5.800   6.417  -5.949  0.00  0.00    -0.630 N 
ATOM     25  H   LIG    1        5.246   5.862  -6.521  0.00  0.00    +0.420 HD
BRANCH  24  30
ATOM     26  C   LIG    1       10.685   8.524  -7.913  0.00  0.00    +0.090 C 
ATOM     27  C   LIG    1        9.387   7.964  -7.391  0.00  0.00    -0.100 A 
ATOM     28  C   LIG    1        8.978   6.700  -7.773  0.00  0.00    +0.040 A 
ATOM     29  C   LIG    1        7.789   6.184  -7.297  0.00  0.00    -0.010 A 
ATOM     30  C   LIG    1        7.004   6.936  -6.433  0.00  0.00    +0.150 A 
ATOM     31  C   LIG    1        7.415   8.208  -6.054  0.00  0.00    -0.030 A 
ATOM     32  C   LIG    1        8.608   8.716  -6.531  0.00  0.00    +0.050 A 
ENDBRANCH  24  30
ENDBRANCH  19  24
ENDBRANCH  18  21
ENDBRANCH   1  18
TORSDOF 8
