REMARK  Name = ZINCrD000000CmSf.0
REMARK                            x       y       z     vdW  Elec       q    Type
REMARK                         _______ _______ _______ _____ _____    ______ ____
ROOT
ATOM      1  N   LIG    1        1.461   1.678  -0.069  0.00  0.00    -0.390 N 
ATOM      2  C   LIG    1        1.767   2.574   1.066  0.00  0.00    +0.260 C 
ATOM      3  C   LIG    1        0.716   2.216   2.147  0.00  0.00    +0.080 C 
ATOM      4  C   LIG    1       -0.541   1.940   1.282  0.00  0.00    +0.080 C 
ATOM      5  C   LIG    1        0.045   1.277   0.017  0.00  0.00    +0.220 C 
ATOM      6  H   LIG    1        1.623   2.166  -0.938  0.00  0.00    +0.430 HD
ENDROOT
BRANCH   5   7
ATOM      7  C   LIG    1       -0.698   1.750  -1.205  0.00  0.00    -0.140 A 
ATOM      8  C   LIG    1       -0.429   2.998  -1.736  0.00  0.00    +0.010 A 
ATOM      9  C   LIG    1       -1.105   3.434  -2.860  0.00  0.00    +0.050 A 
ATOM     10  C   LIG    1       -2.063   2.625  -3.452  0.00  0.00    +0.080 A 
ATOM     11  O   LIG    1       -2.729   3.072  -4.551  0.00  0.00    -0.300 OA
ATOM     12  C   LIG    1       -3.409   2.087  -5.337  0.00  0.00    +0.240 C 
ATOM     13  C   LIG    1       -4.194   1.173  -4.386  0.00  0.00    +0.230 C 
ATOM     14  O   LIG    1       -3.266   0.558  -3.487  0.00  0.00    -0.300 OA
ATOM     15  C   LIG    1       -2.336   1.371  -2.916  0.00  0.00    +0.070 A 
ATOM     16  C   LIG    1       -1.651   0.938  -1.791  0.00  0.00    +0.050 A 
ENDBRANCH   5   7
BRANCH   1  17
ATOM     17  C   LIG    1        2.318   0.486  -0.003  0.00  0.00    +0.280 C 
BRANCH  17  18
ATOM     18  C   LIG    1        2.091  -0.374  -1.247  0.00  0.00    +0.210 C 
BRANCH  18  19
ATOM     19  O   LIG    1        2.511   0.345  -2.408  0.00  0.00    -0.330 OA
BRANCH  19  24
ATOM     20  C   LIG    1        2.624  -0.291  -5.999  0.00  0.00    -0.090 A 
ATOM     21  C   LIG    1        2.093  -1.582  -6.044  0.00  0.00    +0.020 A 
ATOM     22  C   LIG    1        1.710  -2.210  -4.877  0.00  0.00    +0.020 A 
ATOM     23  C   LIG    1        1.854  -1.568  -3.661  0.00  0.00    -0.090 A 
ATOM     24  C   LIG    1        2.376  -0.282  -3.606  0.00  0.00    +0.090 A 
ATOM     25  C   LIG    1        2.765   0.358  -4.770  0.00  0.00    +0.020 A 
BRANCH  20  27
ATOM     26  O   LIG    1        3.500   1.515  -7.202  0.00  0.00    -0.680 OA
ATOM     27  C   LIG    1        3.035   0.385  -7.244  0.00  0.00    +0.520 C 
ATOM     28  O   LIG    1        2.912  -0.186  -8.319  0.00  0.00    -0.670 OA
ENDBRANCH  20  27
ENDBRANCH  19  24
ENDBRANCH  18  19
ENDBRANCH  17  18
ENDBRANCH   1  17
TORSDOF 6
