REMARK  Name = ZINCrD000000CmSf.1
REMARK                            x       y       z     vdW  Elec       q    Type
REMARK                         _______ _______ _______ _____ _____    ______ ____
ROOT
ATOM      1  N   LIG    1        0.050   1.329   0.151  0.00  0.00    -0.390 N 
ATOM      2  C   LIG    1        1.324   2.006   0.475  0.00  0.00    +0.260 C 
ATOM      3  C   LIG    1        1.462   1.875   2.012  0.00  0.00    +0.080 C 
ATOM      4  C   LIG    1       -0.010   2.038   2.474  0.00  0.00    +0.080 C 
ATOM      5  C   LIG    1       -0.806   1.341   1.351  0.00  0.00    +0.230 C 
ATOM      6  H   LIG    1        0.234   0.376  -0.126  0.00  0.00    +0.440 HD
ENDROOT
BRANCH   5   7
ATOM      7  C   LIG    1       -2.073   2.106   1.069  0.00  0.00    -0.140 A 
ATOM      8  C   LIG    1       -3.279   1.437   0.984  0.00  0.00    +0.060 A 
ATOM      9  C   LIG    1       -4.444   2.135   0.724  0.00  0.00    +0.040 A 
ATOM     10  C   LIG    1       -4.404   3.510   0.549  0.00  0.00    +0.080 A 
ATOM     11  O   LIG    1       -5.558   4.184   0.286  0.00  0.00    -0.300 OA
ATOM     12  C   LIG    1       -5.534   5.601   0.484  0.00  0.00    +0.230 C 
ATOM     13  C   LIG    1       -4.256   6.156  -0.159  0.00  0.00    +0.230 C 
ATOM     14  O   LIG    1       -3.131   5.534   0.472  0.00  0.00    -0.300 OA
ATOM     15  C   LIG    1       -3.192   4.184   0.637  0.00  0.00    +0.060 A 
ATOM     16  C   LIG    1       -2.028   3.478   0.902  0.00  0.00    +0.030 A 
ENDBRANCH   5   7
BRANCH   1  17
ATOM     17  C   LIG    1       -0.625   2.042  -0.942  0.00  0.00    +0.290 C 
BRANCH  17  18
ATOM     18  C   LIG    1        0.199   1.907  -2.224  0.00  0.00    +0.210 C 
BRANCH  18  19
ATOM     19  O   LIG    1        0.229   0.537  -2.629  0.00  0.00    -0.330 OA
BRANCH  19  24
ATOM     20  C   LIG    1        1.710  -1.363  -5.369  0.00  0.00    -0.090 A 
ATOM     21  C   LIG    1        2.350  -0.338  -6.070  0.00  0.00    +0.020 A 
ATOM     22  C   LIG    1        2.273   0.961  -5.614  0.00  0.00    +0.020 A 
ATOM     23  C   LIG    1        1.564   1.254  -4.463  0.00  0.00    -0.090 A 
ATOM     24  C   LIG    1        0.924   0.243  -3.759  0.00  0.00    +0.090 A 
ATOM     25  C   LIG    1        0.999  -1.066  -4.204  0.00  0.00    +0.030 A 
BRANCH  20  27
ATOM     26  O   LIG    1        2.416  -3.012  -6.872  0.00  0.00    -0.670 OA
ATOM     27  C   LIG    1        1.789  -2.754  -5.854  0.00  0.00    +0.520 C 
ATOM     28  O   LIG    1        1.228  -3.649  -5.238  0.00  0.00    -0.680 OA
ENDBRANCH  20  27
ENDBRANCH  19  24
ENDBRANCH  18  19
ENDBRANCH  17  18
ENDBRANCH   1  17
TORSDOF 6
