REMARK  Name = ZINCkj000005iYT6.1
REMARK                            x       y       z     vdW  Elec       q    Type
REMARK                         _______ _______ _______ _____ _____    ______ ____
ROOT
ATOM      1  N   LIG    1        1.339  -2.049  -0.625  0.00  0.00    -0.660 N 
ATOM      2  H   LIG    1        0.526  -2.568  -0.731  0.00  0.00    +0.420 HD
ATOM      3  C   LIG    1        2.498  -2.665  -0.320  0.00  0.00    +0.520 C 
ATOM      4  O   LIG    1        3.492  -2.009  -0.092  0.00  0.00    -0.510 OA
ENDROOT
BRANCH   1   8
ATOM      5  C   LIG    1        1.169   2.049  -1.078  0.00  0.00    +0.110 A 
ATOM      6  C   LIG    1        2.337   1.391  -1.450  0.00  0.00    +0.020 A 
ATOM      7  C   LIG    1        2.412   0.018  -1.306  0.00  0.00    +0.090 A 
ATOM      8  C   LIG    1        1.307  -0.657  -0.789  0.00  0.00    +0.080 A 
ATOM      9  C   LIG    1        0.176   0.065  -0.440  0.00  0.00    +0.260 A 
ATOM     10  N   LIG    1        0.139   1.375  -0.591  0.00  0.00    -0.470 NA
BRANCH   5  12
ATOM     11  C   LIG    1       -0.609   4.168  -0.652  0.00  0.00    +0.160 C 
ATOM     12  S   LIG    1        1.061   3.799  -1.256  0.00  0.00    -0.070 S 
ENDBRANCH   5  12
ENDBRANCH   1   8
BRANCH   3  13
ATOM     13  C   LIG    1        2.558  -4.170  -0.261  0.00  0.00    +0.190 C 
ATOM     14  C   LIG    1        1.867  -4.659   1.013  0.00  0.00    +0.030 C 
BRANCH  13  15
ATOM     15  N   LIG    1        3.962  -4.603  -0.254  0.00  0.00    -0.520 NA
ATOM     16  C   LIG    1        4.074  -6.032  -0.577  0.00  0.00    +0.210 C 
ATOM     17  C   LIG    1        5.551  -6.430  -0.617  0.00  0.00    +0.280 C 
ATOM     18  N   LIG    1        6.167  -6.156   0.687  0.00  0.00    -0.390 N 
ATOM     19  C   LIG    1        6.070  -4.721   0.985  0.00  0.00    +0.280 C 
ATOM     20  C   LIG    1        7.581  -6.554   0.654  0.00  0.00    +0.310 C 
ATOM     21  H   LIG    1        5.687  -6.681   1.403  0.00  0.00    +0.420 HD
ATOM     22  C   LIG    1        4.597  -4.309   1.039  0.00  0.00    +0.210 C 
ENDBRANCH  13  15
ENDBRANCH   3  13
TORSDOF 4
