REMARK  Name = ZINCqH0000007Efu.0
REMARK                            x       y       z     vdW  Elec       q    Type
REMARK                         _______ _______ _______ _____ _____    ______ ____
ROOT
ATOM      1  N   LIG    1       -2.995  -3.229  -1.363  0.00  0.00    -0.610 N 
ATOM      2  C   LIG    1       -2.442  -4.281  -2.000  0.00  0.00    +0.560 C 
ATOM      3  O   LIG    1       -1.557  -4.919  -1.463  0.00  0.00    -0.520 OA
ATOM      4  C   LIG    1       -3.991  -2.401  -2.047  0.00  0.00    +0.290 C 
ENDROOT
BRANCH   2   5
ATOM      5  C   LIG    1       -2.911  -4.658  -3.348  0.00  0.00    -0.130 A 
ATOM      6  C   LIG    1       -3.081  -6.005  -3.679  0.00  0.00    +0.100 A 
ATOM      7  C   LIG    1       -3.524  -6.353  -4.936  0.00  0.00    +0.000 A 
ATOM      8  C   LIG    1       -3.791  -5.366  -5.878  0.00  0.00    +0.180 A 
ATOM      9  C   LIG    1       -3.617  -4.025  -5.554  0.00  0.00    +0.020 A 
ATOM     10  C   LIG    1       -3.180  -3.669  -4.298  0.00  0.00    +0.070 A 
BRANCH   8  11
ATOM     11  N   LIG    1       -4.235  -5.723  -7.155  0.00  0.00    -0.330 N 
ATOM     12  N   LIG    1       -5.153  -5.011  -7.939  0.00  0.00    -0.290 NA
ATOM     13  C   LIG    1       -5.313  -5.654  -9.067  0.00  0.00    +0.090 A 
ATOM     14  C   LIG    1       -4.513  -6.802  -9.039  0.00  0.00    -0.110 A 
ATOM     15  C   LIG    1       -6.212  -5.234 -10.202  0.00  0.00    +0.150 C 
ATOM     16  C   LIG    1       -3.858  -6.825  -7.855  0.00  0.00    +0.090 A 
ATOM     17  C   LIG    1       -2.887  -7.882  -7.395  0.00  0.00    +0.160 C 
ENDBRANCH   8  11
ENDBRANCH   2   5
BRANCH   1  18
ATOM     18  C   LIG    1       -2.600  -2.915   0.012  0.00  0.00    +0.350 C 
BRANCH  18  23
ATOM     19  C   LIG    1       -0.568   0.271  -0.028  0.00  0.00    +0.120 A 
ATOM     20  C   LIG    1        0.726  -0.229  -0.046  0.00  0.00    -0.070 A 
ATOM     21  C   LIG    1        0.938  -1.594  -0.035  0.00  0.00    +0.050 A 
ATOM     22  C   LIG    1       -0.139  -2.462  -0.019  0.00  0.00    +0.000 A 
ATOM     23  C   LIG    1       -1.429  -1.966  -0.006  0.00  0.00    -0.070 A 
ATOM     24  C   LIG    1       -1.647  -0.602  -0.011  0.00  0.00    -0.010 A 
BRANCH  19  26
ATOM     25  C   LIG    1        0.377   2.452  -0.050  0.00  0.00    +0.250 C 
ATOM     26  O   LIG    1       -0.779   1.614  -0.033  0.00  0.00    -0.320 OA
ENDBRANCH  19  26
ENDBRANCH  18  23
ENDBRANCH   1  18
TORSDOF 5
