REMARK  Name = ZINCrg00001JduVn.0
REMARK                            x       y       z     vdW  Elec       q    Type
REMARK                         _______ _______ _______ _____ _____    ______ ____
ROOT
ATOM      1  C   LIG    1       -1.010   1.762  -6.110  0.00  0.00    +0.510 C 
ATOM      2  N   LIG    1       -0.557   1.451  -7.340  0.00  0.00    -0.660 N 
ATOM      3  H   LIG    1        0.278   0.967  -7.441  0.00  0.00    +0.420 HD
ATOM      4  O   LIG    1       -2.005   2.446  -5.985  0.00  0.00    -0.470 OA
ENDROOT
BRANCH   2   5
ATOM      5  C   LIG    1       -1.288   1.824  -8.468  0.00  0.00    +0.380 A 
ATOM      6  C   LIG    1       -0.866   1.406  -9.725  0.00  0.00    -0.040 A 
ATOM      7  C   LIG    1       -1.595   1.779 -10.842  0.00  0.00    +0.120 A 
ATOM      8  C   LIG    1       -2.727   2.562 -10.659  0.00  0.00    +0.010 A 
ATOM      9  N   LIG    1       -3.671   3.105 -11.529  0.00  0.00    -0.630 N 
ATOM     10  H   LIG    1       -3.677   3.008 -12.494  0.00  0.00    +0.440 HD
ATOM     11  C   LIG    1       -4.571   3.789 -10.797  0.00  0.00    +0.690 A 
ATOM     12  N   LIG    1       -4.249   3.711  -9.493  0.00  0.00    -0.620 N 
ATOM     13  H   LIG    1       -4.740   4.119  -8.763  0.00  0.00    +0.440 HD
ATOM     14  O   LIG    1       -5.530   4.388 -11.248  0.00  0.00    -0.540 OA
ATOM     15  C   LIG    1       -3.095   2.947  -9.368  0.00  0.00    +0.340 A 
ATOM     16  N   LIG    1       -2.375   2.565  -8.325  0.00  0.00    -0.470 NA
ENDBRANCH   2   5
BRANCH   1  17
ATOM     17  C   LIG    1       -0.283   1.261  -4.889  0.00  0.00    +0.100 C 
BRANCH  17  18
ATOM     18  C   LIG    1       -0.999   1.754  -3.630  0.00  0.00    +0.090 C 
BRANCH  18  21
ATOM     19  N   LIG    1       -0.725   1.564  -1.179  0.00  0.00    -0.730 N 
ATOM     20  H   LIG    1       -1.521   2.111  -1.079  0.00  0.00    +0.410 HD
ATOM     21  C   LIG    1       -0.272   1.253  -2.409  0.00  0.00    +0.520 C 
ATOM     22  O   LIG    1        0.723   0.569  -2.534  0.00  0.00    -0.540 OA
BRANCH  19  23
ATOM     23  C   LIG    1       -0.018   1.077   0.008  0.00  0.00    +0.250 C 
BRANCH  23  24
ATOM     24  C   LIG    1       -0.735   1.569   1.267  0.00  0.00    +0.100 C 
BRANCH  24  25
ATOM     25  C   LIG    1        0.004   1.061   2.506  0.00  0.00    +0.030 C 
ATOM     26  N   LIG    1        1.447   0.823   2.414  0.00  0.00    -0.120 NA
ATOM     27  N   LIG    1        0.744  -0.201   2.413  0.00  0.00    -0.120 NA
BRANCH  25  28
ATOM     28  C   LIG    1       -0.586   1.466   3.859  0.00  0.00    +0.120 C 
BRANCH  28  29
ATOM     29  C   LIG    1        0.268   0.878   4.984  0.00  0.00    +0.160 C 
BRANCH  29  31
ATOM     30  C   LIG    1       -0.752   1.579   7.323  0.00  0.00    +0.030 C 
ATOM     31  C   LIG    1       -0.300   1.268   6.285  0.00  0.00    -0.190 C 
ENDBRANCH  29  31
ENDBRANCH  28  29
ENDBRANCH  25  28
ENDBRANCH  24  25
ENDBRANCH  23  24
ENDBRANCH  19  23
ENDBRANCH  18  21
ENDBRANCH  17  18
ENDBRANCH   1  17
TORSDOF 10
