REMARK  Name = ZINCrH00000tj19O.0
REMARK                            x       y       z     vdW  Elec       q    Type
REMARK                         _______ _______ _______ _____ _____    ______ ____
ROOT
ATOM      1  C   LIG    1        3.939   8.445  -0.200  0.00  0.00    +0.550 C 
ATOM      2  N   LIG    1        4.124   7.111  -0.243  0.00  0.00    -0.630 N 
ATOM      3  H   LIG    1        5.019   6.748  -0.328  0.00  0.00    +0.420 HD
ATOM      4  O   LIG    1        2.817   8.901  -0.094  0.00  0.00    -0.450 OA
ENDROOT
BRANCH   1   8
ATOM      5  C   LIG    1        7.284  11.063  -0.435  0.00  0.00    -0.100 A 
ATOM      6  C   LIG    1        5.995  11.586  -0.314  0.00  0.00    +0.090 A 
ATOM      7  C   LIG    1        4.912  10.738  -0.238  0.00  0.00    +0.090 A 
ATOM      8  C   LIG    1        5.103   9.356  -0.282  0.00  0.00    -0.100 A 
ATOM      9  C   LIG    1        6.392   8.833  -0.398  0.00  0.00    +0.040 A 
ATOM     10  C   LIG    1        7.475   9.681  -0.480  0.00  0.00    +0.080 A 
BRANCH   5  11
ATOM     11  C   LIG    1        8.447  11.974  -0.517  0.00  0.00    +0.510 C 
ATOM     12  O   LIG    1        8.280  13.176  -0.478  0.00  0.00    -0.500 OA
BRANCH  11  14
ATOM     13  C   LIG    1       10.783  12.422  -0.709  0.00  0.00    +0.290 C 
ATOM     14  O   LIG    1        9.690  11.469  -0.634  0.00  0.00    -0.350 OA
ENDBRANCH  11  14
ENDBRANCH   5  11
ENDBRANCH   1   8
BRANCH   2  15
ATOM     15  C   LIG    1        3.034   6.258  -0.167  0.00  0.00    +0.270 A 
ATOM     16  N   LIG    1        1.798   6.641  -0.052  0.00  0.00    -0.470 NA
ATOM     17  C   LIG    1        0.882   5.701   0.002  0.00  0.00    +0.170 A 
ATOM     18  C   LIG    1        1.373   4.442  -0.060  0.00  0.00    -0.220 A 
ATOM     19  C   LIG    1       -0.590   6.000   0.129  0.00  0.00    +0.180 C 
ATOM     20  S   LIG    1        3.125   4.551  -0.209  0.00  0.00    +0.180 S 
BRANCH  18  21
ATOM     21  C   LIG    1        0.583   3.202  -0.018  0.00  0.00    +0.320 A 
ATOM     22  N   LIG    1       -0.732   3.124  -0.012  0.00  0.00    -0.460 NA
ATOM     23  C   LIG    1       -1.098   1.837   0.024  0.00  0.00    +0.190 A 
ATOM     24  C   LIG    1        0.015   1.077   0.051  0.00  0.00    +0.150 A 
ATOM     25  N   LIG    1        1.087   1.933   0.021  0.00  0.00    -0.520 N 
BRANCH  25  26
ATOM     26  C   LIG    1        2.503   1.556   0.028  0.00  0.00    +0.640 C 
ATOM     27  F   LIG    1        3.141   2.163   1.116  0.00  0.00    -0.170 F 
ATOM     28  F   LIG    1        3.105   1.981  -1.161  0.00  0.00    -0.170 F 
ENDBRANCH  25  26
ENDBRANCH  18  21
ENDBRANCH   2  15
TORSDOF 6
