REMARK  Name = ZINCpe00000LJpKv.0
REMARK                            x       y       z     vdW  Elec       q    Type
REMARK                         _______ _______ _______ _____ _____    ______ ____
ROOT
ATOM      1  C   LIG    1       -0.079   2.223  -2.164  0.00  0.00    +0.530 C 
ATOM      2  N   LIG    1       -0.733   1.581  -1.175  0.00  0.00    -0.620 N 
ATOM      3  C   LIG    1       -2.185   1.362  -1.250  0.00  0.00    +0.290 C 
ATOM      4  C   LIG    1       -2.819   1.854   0.056  0.00  0.00    +0.170 C 
ATOM      5  N   LIG    1       -2.151   1.210   1.194  0.00  0.00    -0.490 NA
ATOM      6  C   LIG    1       -0.728   1.586   1.265  0.00  0.00    +0.120 C 
ATOM      7  C   LIG    1       -0.013   1.083   0.007  0.00  0.00    +0.310 C 
ATOM      8  O   LIG    1        1.100   2.482  -2.043  0.00  0.00    -0.530 OA
ENDROOT
BRANCH   1  16
ATOM      9  C   LIG    1        1.590   2.742  -6.946  0.00  0.00    +0.130 A 
ATOM     10  C   LIG    1        1.746   1.629  -6.133  0.00  0.00    -0.080 A 
ATOM     11  C   LIG    1        1.004   1.516  -4.974  0.00  0.00    +0.070 A 
ATOM     12  C   LIG    1        0.105   2.509  -4.620  0.00  0.00    -0.120 A 
ATOM     13  C   LIG    1       -0.051   3.619  -5.430  0.00  0.00    -0.050 A 
ATOM     14  C   LIG    1       -1.084   4.548  -4.829  0.00  0.00    +0.090 C 
ATOM     15  C   LIG    1       -1.220   4.105  -3.357  0.00  0.00    +0.060 C 
ATOM     16  C   LIG    1       -0.812   2.618  -3.420  0.00  0.00    +0.050 C 
ATOM     17  C   LIG    1        0.691   3.735  -6.592  0.00  0.00    -0.010 A 
BRANCH   9  19
ATOM     18  C   LIG    1        3.225   1.795  -8.390  0.00  0.00    +0.250 C 
ATOM     19  O   LIG    1        2.318   2.857  -8.088  0.00  0.00    -0.320 OA
ENDBRANCH   9  19
ENDBRANCH   1  16
BRANCH   6  20
ATOM     20  C   LIG    1       -0.097   0.965   2.484  0.00  0.00    +0.530 C 
ATOM     21  O   LIG    1       -0.764   0.279   3.229  0.00  0.00    -0.520 OA
ATOM     22  N   LIG    1        1.208   1.173   2.747  0.00  0.00    -0.850 N 
ATOM     23  H   LIG    1        1.615   0.773   3.532  0.00  0.00    +0.410 HD
ATOM     24  H   LIG    1        1.742   1.722   2.151  0.00  0.00    +0.400 HD
ENDBRANCH   6  20
BRANCH   5  25
ATOM     25  C   LIG    1       -2.839   1.521   2.454  0.00  0.00    +0.180 C 
ATOM     26  C   LIG    1       -4.172   2.268   2.365  0.00  0.00    +0.010 C 
ATOM     27  C   LIG    1       -2.921   2.992   2.869  0.00  0.00    -0.030 C 
ENDBRANCH   5  25
TORSDOF 4
