REMARK  Name = ZINCrg000000t6Au.0
REMARK                            x       y       z     vdW  Elec       q    Type
REMARK                         _______ _______ _______ _____ _____    ______ ____
ROOT
ATOM      1  C   LIG    1       -0.738  -6.196  -0.242  0.00  0.00    +0.540 C 
ATOM      2  N   LIG    1        0.076  -7.266  -0.147  0.00  0.00    -0.580 N 
ATOM      3  O   LIG    1       -1.922  -6.352  -0.453  0.00  0.00    -0.520 OA
ENDROOT
BRANCH   2   4
ATOM      4  C   LIG    1       -0.447  -8.610  -0.408  0.00  0.00    +0.270 C 
ATOM      5  C   LIG    1       -1.586  -8.932   0.576  0.00  0.00    +0.060 C 
ATOM      6  C   LIG    1       -2.335 -10.182   0.073  0.00  0.00    -0.310 C 
ATOM      7  S   LIG    1       -2.115 -10.169  -1.743  0.00  0.00    +2.390 S 
ATOM      8  O   LIG    1       -3.365  -9.904  -2.367  0.00  0.00    -0.930 OA
ATOM      9  O   LIG    1       -1.357 -11.306  -2.134  0.00  0.00    -0.930 OA
ATOM     10  C   LIG    1       -1.059  -8.674  -1.831  0.00  0.00    -0.310 C 
ENDBRANCH   2   4
BRANCH   2  11
ATOM     11  C   LIG    1        1.484  -7.086   0.217  0.00  0.00    +0.220 C 
ATOM     12  C   LIG    1        2.392  -7.567  -0.933  0.00  0.00    +0.020 C 
ATOM     13  C   LIG    1        3.597  -8.225  -0.215  0.00  0.00    +0.010 C 
ATOM     14  C   LIG    1        2.932  -8.931   0.993  0.00  0.00    +0.010 C 
ATOM     15  C   LIG    1        1.827  -7.952   1.441  0.00  0.00    +0.020 C 
ENDBRANCH   2  11
BRANCH   1  16
ATOM     16  C   LIG    1       -0.177  -4.806  -0.086  0.00  0.00    +0.120 C 
BRANCH  16  17
ATOM     17  S   LIG    1       -1.477  -3.590  -0.410  0.00  0.00    +0.100 S 
BRANCH  17  19
ATOM     18  N   LIG    1       -1.055  -0.827  -0.273  0.00  0.00    -0.280 N 
ATOM     19  C   LIG    1       -0.571  -2.099  -0.164  0.00  0.00    +0.130 A 
ATOM     20  N   LIG    1        0.697  -2.002   0.163  0.00  0.00    -0.270 NA
ATOM     21  N   LIG    1        1.029  -0.764   0.259  0.00  0.00    -0.210 NA
ATOM     22  C   LIG    1        0.002  -0.004   0.000  0.00  0.00    +0.120 A 
BRANCH  22  23
ATOM     23  C   LIG    1       -0.018   1.503   0.008  0.00  0.00    +0.580 C 
ATOM     24  F   LIG    1       -0.673   1.954   1.159  0.00  0.00    -0.160 F 
ATOM     25  F   LIG    1       -0.695   1.966  -1.125  0.00  0.00    -0.160 F 
ATOM     26  F   LIG    1        1.294   1.987  -0.002  0.00  0.00    -0.150 F 
ENDBRANCH  22  23
BRANCH  18  27
ATOM     27  N   LIG    1       -2.330  -0.455  -0.592  0.00  0.00    -0.580 N 
ATOM     28  H   LIG    1       -3.001  -1.112  -0.225  0.00  0.00    +0.390 HD
ATOM     29  H   LIG    1       -2.437  -0.348  -1.590  0.00  0.00    +0.380 HD
ENDBRANCH  18  27
ENDBRANCH  17  19
ENDBRANCH  16  17
ENDBRANCH   1  16
TORSDOF 7
