REMARK  Name = ZINCrD00000732XZ.0
REMARK                            x       y       z     vdW  Elec       q    Type
REMARK                         _______ _______ _______ _____ _____    ______ ____
ROOT
ATOM      1  C   LIG    1        5.347   7.821  -1.357  0.00  0.00    -0.290 C 
ATOM      2  C   LIG    1        6.389   7.314  -2.052  0.00  0.00    +0.270 C 
ATOM      3  N   LIG    1        7.355   6.574  -1.433  0.00  0.00    -0.640 N 
ATOM      4  H   LIG    1        8.085   6.231  -1.973  0.00  0.00    +0.430 HD
ATOM      5  C   LIG    1        7.352   6.295  -0.124  0.00  0.00    +0.710 C 
ATOM      6  N   LIG    1        6.379   6.730   0.700  0.00  0.00    -0.710 N 
ATOM      7  H   LIG    1        6.397   6.516   1.645  0.00  0.00    +0.430 HD
ATOM      8  O   LIG    1        8.257   5.627   0.337  0.00  0.00    -0.560 OA
ATOM      9  C   LIG    1        6.487   7.571  -3.534  0.00  0.00    +0.150 C 
ATOM     10  C   LIG    1        5.288   7.539   0.130  0.00  0.00    +0.340 C 
ENDROOT
BRANCH  10  11
ATOM     11  C   LIG    1        3.988   6.834   0.418  0.00  0.00    -0.140 A 
ATOM     12  C   LIG    1        2.982   7.495   1.098  0.00  0.00    +0.100 A 
ATOM     13  C   LIG    1        1.786   6.857   1.361  0.00  0.00    +0.010 A 
ATOM     14  C   LIG    1        1.597   5.538   0.947  0.00  0.00    +0.020 A 
ATOM     15  C   LIG    1        2.615   4.874   0.260  0.00  0.00    -0.030 A 
ATOM     16  C   LIG    1        3.805   5.525  -0.001  0.00  0.00    +0.130 A 
ATOM     17  F   LIG    1        4.792   4.886  -0.665  0.00  0.00    -0.130 F 
BRANCH  14  18
ATOM     18  C   LIG    1        0.320   4.848   1.229  0.00  0.00    -0.150 A 
ATOM     19  C   LIG    1       -0.729   5.388   1.882  0.00  0.00    +0.020 A 
ATOM     20  C   LIG    1       -1.813   4.547   2.025  0.00  0.00    +0.000 A 
ATOM     21  C   LIG    1       -1.658   3.328   1.501  0.00  0.00    -0.040 A 
ATOM     22  S   LIG    1       -0.066   3.196   0.766  0.00  0.00    +0.120 S 
ENDBRANCH  14  18
ENDBRANCH  10  11
BRANCH   1  23
ATOM     23  C   LIG    1        4.346   8.588  -1.997  0.00  0.00    +0.540 C 
ATOM     24  O   LIG    1        4.470   8.896  -3.168  0.00  0.00    -0.520 OA
BRANCH  23  25
ATOM     25  O   LIG    1        3.252   8.977  -1.309  0.00  0.00    -0.340 OA
BRANCH  25  26
ATOM     26  C   LIG    1        2.281   9.750  -2.018  0.00  0.00    +0.230 C 
BRANCH  26  27
ATOM     27  C   LIG    1        1.122  10.096  -1.081  0.00  0.00    +0.190 C 
BRANCH  27  29
ATOM     28  C   LIG    1        0.583  11.333   0.900  0.00  0.00    +0.200 C 
ATOM     29  O   LIG    1        1.593  10.948  -0.036  0.00  0.00    -0.380 OA
ENDBRANCH  27  29
ENDBRANCH  26  27
ENDBRANCH  25  26
ENDBRANCH  23  25
ENDBRANCH   1  23
TORSDOF 7
