REMARK  Name = ZINCpe000000UpRo.0
REMARK                            x       y       z     vdW  Elec       q    Type
REMARK                         _______ _______ _______ _____ _____    ______ ____
ROOT
ATOM      1  N   LIG    1       -5.849   5.871  -0.474  0.00  0.00    -0.680 N 
ATOM      2  H   LIG    1       -6.754   5.524  -0.431  0.00  0.00    +0.410 HD
ATOM      3  C   LIG    1       -5.615   7.074  -1.035  0.00  0.00    +0.510 C 
ATOM      4  O   LIG    1       -4.481   7.497  -1.110  0.00  0.00    -0.500 OA
ENDROOT
BRANCH   1   8
ATOM      5  C   LIG    1       -2.688   3.645   1.077  0.00  0.00    -0.150 A 
ATOM      6  C   LIG    1       -3.658   3.026   0.283  0.00  0.00    +0.050 A 
ATOM      7  C   LIG    1       -4.704   3.763  -0.224  0.00  0.00    -0.020 A 
ATOM      8  C   LIG    1       -4.791   5.126   0.045  0.00  0.00    +0.170 A 
ATOM      9  C   LIG    1       -3.825   5.746   0.831  0.00  0.00    +0.010 A 
ATOM     10  C   LIG    1       -2.779   5.013   1.345  0.00  0.00    +0.100 A 
BRANCH   5  13
ATOM     11  C   LIG    1        0.099   1.097   1.369  0.00  0.00    +0.300 C 
ATOM     12  N   LIG    1       -1.176   1.723   1.009  0.00  0.00    -0.620 N 
ATOM     13  C   LIG    1       -1.568   2.856   1.625  0.00  0.00    +0.560 C 
ATOM     14  O   LIG    1       -1.002   3.226   2.636  0.00  0.00    -0.530 OA
ATOM     15  C   LIG    1       -2.024   1.118  -0.020  0.00  0.00    +0.300 C 
ENDBRANCH   5  13
ENDBRANCH   1   8
BRANCH   3  16
ATOM     16  C   LIG    1       -6.762   7.892  -1.570  0.00  0.00    +0.230 C 
BRANCH  16  17
ATOM     17  N   LIG    1       -6.248   9.151  -2.125  0.00  0.00    -0.490 NA
ATOM     18  C   LIG    1       -5.923  10.112  -1.050  0.00  0.00    +0.190 C 
ATOM     19  C   LIG    1       -6.247  11.502  -1.650  0.00  0.00    +0.030 C 
ATOM     20  C   LIG    1       -7.512  11.193  -2.493  0.00  0.00    +0.030 C 
ATOM     21  C   LIG    1       -7.235   9.772  -3.027  0.00  0.00    +0.160 C 
BRANCH  21  22
ATOM     22  C   LIG    1       -8.508   8.967  -3.027  0.00  0.00    +0.500 C 
ATOM     23  N   LIG    1       -9.162   8.739  -4.183  0.00  0.00    -0.620 N 
ATOM     24  C   LIG    1       -8.635   9.274  -5.441  0.00  0.00    +0.290 C 
ATOM     25  C   LIG    1      -10.400   7.956  -4.182  0.00  0.00    +0.290 C 
ATOM     26  O   LIG    1       -8.945   8.524  -1.986  0.00  0.00    -0.540 OA
ENDBRANCH  21  22
ENDBRANCH  16  17
ENDBRANCH   3  16
TORSDOF 5
