REMARK  Name = ZINCpe00000MJIDq.0
REMARK                            x       y       z     vdW  Elec       q    Type
REMARK                         _______ _______ _______ _____ _____    ______ ____
ROOT
ATOM      1  O   LIG    1        2.117  -2.811   2.410  0.00  0.00    -0.530 OA
ATOM      2  C   LIG    1        1.909  -2.238   3.459  0.00  0.00    +0.500 C 
ATOM      3  N   LIG    1        2.101  -2.881   4.628  0.00  0.00    -0.730 N 
ATOM      4  H   LIG    1        1.935  -2.423   5.466  0.00  0.00    +0.400 HD
ENDROOT
BRANCH   3   5
ATOM      5  C   LIG    1        2.560  -4.272   4.631  0.00  0.00    +0.320 C 
BRANCH   5   6
ATOM      6  C   LIG    1        2.694  -4.754   6.053  0.00  0.00    -0.120 A 
ATOM      7  C   LIG    1        3.895  -4.604   6.722  0.00  0.00    +0.070 A 
ATOM      8  C   LIG    1        4.019  -5.038   8.027  0.00  0.00    -0.010 A 
ATOM      9  C   LIG    1        2.940  -5.637   8.663  0.00  0.00    +0.170 A 
ATOM     10  C   LIG    1        1.737  -5.792   7.987  0.00  0.00    +0.020 A 
ATOM     11  C   LIG    1        1.618  -5.350   6.684  0.00  0.00    +0.070 A 
BRANCH   9  12
ATOM     12  N   LIG    1        3.064  -6.085   9.986  0.00  0.00    -0.330 N 
ATOM     13  C   LIG    1        4.173  -5.997  10.755  0.00  0.00    +0.230 A 
ATOM     14  C   LIG    1        3.883  -6.540  11.960  0.00  0.00    -0.100 A 
ATOM     15  C   LIG    1        2.553  -6.976  11.927  0.00  0.00    +0.250 A 
ATOM     16  N   LIG    1        2.060  -6.699  10.746  0.00  0.00    -0.290 NA
ENDBRANCH   9  12
ENDBRANCH   5   6
ENDBRANCH   3   5
BRANCH   2  17
ATOM     17  C   LIG    1        1.437  -0.807   3.455  0.00  0.00    +0.310 C 
BRANCH  17  18
ATOM     18  N   LIG    1        1.307  -0.339   2.073  0.00  0.00    -0.580 N 
ATOM     19  C   LIG    1        2.455   0.294   1.404  0.00  0.00    +0.290 C 
ATOM     20  C   LIG    1        2.177   1.792   1.267  0.00  0.00    -0.000 C 
ATOM     21  C   LIG    1        1.393   2.083  -0.000  0.00  0.00    +0.020 C 
ATOM     22  C   LIG    1       -0.019   1.526   0.010  0.00  0.00    +0.050 C 
ATOM     23  C   LIG    1        0.002  -0.004   0.002  0.00  0.00    +0.190 C 
ATOM     24  C   LIG    1        0.149  -0.490   1.429  0.00  0.00    +0.490 C 
ATOM     25  O   LIG    1       -0.788  -1.019   1.987  0.00  0.00    -0.540 OA
BRANCH  23  26
ATOM     26  O   LIG    1        1.107  -0.465  -0.779  0.00  0.00    -0.540 OA
ATOM     27  H   LIG    1        1.180  -1.428  -0.827  0.00  0.00    +0.390 HD
ENDBRANCH  23  26
ENDBRANCH  17  18
ENDBRANCH   2  17
TORSDOF 6
