REMARK  Name = ZINCkj000005lpXA.0
REMARK                            x       y       z     vdW  Elec       q    Type
REMARK                         _______ _______ _______ _____ _____    ______ ____
ROOT
ATOM      1  N   LIG    1       -0.011   0.966   0.007  0.00  0.00    -0.720 N 
ATOM      2  H   LIG    1        0.002  -0.004   0.002  0.00  0.00    +0.410 HD
ATOM      3  C   LIG    1        1.147   1.655   0.000  0.00  0.00    +0.570 C 
ATOM      4  O   LIG    1        1.130   2.871   0.007  0.00  0.00    -0.530 OA
ENDROOT
BRANCH   3   5
ATOM      5  C   LIG    1        2.437   0.934  -0.016  0.00  0.00    -0.140 A 
ATOM      6  C   LIG    1        2.456  -0.460  -0.018  0.00  0.00    +0.040 A 
ATOM      7  C   LIG    1        3.663  -1.128  -0.041  0.00  0.00    +0.010 A 
ATOM      8  C   LIG    1        4.847  -0.416  -0.048  0.00  0.00    +0.050 A 
ATOM      9  C   LIG    1        4.837   0.972  -0.038  0.00  0.00    -0.080 A 
ATOM     10  C   LIG    1        6.154   1.706  -0.040  0.00  0.00    +0.060 C 
ATOM     11  C   LIG    1        5.933   3.164  -0.446  0.00  0.00    +0.210 C 
ATOM     12  O   LIG    1        4.857   3.695   0.337  0.00  0.00    -0.380 OA
ATOM     13  C   LIG    1        3.585   3.155  -0.020  0.00  0.00    +0.300 C 
ATOM     14  C   LIG    1        3.639   1.650  -0.024  0.00  0.00    -0.060 A 
ENDBRANCH   3   5
BRANCH   1  19
ATOM     15  C   LIG    1       -4.511   2.376   0.492  0.00  0.00    +0.130 C 
ATOM     16  C   LIG    1       -4.669   0.978   1.097  0.00  0.00    +0.140 C 
ATOM     17  C   LIG    1       -3.309   1.443   0.589  0.00  0.00    -0.150 C 
ATOM     18  C   LIG    1       -2.461   0.856  -0.545  0.00  0.00    +0.100 C 
ATOM     19  C   LIG    1       -1.290   1.681   0.017  0.00  0.00    +0.250 C 
ATOM     20  C   LIG    1       -2.008   1.639   1.378  0.00  0.00    +0.070 C 
BRANCH  15  21
ATOM     21  N   LIG    1       -4.556   3.522   1.410  0.00  0.00    -0.610 N 
ATOM     22  H   LIG    1       -4.552   3.190   2.363  0.00  0.00    +0.430 HD
ATOM     23  H   LIG    1       -5.397   4.054   1.243  0.00  0.00    +0.440 HD
ATOM     24  H   LIG    1       -3.750   4.109   1.255  0.00  0.00    +0.440 HD
ENDBRANCH  15  21
ENDBRANCH   1  19
TORSDOF 3
