REMARK  Name = ZINCrH000004tXQ6.0
REMARK                            x       y       z     vdW  Elec       q    Type
REMARK                         _______ _______ _______ _____ _____    ______ ____
ROOT
ATOM      1  O   LIG    1        0.055   9.433  -3.324  0.00  0.00    -0.460 OA
ATOM      2  C   LIG    1       -0.854   9.174  -4.084  0.00  0.00    +0.500 C 
ATOM      3  N   LIG    1       -1.365  10.138  -4.875  0.00  0.00    -0.670 N 
ATOM      4  H   LIG    1       -2.040   9.916  -5.535  0.00  0.00    +0.420 HD
ENDROOT
BRANCH   3   5
ATOM      5  C   LIG    1       -0.923  11.454  -4.746  0.00  0.00    +0.360 A 
ATOM      6  C   LIG    1       -1.529  12.461  -5.491  0.00  0.00    -0.070 A 
ATOM      7  C   LIG    1       -1.071  13.757  -5.343  0.00  0.00    -0.010 A 
ATOM      8  C   LIG    1       -0.039  14.007  -4.468  0.00  0.00    -0.160 A 
ATOM      9  C   LIG    1        0.479  15.417  -4.285  0.00  0.00    +0.080 C 
ATOM     10  C   LIG    1       -0.588  16.230  -3.545  0.00  0.00    +0.010 C 
ATOM     11  C   LIG    1       -1.606  16.797  -4.512  0.00  0.00    +0.000 C 
ATOM     12  C   LIG    1       -2.498  15.763  -5.170  0.00  0.00    +0.020 C 
ATOM     13  C   LIG    1        0.522  12.964  -3.757  0.00  0.00    +0.300 A 
ATOM     14  C   LIG    1       -1.694  14.885  -6.134  0.00  0.00    +0.080 C 
ATOM     15  N   LIG    1        0.066  11.734  -3.911  0.00  0.00    -0.480 NA
ENDBRANCH   3   5
BRANCH   2  16
ATOM     16  C   LIG    1       -1.411   7.776  -4.144  0.00  0.00    +0.140 C 
BRANCH  16  17
ATOM     17  C   LIG    1       -0.671   6.898  -3.168  0.00  0.00    -0.230 A 
ATOM     18  C   LIG    1       -1.005   6.689  -1.873  0.00  0.00    +0.240 A 
ATOM     19  N   LIG    1       -0.095   5.844  -1.345  0.00  0.00    -0.370 N 
ATOM     20  N   LIG    1        0.831   5.526  -2.347  0.00  0.00    -0.290 NA
ATOM     21  C   LIG    1        0.482   6.154  -3.440  0.00  0.00    +0.240 A 
BRANCH  19  22
ATOM     22  C   LIG    1       -0.076   5.350   0.034  0.00  0.00    +0.370 C 
BRANCH  22  23
ATOM     23  C   LIG    1       -0.057   3.844   0.028  0.00  0.00    -0.110 A 
ATOM     24  C   LIG    1        1.149   3.168   0.015  0.00  0.00    +0.040 A 
ATOM     25  C   LIG    1        1.166   1.785   0.009  0.00  0.00    +0.000 A 
ATOM     26  C   LIG    1       -0.022   1.079   0.017  0.00  0.00    +0.010 A 
ATOM     27  C   LIG    1       -1.228   1.755   0.025  0.00  0.00    +0.000 A 
ATOM     28  C   LIG    1       -1.245   3.137   0.036  0.00  0.00    +0.020 A 
ENDBRANCH  22  23
ENDBRANCH  19  22
ENDBRANCH  16  17
ENDBRANCH   2  16
TORSDOF 5
