REMARK  Name = ZINCpk00000jRzHj.0
REMARK                            x       y       z     vdW  Elec       q    Type
REMARK                         _______ _______ _______ _____ _____    ______ ____
ROOT
ATOM      1  C   LIG    1        0.018  -6.285  -1.346  0.00  0.00    +0.140 C 
ATOM      2  C   LIG    1        1.425  -6.780  -0.975  0.00  0.00    +0.040 C 
ATOM      3  C   LIG    1        1.697  -6.894  -2.484  0.00  0.00    +0.020 C 
ATOM      4  C   LIG    1        0.179  -7.058  -2.665  0.00  0.00    +0.050 C 
ENDROOT
BRANCH   1   6
ATOM      5  C   LIG    1       -1.115  -4.294  -2.175  0.00  0.00    +0.580 C 
ATOM      6  N   LIG    1       -0.067  -4.833  -1.523  0.00  0.00    -0.690 N 
ATOM      7  H   LIG    1        0.632  -4.260  -1.170  0.00  0.00    +0.410 HD
ATOM      8  O   LIG    1       -1.944  -5.015  -2.696  0.00  0.00    -0.520 OA
BRANCH   5  12
ATOM      9  C   LIG    1       -1.494  -0.111  -2.393  0.00  0.00    -0.110 A 
ATOM     10  C   LIG    1       -2.465  -0.891  -3.002  0.00  0.00    +0.060 A 
ATOM     11  C   LIG    1       -2.345  -2.270  -2.933  0.00  0.00    +0.050 A 
ATOM     12  C   LIG    1       -1.259  -2.821  -2.258  0.00  0.00    +0.070 A 
ATOM     13  N   LIG    1       -0.350  -2.039  -1.688  0.00  0.00    -0.460 NA
ATOM     14  C   LIG    1       -0.437  -0.728  -1.742  0.00  0.00    +0.260 A 
BRANCH   9  16
ATOM     15  C   LIG    1       -2.378   1.897  -1.237  0.00  0.00    +0.030 C 
ATOM     16  C   LIG    1       -1.584   1.392  -2.443  0.00  0.00    +0.070 C 
ENDBRANCH   9  16
ENDBRANCH   5  12
ENDBRANCH   1   6
BRANCH   1  17
ATOM     17  C   LIG    1       -1.086  -6.839  -0.443  0.00  0.00    +0.290 C 
BRANCH  17  18
ATOM     18  N   LIG    1       -1.167  -6.034   0.779  0.00  0.00    -0.710 N 
ATOM     19  H   LIG    1       -0.520  -5.329   0.939  0.00  0.00    +0.410 HD
ATOM     20  C   LIG    1       -2.139  -6.274   1.681  0.00  0.00    +0.600 C 
ATOM     21  O   LIG    1       -2.949  -7.158   1.481  0.00  0.00    -0.500 OA
BRANCH  20  22
ATOM     22  C   LIG    1       -2.220  -5.463   2.914  0.00  0.00    -0.020 A 
ATOM     23  N   LIG    1       -1.415  -4.476   3.278  0.00  0.00    -0.230 NA
ATOM     24  N   LIG    1       -1.815  -4.020   4.412  0.00  0.00    -0.220 N 
ATOM     25  H   LIG    1       -1.391  -3.290   4.889  0.00  0.00    +0.480 HD
ATOM     26  N   LIG    1       -2.847  -4.660   4.831  0.00  0.00    -0.260 NA
ATOM     27  C   LIG    1       -3.166  -5.581   3.953  0.00  0.00    +0.100 A 
ATOM     28 CL   LIG    1       -4.481  -6.711   4.049  0.00  0.00    +0.060 Cl
ENDBRANCH  20  22
ENDBRANCH  17  18
ENDBRANCH   1  17
TORSDOF 6
