REMARK  Name = ZINCtV000002wRHx.0
REMARK                            x       y       z     vdW  Elec       q    Type
REMARK                         _______ _______ _______ _____ _____    ______ ____
ROOT
ATOM      1  C   LIG    1       -3.025   3.244   1.513  0.00  0.00    +0.170 C 
ENDROOT
BRANCH   1   4
ATOM      2  C   LIG    1       -5.485   5.928   1.547  0.00  0.00    +0.130 A 
ATOM      3  N   LIG    1       -4.628   5.070   1.072  0.00  0.00    -0.460 NA
ATOM      4  C   LIG    1       -4.036   4.278   1.937  0.00  0.00    +0.090 A 
ATOM      5  C   LIG    1       -4.390   4.442   3.215  0.00  0.00    -0.050 A 
ATOM      6  S   LIG    1       -5.580   5.739   3.296  0.00  0.00    +0.100 S 
BRANCH   2  10
ATOM      7  C   LIG    1       -7.697   8.734  -0.754  0.00  0.00    +0.150 A 
ATOM      8  C   LIG    1       -7.863   8.684   0.624  0.00  0.00    -0.010 A 
ATOM      9  C   LIG    1       -7.147   7.775   1.374  0.00  0.00    +0.080 A 
ATOM     10  C   LIG    1       -6.255   6.904   0.746  0.00  0.00    -0.070 A 
ATOM     11  C   LIG    1       -6.087   6.961  -0.638  0.00  0.00    +0.120 A 
ATOM     12  C   LIG    1       -6.810   7.869  -1.382  0.00  0.00    -0.070 A 
BRANCH   7  13
ATOM     13  O   LIG    1       -8.404   9.631  -1.489  0.00  0.00    -0.310 OA
BRANCH  13  15
ATOM     14  C   LIG    1       -9.062  10.698  -3.556  0.00  0.00    +0.070 C 
ATOM     15  C   LIG    1       -8.184   9.628  -2.901  0.00  0.00    +0.190 C 
ENDBRANCH  13  15
ENDBRANCH   7  13
ENDBRANCH   2  10
ENDBRANCH   1   4
BRANCH   1  16
ATOM     16  S   LIG    1       -1.366   3.975   1.536  0.00  0.00    -0.150 S 
BRANCH  16  17
ATOM     17  C   LIG    1       -0.307   2.601   1.005  0.00  0.00    +0.010 C 
ATOM     18  C   LIG    1       -0.645   2.225  -0.439  0.00  0.00    +0.080 C 
BRANCH  17  19
ATOM     19  C   LIG    1        1.139   3.019   1.091  0.00  0.00    +0.550 C 
ATOM     20  N   LIG    1        2.108   2.084   1.143  0.00  0.00    -0.680 N 
ATOM     21  H   LIG    1        1.874   1.145   1.199  0.00  0.00    +0.410 HD
ATOM     22  O   LIG    1        1.429   4.196   1.112  0.00  0.00    -0.490 OA
BRANCH  20  23
ATOM     23  C   LIG    1        3.454   2.470   1.116  0.00  0.00    +0.150 A 
ATOM     24  C   LIG    1        4.115   2.607  -0.099  0.00  0.00    -0.020 A 
ATOM     25  C   LIG    1        5.443   2.993  -0.121  0.00  0.00    +0.050 A 
ATOM     26  C   LIG    1        6.116   3.231   1.063  0.00  0.00    +0.060 A 
ATOM     27  C   LIG    1        5.463   3.089   2.273  0.00  0.00    +0.050 A 
ATOM     28 CL   LIG    1        3.273   2.302  -1.586  0.00  0.00    -0.040 Cl
ATOM     29  C   LIG    1        4.134   2.710   2.304  0.00  0.00    -0.020 A 
ATOM     30 CL   LIG    1        3.315   2.533   3.824  0.00  0.00    -0.040 Cl
ENDBRANCH  20  23
ENDBRANCH  17  19
ENDBRANCH  16  17
ENDBRANCH   1  16
TORSDOF 8
