REMARK  Name = ZINCb700000010j2.0
REMARK                            x       y       z     vdW  Elec       q    Type
REMARK                         _______ _______ _______ _____ _____    ______ ____
ROOT
ATOM      1  C   LIG    1       -0.014   1.211   0.009  0.00  0.00    +0.650 C 
ATOM      2  N   LIG    1        1.143   1.901   0.001  0.00  0.00    -0.600 N 
ATOM      3  C   LIG    1        1.140   3.370   0.003  0.00  0.00    +0.290 C 
ATOM      4  C   LIG    1        1.988   3.871  -1.165  0.00  0.00    +0.060 C 
ATOM      5  C   LIG    1        3.382   3.246  -1.085  0.00  0.00    +0.050 C 
ATOM      6  C   LIG    1        3.267   1.723  -1.188  0.00  0.00    +0.160 C 
ATOM      7  C   LIG    1        2.433   1.198  -0.015  0.00  0.00    +0.330 C 
ATOM      8  O   LIG    1        0.002  -0.004   0.002  0.00  0.00    -0.560 OA
ENDROOT
BRANCH   6   9
ATOM      9  N   LIG    1        4.608   1.125  -1.143  0.00  0.00    -0.630 N 
ATOM     10  H   LIG    1        5.058   1.372  -0.274  0.00  0.00    +0.440 HD
ATOM     11  H   LIG    1        5.156   1.472  -1.916  0.00  0.00    +0.440 HD
ATOM     12  H   LIG    1        4.531   0.121  -1.209  0.00  0.00    +0.440 HD
ENDBRANCH   6   9
BRANCH   1  14
ATOM     13  C   LIG    1       -2.396   1.061   0.019  0.00  0.00    +0.300 C 
ATOM     14  O   LIG    1       -1.189   1.868   0.018  0.00  0.00    -0.360 OA
ENDBRANCH   1  14
TORSDOF 2
