REMARK  Name = ZINCrH000004tPq3.0
REMARK                            x       y       z     vdW  Elec       q    Type
REMARK                         _______ _______ _______ _____ _____    ______ ____
ROOT
ATOM      1  O   LIG    1       -3.132   2.722   1.802  0.00  0.00    -0.490 OA
ATOM      2  C   LIG    1       -3.356   3.552   0.946  0.00  0.00    +0.520 C 
ATOM      3  N   LIG    1       -2.403   3.864   0.044  0.00  0.00    -0.670 N 
ATOM      4  H   LIG    1       -2.554   4.578  -0.594  0.00  0.00    +0.410 HD
ENDROOT
BRANCH   3   5
ATOM      5  C   LIG    1       -1.192   3.153   0.029  0.00  0.00    +0.040 A 
ATOM      6  C   LIG    1       -0.013   3.815   0.163  0.00  0.00    +0.290 A 
ATOM      7  N   LIG    1        1.166   3.137   0.150  0.00  0.00    -0.490 N 
ATOM      8  C   LIG    1        1.190   1.799   0.003  0.00  0.00    +0.510 A 
ATOM      9  C   LIG    1       -0.011   1.083  -0.139  0.00  0.00    -0.060 A 
ATOM     10  O   LIG    1        2.257   1.206  -0.006  0.00  0.00    -0.540 OA
ATOM     11  C   LIG    1       -1.197   1.756  -0.131  0.00  0.00    +0.130 A 
BRANCH   7  12
ATOM     12  C   LIG    1        2.425   3.872   0.297  0.00  0.00    +0.360 C 
BRANCH  12  13
ATOM     13  C   LIG    1        2.930   4.280  -1.063  0.00  0.00    -0.170 A 
ATOM     14  C   LIG    1        2.558   5.496  -1.614  0.00  0.00    +0.070 A 
ATOM     15  C   LIG    1        3.047   5.829  -2.868  0.00  0.00    -0.040 A 
ATOM     16  C   LIG    1        3.885   4.945  -3.521  0.00  0.00    +0.270 A 
ATOM     17  N   LIG    1        4.218   3.796  -2.965  0.00  0.00    -0.480 NA
ATOM     18  C   LIG    1        3.776   3.449  -1.773  0.00  0.00    +0.290 A 
ENDBRANCH  12  13
ENDBRANCH   7  12
ENDBRANCH   3   5
BRANCH   2  19
ATOM     19  C   LIG    1       -4.697   4.236   0.891  0.00  0.00    +0.240 C 
BRANCH  19  20
ATOM     20  O   LIG    1       -5.528   3.740   1.942  0.00  0.00    -0.270 OA
BRANCH  20  21
ATOM     21  C   LIG    1       -6.782   4.257   2.034  0.00  0.00    +0.150 A 
ATOM     22  C   LIG    1       -7.202   5.225   1.135  0.00  0.00    -0.040 A 
ATOM     23  C   LIG    1       -8.479   5.745   1.226  0.00  0.00    +0.100 A 
ATOM     24  C   LIG    1       -9.335   5.309   2.221  0.00  0.00    -0.120 A 
ATOM     25  C   LIG    1       -8.917   4.348   3.124  0.00  0.00    +0.110 A 
ATOM     26 BR   LIG    1      -11.079   6.029   2.348  0.00  0.00    -0.030 Br
ATOM     27  C   LIG    1       -7.643   3.820   3.033  0.00  0.00    -0.060 A 
ATOM     28 CL   LIG    1       -7.119   2.614   4.165  0.00  0.00    -0.030 Cl
ENDBRANCH  20  21
ENDBRANCH  19  20
ENDBRANCH   2  19
TORSDOF 6
