REMARK  Name = ZINCpk00000y6ycV.0
REMARK                            x       y       z     vdW  Elec       q    Type
REMARK                         _______ _______ _______ _____ _____    ______ ____
ROOT
ATOM      1  C   LIG    1       -0.798   1.615   1.227  0.00  0.00    +0.390 C 
ATOM      2  C   LIG    1       -0.013   1.086   0.008  0.00  0.00    +0.100 C 
ATOM      3  C   LIG    1       -0.825   1.630  -1.196  0.00  0.00    +0.190 C 
ATOM      4  C   LIG    1       -2.275   1.541  -0.659  0.00  0.00    +0.260 C 
ATOM      5  N   LIG    1       -2.171   1.894   0.768  0.00  0.00    -1.000 NA
ENDROOT
BRANCH   1  10
ATOM      6  C   LIG    1        0.050  -0.970   5.431  0.00  0.00    +0.200 C 
ATOM      7  C   LIG    1       -0.470  -0.531   4.087  0.00  0.00    +0.170 A 
ATOM      8  N   LIG    1       -1.322  -1.173   3.345  0.00  0.00    -0.380 NA
ATOM      9  O   LIG    1       -1.536  -0.556   2.322  0.00  0.00    +0.090 OA
ATOM     10  C   LIG    1       -0.819   0.572   2.315  0.00  0.00    +0.140 A 
ATOM     11  N   LIG    1       -0.133   0.594   3.432  0.00  0.00    -0.450 NA
ENDBRANCH   1  10
BRANCH   5  12
ATOM     12  S   LIG    1       -3.394   2.503   1.704  0.00  0.00    +2.710 S 
ATOM     13  O   LIG    1       -4.313   3.119   0.812  0.00  0.00    -0.930 OA
ATOM     14  O   LIG    1       -2.772   3.194   2.778  0.00  0.00    -0.940 OA
BRANCH  12  15
ATOM     15  C   LIG    1       -4.238   1.131   2.417  0.00  0.00    -0.690 A 
ATOM     16  C   LIG    1       -4.215   0.945   3.784  0.00  0.00    +0.170 A 
ATOM     17  C   LIG    1       -4.873  -0.130   4.355  0.00  0.00    -0.080 A 
ATOM     18  C   LIG    1       -5.555  -1.025   3.548  0.00  0.00    +0.150 A 
ATOM     19  C   LIG    1       -5.577  -0.842   2.183  0.00  0.00    -0.180 A 
ATOM     20  C   LIG    1       -6.213  -1.637   1.059  0.00  0.00    +0.090 C 
ATOM     21  C   LIG    1       -5.487  -1.071  -0.184  0.00  0.00    +0.260 C 
ATOM     22  O   LIG    1       -5.092   0.242   0.248  0.00  0.00    -0.290 OA
ATOM     23 CL   LIG    1       -4.844  -0.356   6.076  0.00  0.00    -0.050 Cl
ATOM     24  C   LIG    1       -4.931   0.241   1.600  0.00  0.00    +0.210 A 
ENDBRANCH  12  15
ENDBRANCH   5  12
BRANCH   3  25
ATOM     25  O   LIG    1       -0.468   2.984  -1.485  0.00  0.00    -0.550 OA
ATOM     26  H   LIG    1       -0.950   3.367  -2.231  0.00  0.00    +0.390 HD
ENDBRANCH   3  25
TORSDOF 4
