REMARK  Name = ZINCrH000004uCdp.0
REMARK                            x       y       z     vdW  Elec       q    Type
REMARK                         _______ _______ _______ _____ _____    ______ ____
ROOT
ATOM      1  O   LIG    1       -0.107   7.764  -1.165  0.00  0.00    -0.580 OA
ATOM      2  C   LIG    1       -1.075   7.060  -1.382  0.00  0.00    +0.710 C 
ATOM      3  N   LIG    1       -1.162   5.841  -0.814  0.00  0.00    -0.740 N 
ATOM      4  H   LIG    1       -1.933   5.279  -0.987  0.00  0.00    +0.400 HD
ATOM      5  N   LIG    1       -2.060   7.499  -2.191  0.00  0.00    -0.740 N 
ATOM      6  H   LIG    1       -2.832   6.937  -2.364  0.00  0.00    +0.400 HD
ENDROOT
BRANCH   3   7
ATOM      7  C   LIG    1       -0.091   5.364   0.065  0.00  0.00    +0.340 C 
BRANCH   7   8
ATOM      8  C   LIG    1       -0.082   3.857   0.073  0.00  0.00    -0.090 A 
ATOM      9  C   LIG    1        1.119   3.173   0.064  0.00  0.00    +0.020 A 
ATOM     10  C   LIG    1        1.127   1.791   0.072  0.00  0.00    +0.000 A 
ATOM     11  C   LIG    1       -0.066   1.093   0.090  0.00  0.00    +0.000 A 
ATOM     12  C   LIG    1       -1.267   1.777   0.094  0.00  0.00    +0.000 A 
ATOM     13  C   LIG    1       -1.275   3.159   0.090  0.00  0.00    +0.010 A 
ENDBRANCH   7   8
BRANCH   7  14
ATOM     14  C   LIG    1       -0.328   5.881   1.485  0.00  0.00    -0.060 C 
ATOM     15  C   LIG    1       -1.661   6.577   1.770  0.00  0.00    +0.010 C 
ATOM     16  C   LIG    1       -0.372   7.397   1.687  0.00  0.00    +0.030 C 
ENDBRANCH   7  14
ENDBRANCH   3   7
BRANCH   5  17
ATOM     17  C   LIG    1       -1.965   8.824  -2.808  0.00  0.00    +0.340 C 
BRANCH  17  18
ATOM     18  C   LIG    1       -3.185   9.071  -3.658  0.00  0.00    -0.140 A 
ATOM     19  C   LIG    1       -3.180   8.709  -4.992  0.00  0.00    +0.060 A 
ATOM     20  C   LIG    1       -4.298   8.929  -5.773  0.00  0.00    +0.000 A 
ATOM     21  C   LIG    1       -5.424   9.524  -5.219  0.00  0.00    +0.170 A 
ATOM     22  C   LIG    1       -5.423   9.891  -3.879  0.00  0.00    -0.030 A 
ATOM     23  C   LIG    1       -4.304   9.664  -3.103  0.00  0.00    +0.060 A 
BRANCH  21  24
ATOM     24  N   LIG    1       -6.556   9.754  -6.008  0.00  0.00    -0.560 N 
ATOM     25  C   LIG    1       -7.834  10.262  -5.496  0.00  0.00    +0.260 C 
ATOM     26  C   LIG    1       -8.874   9.943  -6.592  0.00  0.00    +0.060 C 
ATOM     27  C   LIG    1       -7.989   9.883  -7.859  0.00  0.00    +0.070 C 
ATOM     28  C   LIG    1       -6.611   9.543  -7.335  0.00  0.00    +0.520 C 
ATOM     29  O   LIG    1       -5.691   9.136  -8.012  0.00  0.00    -0.510 OA
ENDBRANCH  21  24
ENDBRANCH  17  18
ENDBRANCH   5  17
TORSDOF 6
