REMARK  Name = ZINCrH000004mfNW.0
REMARK                            x       y       z     vdW  Elec       q    Type
REMARK                         _______ _______ _______ _____ _____    ______ ____
ROOT
ATOM      1  C   LIG    1        0.748  -1.208  -0.465  0.00  0.00    +0.190 A 
ATOM      2  C   LIG    1        1.294  -0.216   0.345  0.00  0.00    -0.180 A 
ATOM      3  C   LIG    1        1.921  -0.547   1.527  0.00  0.00    +0.230 A 
ATOM      4  C   LIG    1        2.011  -1.896   1.916  0.00  0.00    -0.170 A 
ATOM      5  C   LIG    1        2.575  -2.544   3.037  0.00  0.00    +0.110 A 
ATOM      6  C   LIG    1        2.369  -3.881   2.893  0.00  0.00    -0.010 A 
ATOM      7  N   LIG    1        1.688  -4.109   1.710  0.00  0.00    -0.570 N 
ATOM      8  H   LIG    1        1.417  -4.976   1.371  0.00  0.00    +0.430 HD
ATOM      9  C   LIG    1        1.458  -2.898   1.094  0.00  0.00    +0.170 A 
ATOM     10  C   LIG    1        0.823  -2.541  -0.093  0.00  0.00    -0.010 A 
ENDROOT
BRANCH   6  11
ATOM     11  C   LIG    1        2.800  -4.916   3.840  0.00  0.00    +0.600 C 
ATOM     12  N   LIG    1        2.393  -6.190   3.677  0.00  0.00    -0.550 N 
ATOM     13  C   LIG    1        2.748  -7.257   4.506  0.00  0.00    +0.140 A 
ATOM     14  C   LIG    1        3.556  -7.262   5.645  0.00  0.00    +0.010 A 
ATOM     15  C   LIG    1        3.780  -8.435   6.333  0.00  0.00    +0.040 A 
ATOM     16  C   LIG    1        3.204  -9.616   5.903  0.00  0.00    -0.010 A 
ATOM     17  C   LIG    1        2.399  -9.619   4.778  0.00  0.00    +0.050 A 
ATOM     18  C   LIG    1        2.171  -8.445   4.086  0.00  0.00    -0.140 A 
ATOM     19  C   LIG    1        1.349  -8.169   2.847  0.00  0.00    +0.120 C 
ATOM     20  C   LIG    1        1.516  -6.661   2.601  0.00  0.00    +0.210 C 
ATOM     21  C   LIG    1        0.160  -5.957   2.675  0.00  0.00    +0.060 C 
ATOM     22  O   LIG    1        3.526  -4.624   4.772  0.00  0.00    -0.500 OA
ENDBRANCH   6  11
BRANCH   1  24
ATOM     23  C   LIG    1        0.082   0.525  -1.951  0.00  0.00    +0.240 C 
ATOM     24  O   LIG    1        0.132  -0.866  -1.627  0.00  0.00    -0.300 OA
ENDBRANCH   1  24
BRANCH   3  25
ATOM     25  O   LIG    1        2.451   0.426   2.314  0.00  0.00    -0.300 OA
ATOM     26  C   LIG    1        2.322   1.773   1.855  0.00  0.00    +0.250 C 
ENDBRANCH   3  25
BRANCH  10  27
ATOM     27  O   LIG    1        0.280  -3.502  -0.891  0.00  0.00    -0.320 OA
ATOM     28  C   LIG    1        1.128  -4.071  -1.891  0.00  0.00    +0.210 C 
ENDBRANCH  10  27
TORSDOF 4
