REMARK  Name = ZINCqH000005083n.0
REMARK                            x       y       z     vdW  Elec       q    Type
REMARK                         _______ _______ _______ _____ _____    ______ ____
ROOT
ATOM      1  O   LIG    1       -3.707  -1.042   0.122  0.00  0.00    -0.320 OA
ENDROOT
BRANCH   1   2
ATOM      2  C   LIG    1       -2.526  -0.403   0.014  0.00  0.00    +0.520 C 
ATOM      3  O   LIG    1       -1.498  -1.040  -0.095  0.00  0.00    -0.490 OA
BRANCH   2  13
ATOM      4  C   LIG    1       -4.842   4.025   0.052  0.00  0.00    +0.140 C 
ATOM      5  C   LIG    1       -3.568   3.219   0.046  0.00  0.00    +0.150 A 
ATOM      6  N   LIG    1       -2.419   3.846   0.064  0.00  0.00    -0.450 NA
ATOM      7  C   LIG    1       -1.257   3.187   0.055  0.00  0.00    +0.130 A 
ATOM      8  C   LIG    1       -0.032   3.880   0.058  0.00  0.00    +0.050 A 
ATOM      9  C   LIG    1        1.137   3.183   0.049  0.00  0.00    +0.030 A 
ATOM     10  C   LIG    1        1.144   1.790   0.036  0.00  0.00    +0.020 A 
ATOM     11  C   LIG    1       -0.023   1.086   0.033  0.00  0.00    +0.050 A 
ATOM     12  C   LIG    1       -1.245   1.771   0.037  0.00  0.00    -0.060 A 
ATOM     13  C   LIG    1       -2.481   1.075   0.028  0.00  0.00    -0.070 A 
ATOM     14  C   LIG    1       -3.648   1.828   0.033  0.00  0.00    +0.070 A 
ENDBRANCH   2  13
ENDBRANCH   1   2
BRANCH   1  15
ATOM     15  C   LIG    1       -3.675  -2.493   0.101  0.00  0.00    +0.190 C 
ATOM     16  C   LIG    1       -3.523  -3.021   1.528  0.00  0.00    +0.070 C 
BRANCH  15  17
ATOM     17  C   LIG    1       -4.958  -3.015  -0.494  0.00  0.00    +0.510 C 
ATOM     18  N   LIG    1       -5.154  -4.343  -0.615  0.00  0.00    -0.660 N 
ATOM     19  H   LIG    1       -4.503  -4.964  -0.251  0.00  0.00    +0.420 HD
ATOM     20  O   LIG    1       -5.815  -2.240  -0.863  0.00  0.00    -0.440 OA
BRANCH  18  21
ATOM     21  C   LIG    1       -6.290  -4.824  -1.264  0.00  0.00    +0.360 A 
ATOM     22  C   LIG    1       -6.542  -6.191  -1.289  0.00  0.00    -0.040 A 
ATOM     23  C   LIG    1       -7.676  -6.655  -1.933  0.00  0.00    +0.110 A 
ATOM     24  C   LIG    1       -8.518  -5.732  -2.539  0.00  0.00    -0.120 A 
ATOM     25  C   LIG    1       -8.203  -4.387  -2.478  0.00  0.00    +0.320 A 
ATOM     26 CL   LIG    1       -9.950  -6.261  -3.365  0.00  0.00    -0.050 Cl
ATOM     27  N   LIG    1       -7.117  -3.975  -1.854  0.00  0.00    -0.460 NA
ENDBRANCH  18  21
ENDBRANCH  15  17
ENDBRANCH   1  15
TORSDOF 5
