REMARK  Name = ZINCrH000004uWF7.0
REMARK                            x       y       z     vdW  Elec       q    Type
REMARK                         _______ _______ _______ _____ _____    ______ ____
ROOT
ATOM      1  O   LIG    1       -6.514  -1.605   0.023  0.00  0.00    -0.520 OA
ATOM      2  C   LIG    1       -5.310  -1.787   0.017  0.00  0.00    +0.590 C 
ATOM      3  N   LIG    1       -4.818  -3.041   0.007  0.00  0.00    -0.720 N 
ATOM      4  H   LIG    1       -3.859  -3.186   0.002  0.00  0.00    +0.400 HD
ENDROOT
BRANCH   3   5
ATOM      5  C   LIG    1       -5.732  -4.187   0.005  0.00  0.00    +0.250 C 
ATOM      6  C   LIG    1       -5.029  -5.400  -0.611  0.00  0.00    +0.020 C 
ATOM      7  C   LIG    1       -5.969  -6.607  -0.555  0.00  0.00    +0.060 C 
ATOM      8  C   LIG    1       -6.373  -6.866   0.898  0.00  0.00    +0.210 C 
ATOM      9  N   LIG    1       -7.041  -5.677   1.441  0.00  0.00    -0.460 N 
ATOM     10  C   LIG    1       -6.142  -4.516   1.442  0.00  0.00    +0.210 C 
BRANCH   9  11
ATOM     11  C   LIG    1       -7.536  -5.922   2.711  0.00  0.00    +0.490 A 
ATOM     12  N   LIG    1       -7.162  -5.139   3.712  0.00  0.00    -0.550 NA
ATOM     13  C   LIG    1       -7.621  -5.343   4.936  0.00  0.00    +0.340 A 
ATOM     14  C   LIG    1       -8.492  -6.396   5.166  0.00  0.00    -0.110 A 
ATOM     15  C   LIG    1       -8.857  -7.199   4.097  0.00  0.00    +0.350 A 
ATOM     16  N   LIG    1       -8.366  -6.937   2.896  0.00  0.00    -0.530 NA
ENDBRANCH   9  11
ENDBRANCH   3   5
BRANCH   2  17
ATOM     17  C   LIG    1       -4.397  -0.642   0.019  0.00  0.00    -0.260 A 
ATOM     18  C   LIG    1       -4.779   0.670   0.029  0.00  0.00    +0.110 A 
ATOM     19  C   LIG    1       -3.746   1.567   0.029  0.00  0.00    +0.010 A 
ATOM     20  C   LIG    1       -2.502   1.007   0.020  0.00  0.00    -0.120 A 
ATOM     21  S   LIG    1       -2.642  -0.746   0.004  0.00  0.00    +0.170 S 
BRANCH  20  22
ATOM     22  C   LIG    1       -1.230   1.759   0.017  0.00  0.00    -0.040 A 
ATOM     23  C   LIG    1       -0.013   1.076   0.008  0.00  0.00    +0.050 A 
ATOM     24  C   LIG    1        1.171   1.783   0.000  0.00  0.00    -0.010 A 
ATOM     25  C   LIG    1        1.154   3.169   0.008  0.00  0.00    +0.110 A 
ATOM     26  C   LIG    1       -0.052   3.852   0.022  0.00  0.00    -0.010 A 
ATOM     27  F   LIG    1        2.317   3.856   0.000  0.00  0.00    -0.130 F 
ATOM     28  C   LIG    1       -1.242   3.155   0.030  0.00  0.00    +0.070 A 
ENDBRANCH  20  22
ENDBRANCH   2  17
TORSDOF 4
