REMARK  Name = ZINCqH0000005tNb.0
REMARK                            x       y       z     vdW  Elec       q    Type
REMARK                         _______ _______ _______ _____ _____    ______ ____
ROOT
ATOM      1  C   LIG    1       -2.138  -2.854  -1.244  0.00  0.00    +0.320 C 
ENDROOT
BRANCH   1   2
ATOM      2  C   LIG    1       -1.012  -2.088  -0.598  0.00  0.00    -0.110 A 
ATOM      3  C   LIG    1        0.040  -2.768  -0.014  0.00  0.00    +0.040 A 
ATOM      4  C   LIG    1        1.074  -2.066   0.578  0.00  0.00    +0.010 A 
ATOM      5  C   LIG    1        1.057  -0.684   0.582  0.00  0.00    +0.040 A 
ATOM      6  C   LIG    1        0.002  -0.004   0.002  0.00  0.00    -0.090 A 
ATOM      7  C   LIG    1       -1.031  -0.706  -0.590  0.00  0.00    +0.040 A 
BRANCH   6   8
ATOM      8  C   LIG    1       -0.018   1.503   0.010  0.00  0.00    +0.220 C 
BRANCH   8   9
ATOM      9  O   LIG    1       -0.687   1.964   1.186  0.00  0.00    -0.380 OA
BRANCH   9  10
ATOM     10  C   LIG    1       -0.762   3.387   1.292  0.00  0.00    +0.290 C 
BRANCH  10  11
ATOM     11  C   LIG    1       -1.483   3.759   2.562  0.00  0.00    -0.020 A 
ATOM     12  C   LIG    1       -0.910   3.957   3.763  0.00  0.00    -0.030 A 
ATOM     13  C   LIG    1       -1.949   4.288   4.663  0.00  0.00    -0.070 A 
ATOM     14  C   LIG    1       -3.096   4.263   3.960  0.00  0.00    +0.180 A 
ATOM     15  O   LIG    1       -2.808   3.942   2.688  0.00  0.00    -0.170 OA
ENDBRANCH  10  11
ENDBRANCH   9  10
ENDBRANCH   8   9
ENDBRANCH   6   8
ENDBRANCH   1   2
BRANCH   1  17
ATOM     16  C   LIG    1       -2.694  -3.756  -3.438  0.00  0.00    +0.600 C 
ATOM     17  N   LIG    1       -1.825  -3.086  -2.655  0.00  0.00    -0.720 N 
ATOM     18  H   LIG    1       -0.991  -2.757  -3.028  0.00  0.00    +0.400 HD
ATOM     19  O   LIG    1       -3.740  -4.168  -2.971  0.00  0.00    -0.530 OA
BRANCH  16  21
ATOM     20  C   LIG    1       -2.737  -3.107  -5.867  0.00  0.00    +0.160 A 
ATOM     21  C   LIG    1       -2.380  -3.989  -4.852  0.00  0.00    -0.340 A 
ATOM     22  C   LIG    1       -1.690  -5.111  -5.307  0.00  0.00    +0.190 A 
ATOM     23  N   LIG    1       -1.482  -5.197  -6.581  0.00  0.00    -0.490 NA
ATOM     24  C   LIG    1       -1.212  -6.180  -4.358  0.00  0.00    +0.160 C 
ATOM     25  S   LIG    1       -2.149  -3.824  -7.316  0.00  0.00    +0.260 S 
BRANCH  20  27
ATOM     26  C   LIG    1       -3.710  -1.106  -6.926  0.00  0.00    +0.310 C 
ATOM     27  N   LIG    1       -3.417  -1.913  -5.739  0.00  0.00    -0.680 N 
ATOM     28  H   LIG    1       -3.701  -1.608  -4.863  0.00  0.00    +0.410 HD
ENDBRANCH  20  27
ENDBRANCH  16  21
ENDBRANCH   1  17
TORSDOF 8
