REMARK  Name = ZINCpk000000mYFE.0
REMARK                            x       y       z     vdW  Elec       q    Type
REMARK                         _______ _______ _______ _____ _____    ______ ____
ROOT
ATOM      1  C   LIG    1       -5.328   3.252  -2.679  0.00  0.00    +0.570 C 
ATOM      2  N   LIG    1       -4.611   2.449  -1.870  0.00  0.00    -0.610 N 
ATOM      3  C   LIG    1       -5.191   1.917  -0.627  0.00  0.00    +0.310 C 
ATOM      4  C   LIG    1       -4.224   2.211   0.526  0.00  0.00    +0.210 C 
ATOM      5  N   LIG    1       -2.893   1.690   0.189  0.00  0.00    -0.460 N 
ATOM      6  C   LIG    1       -2.338   2.367  -0.991  0.00  0.00    +0.200 C 
ATOM      7  C   LIG    1       -3.227   2.080  -2.205  0.00  0.00    +0.290 C 
ATOM      8  O   LIG    1       -6.432   3.630  -2.338  0.00  0.00    -0.520 OA
ENDROOT
BRANCH   1  13
ATOM      9  C   LIG    1       -3.801   3.121  -6.112  0.00  0.00    +0.130 A 
ATOM     10  C   LIG    1       -3.732   4.473  -6.427  0.00  0.00    +0.080 A 
ATOM     11  C   LIG    1       -4.180   5.421  -5.528  0.00  0.00    +0.020 A 
ATOM     12  C   LIG    1       -4.700   5.032  -4.307  0.00  0.00    +0.130 A 
ATOM     13  C   LIG    1       -4.774   3.674  -3.982  0.00  0.00    -0.140 A 
ATOM     14  F   LIG    1       -5.136   5.962  -3.430  0.00  0.00    -0.120 F 
ATOM     15  C   LIG    1       -4.316   2.718  -4.890  0.00  0.00    +0.050 A 
BRANCH   9  18
ATOM     16  C   LIG    1       -1.869   1.461  -8.884  0.00  0.00    +0.110 C 
ATOM     17  C   LIG    1       -2.283   2.437  -7.813  0.00  0.00    +0.510 C 
ATOM     18  N   LIG    1       -3.344   2.165  -7.027  0.00  0.00    -0.680 N 
ATOM     19  H   LIG    1       -3.791   1.307  -7.097  0.00  0.00    +0.420 HD
ATOM     20  O   LIG    1       -1.661   3.467  -7.657  0.00  0.00    -0.520 OA
ENDBRANCH   9  18
ENDBRANCH   1  13
BRANCH   5  21
ATOM     21  C   LIG    1       -2.033   1.791   1.270  0.00  0.00    +0.370 A 
ATOM     22  N   LIG    1       -1.762   2.889   1.935  0.00  0.00    -0.500 NA
ATOM     23  C   LIG    1       -0.883   2.611   2.913  0.00  0.00    +0.150 A 
ATOM     24  C   LIG    1       -0.598   1.299   2.864  0.00  0.00    +0.130 A 
ATOM     25  N   LIG    1       -1.327   0.768   1.823  0.00  0.00    -0.450 N 
ATOM     26  C   LIG    1       -1.337  -0.631   1.391  0.00  0.00    +0.330 C 
ENDBRANCH   5  21
TORSDOF 3
