REMARK  Name = ZINCpk00000ebo1t.0
REMARK                            x       y       z     vdW  Elec       q    Type
REMARK                         _______ _______ _______ _____ _____    ______ ____
ROOT
ATOM      1  N   LIG    1        2.459  -1.220  -0.029  0.00  0.00    -0.620 N 
ATOM      2  H   LIG    1        3.428  -1.171  -0.038  0.00  0.00    +0.440 HD
ATOM      3  C   LIG    1        1.845  -2.420  -0.029  0.00  0.00    +0.490 C 
ATOM      4  O   LIG    1        0.634  -2.482  -0.018  0.00  0.00    -0.490 OA
ENDROOT
BRANCH   1   6
ATOM      5  C   LIG    1        2.229   1.211  -0.013  0.00  0.00    -0.240 A 
ATOM      6  C   LIG    1        1.706  -0.056  -0.015  0.00  0.00    +0.080 A 
ATOM      7  S   LIG    1        0.002  -0.004   0.002  0.00  0.00    +0.300 S 
ATOM      8  C   LIG    1       -0.022   1.750   0.012  0.00  0.00    -0.110 A 
ATOM      9  C   LIG    1        1.211   2.238   0.003  0.00  0.00    +0.060 A 
BRANCH   5  13
ATOM     10  N   LIG    1        4.103   2.770  -0.021  0.00  0.00    -0.850 N 
ATOM     11  H   LIG    1        5.054   2.958  -0.029  0.00  0.00    +0.410 HD
ATOM     12  H   LIG    1        3.464   3.500  -0.012  0.00  0.00    +0.400 HD
ATOM     13  C   LIG    1        3.667   1.494  -0.024  0.00  0.00    +0.600 C 
ATOM     14  O   LIG    1        4.468   0.578  -0.036  0.00  0.00    -0.560 OA
ENDBRANCH   5  13
ENDBRANCH   1   6
BRANCH   3  15
ATOM     15  C   LIG    1        2.663  -3.685  -0.045  0.00  0.00    +0.430 C 
BRANCH  15  16
ATOM     16  N   LIG    1        1.769  -4.846  -0.043  0.00  0.00    -0.450 N 
ATOM     17  N   LIG    1        1.275  -5.518   1.085  0.00  0.00    -0.250 NA
ATOM     18  C   LIG    1        0.514  -6.487   0.667  0.00  0.00    +0.300 A 
ATOM     19  O   LIG    1        0.497  -6.484  -0.684  0.00  0.00    -0.260 OA
ATOM     20  C   LIG    1        1.267  -5.476  -1.126  0.00  0.00    +0.620 A 
ATOM     21  O   LIG    1        1.475  -5.185  -2.289  0.00  0.00    -0.470 OA
BRANCH  18  22
ATOM     22  C   LIG    1       -0.211  -7.443   1.532  0.00  0.00    -0.050 A 
ATOM     23  C   LIG    1       -0.110  -7.347   2.920  0.00  0.00    +0.120 A 
ATOM     24  C   LIG    1       -0.793  -8.237   3.722  0.00  0.00    -0.010 A 
ATOM     25  C   LIG    1       -1.569  -9.233   3.151  0.00  0.00    +0.130 A 
ATOM     26  C   LIG    1       -1.669  -9.337   1.773  0.00  0.00    +0.000 A 
ATOM     27  F   LIG    1       -2.232 -10.106   3.942  0.00  0.00    -0.130 F 
ATOM     28  C   LIG    1       -0.995  -8.448   0.962  0.00  0.00    +0.110 A 
ENDBRANCH  18  22
ENDBRANCH  15  16
ENDBRANCH   3  15
TORSDOF 5
