REMARK  Name = ZINC650000002xOA.0
REMARK                            x       y       z     vdW  Elec       q    Type
REMARK                         _______ _______ _______ _____ _____    ______ ____
ROOT
ATOM      1  C   LIG    1       -0.930   1.679   1.086  0.00  0.00    +0.180 C 
ATOM      2  C   LIG    1       -0.013   1.086   0.008  0.00  0.00    +0.300 C 
ATOM      3  N   LIG    1       -0.914   1.667  -1.005  0.00  0.00    -0.530 N 
ATOM      4  H   LIG    1       -1.682   1.062  -1.252  0.00  0.00    +0.440 HD
ATOM      5  H   LIG    1       -0.429   2.037  -1.808  0.00  0.00    +0.440 HD
ATOM      6  C   LIG    1       -1.274   2.696  -0.012  0.00  0.00    +0.280 C 
ENDROOT
BRANCH   1   8
ATOM      7  C   LIG    1       -0.960   2.165   3.433  0.00  0.00    +0.250 C 
ATOM      8  O   LIG    1       -0.235   2.236   2.204  0.00  0.00    -0.350 OA
ENDBRANCH   1   8
TORSDOF 1
