REMARK  Name = ZINCrH000004tefh.1
REMARK                            x       y       z     vdW  Elec       q    Type
REMARK                         _______ _______ _______ _____ _____    ______ ____
ROOT
ATOM      1  C   LIG    1        9.233  -0.860   1.439  0.00  0.00    +0.130 C 
ATOM      2  C   LIG    1        9.664   0.479   0.831  0.00  0.00    +0.020 C 
ATOM      3  C   LIG    1        9.339   0.479  -0.665  0.00  0.00    +0.200 C 
ATOM      4  O   LIG    1        9.999  -0.621  -1.294  0.00  0.00    -0.380 OA
ATOM      5  C   LIG    1        9.601  -1.901  -0.799  0.00  0.00    +0.210 C 
ATOM      6  C   LIG    1        9.936  -1.997   0.691  0.00  0.00    -0.020 C 
ENDROOT
BRANCH   1   7
ATOM      7  N   LIG    1        7.778  -1.013   1.310  0.00  0.00    -0.670 NA
ATOM      8  H   LIG    1        7.478  -0.834   0.363  0.00  0.00    +0.350 HD
BRANCH   7   9
ATOM      9  C   LIG    1        7.346  -2.344   1.756  0.00  0.00    +0.340 C 
BRANCH   9  10
ATOM     10  C   LIG    1        5.841  -2.416   1.742  0.00  0.00    +0.190 A 
ATOM     11  N   LIG    1        5.090  -2.800   0.741  0.00  0.00    -0.470 NA
ATOM     12  C   LIG    1        3.816  -2.698   1.183  0.00  0.00    +0.210 A 
ATOM     13  N   LIG    1        3.869  -2.270   2.418  0.00  0.00    -0.370 NA
ATOM     14  O   LIG    1        5.023  -2.104   2.752  0.00  0.00    +0.090 OA
BRANCH  12  15
ATOM     15  C   LIG    1        2.588  -3.018   0.413  0.00  0.00    -0.030 A 
ATOM     16  C   LIG    1        1.334  -2.870   1.003  0.00  0.00    +0.050 A 
ATOM     17  C   LIG    1        0.196  -3.168   0.283  0.00  0.00    +0.010 A 
ATOM     18  C   LIG    1        0.297  -3.614  -1.023  0.00  0.00    +0.030 A 
ATOM     19  C   LIG    1        1.539  -3.763  -1.613  0.00  0.00    +0.010 A 
ATOM     20  C   LIG    1        2.684  -3.467  -0.902  0.00  0.00    +0.050 A 
ENDBRANCH  12  15
ENDBRANCH   9  10
ENDBRANCH   7   9
ENDBRANCH   1   7
BRANCH   1  21
ATOM     21  C   LIG    1        9.623  -0.902   2.918  0.00  0.00    +0.100 C 
BRANCH  21  26
ATOM     22  F   LIG    1        6.704   2.991   5.737  0.00  0.00    -0.140 F 
ATOM     23  C   LIG    1        7.405   2.056   5.060  0.00  0.00    +0.090 A 
ATOM     24  C   LIG    1        6.896   0.776   4.919  0.00  0.00    -0.020 A 
ATOM     25  C   LIG    1        7.614  -0.180   4.225  0.00  0.00    +0.060 A 
ATOM     26  C   LIG    1        8.840   0.142   3.673  0.00  0.00    -0.070 A 
ATOM     27  C   LIG    1        9.352   1.418   3.818  0.00  0.00    +0.040 A 
ATOM     28  C   LIG    1        8.633   2.377   4.506  0.00  0.00    -0.020 A 
ENDBRANCH  21  26
ENDBRANCH   1  21
TORSDOF 6
