REMARK  Name = ZINCtj00001UqOs9.0
REMARK                            x       y       z     vdW  Elec       q    Type
REMARK                         _______ _______ _______ _____ _____    ______ ____
ROOT
ATOM      1  N   LIG    1        1.692   1.437  -1.760  0.00  0.00    -0.390 N 
ATOM      2  C   LIG    1        0.295   1.328  -1.321  0.00  0.00    +0.280 C 
ATOM      3  C   LIG    1        0.015  -0.102  -0.852  0.00  0.00    +0.080 C 
ATOM      4  C   LIG    1        0.947  -0.443   0.314  0.00  0.00    +0.190 C 
ATOM      5  C   LIG    1        2.400  -0.253  -0.134  0.00  0.00    +0.070 C 
ATOM      6  C   LIG    1        2.591   1.182  -0.629  0.00  0.00    +0.260 C 
ATOM      7  H   LIG    1        1.868   0.761  -2.488  0.00  0.00    +0.430 HD
ENDROOT
BRANCH   4   8
ATOM      8  C   LIG    1        0.731  -1.875   0.730  0.00  0.00    +0.250 A 
ATOM      9  N   LIG    1        1.662  -2.763   0.966  0.00  0.00    -0.310 NA
ATOM     10  N   LIG    1        1.140  -3.887   1.302  0.00  0.00    -0.020 NA
ATOM     11  N   LIG    1       -0.146  -3.800   1.298  0.00  0.00    -0.050 NA
ATOM     12  N   LIG    1       -0.460  -2.481   0.924  0.00  0.00    -0.310 N 
BRANCH  12  13
ATOM     13  C   LIG    1       -1.737  -1.917   0.781  0.00  0.00    +0.110 A 
ATOM     14  C   LIG    1       -2.022  -0.690   1.365  0.00  0.00    +0.090 A 
ATOM     15  C   LIG    1       -3.279  -0.133   1.226  0.00  0.00    +0.060 A 
ATOM     16  C   LIG    1       -4.257  -0.796   0.504  0.00  0.00    +0.060 A 
ATOM     17  O   LIG    1       -5.553  -0.468   0.223  0.00  0.00    -0.300 OA
ATOM     18  C   LIG    1       -6.179  -1.696  -0.192  0.00  0.00    +0.450 C 
ATOM     19  O   LIG    1       -5.091  -2.470  -0.730  0.00  0.00    -0.300 OA
ATOM     20  C   LIG    1       -3.974  -2.028  -0.083  0.00  0.00    +0.050 A 
ATOM     21  C   LIG    1       -2.713  -2.582   0.052  0.00  0.00    +0.070 A 
ENDBRANCH  12  13
ENDBRANCH   4   8
BRANCH   1  23
ATOM     22  C   LIG    1        3.418   2.944  -2.624  0.00  0.00    +0.080 C 
ATOM     23  C   LIG    1        1.935   2.789  -2.282  0.00  0.00    +0.250 C 
ENDBRANCH   1  23
BRANCH   4  24
ATOM     24  N   LIG    1        0.663   0.448   1.448  0.00  0.00    -0.670 NA
ATOM     25  H   LIG    1        0.810   1.414   1.194  0.00  0.00    +0.350 HD
BRANCH  24  26
ATOM     26  C   LIG    1        1.468   0.082   2.620  0.00  0.00    +0.200 C 
BRANCH  26  27
ATOM     27  C   LIG    1        1.053   0.945   3.813  0.00  0.00    -0.020 C 
ATOM     28  C   LIG    1        1.908   0.606   5.065  0.00  0.00    +0.020 C 
ATOM     29  C   LIG    1        1.871   1.962   5.819  0.00  0.00    +0.210 C 
ATOM     30  O   LIG    1        1.904   2.967   4.794  0.00  0.00    -0.380 OA
ATOM     31  C   LIG    1        1.400   2.429   3.565  0.00  0.00    +0.190 C 
ENDBRANCH  26  27
ENDBRANCH  24  26
ENDBRANCH   4  24
TORSDOF 6
