REMARK  Name = ZINCtj00001UqOs9.1
REMARK                            x       y       z     vdW  Elec       q    Type
REMARK                         _______ _______ _______ _____ _____    ______ ____
ROOT
ATOM      1  N   LIG    1       -2.751   4.141  -0.602  0.00  0.00    -0.530 NA
ATOM      2  C   LIG    1       -2.241   2.980   0.138  0.00  0.00    +0.190 C 
ATOM      3  C   LIG    1       -1.009   2.420  -0.577  0.00  0.00    +0.100 C 
ATOM      4  C   LIG    1       -1.392   2.014  -2.003  0.00  0.00    +0.150 C 
ATOM      5  C   LIG    1       -1.965   3.230  -2.735  0.00  0.00    +0.120 C 
ATOM      6  C   LIG    1       -3.170   3.766  -1.959  0.00  0.00    +0.190 C 
ENDROOT
BRANCH   4   7
ATOM      7  C   LIG    1       -0.169   1.518  -2.731  0.00  0.00    +0.210 A 
ATOM      8  N   LIG    1        0.671   2.245  -3.420  0.00  0.00    -0.270 NA
ATOM      9  N   LIG    1        1.607   1.514  -3.910  0.00  0.00    -0.010 NA
ATOM     10  N   LIG    1        1.427   0.281  -3.580  0.00  0.00    -0.020 NA
ATOM     11  N   LIG    1        0.260   0.239  -2.797  0.00  0.00    -0.330 N 
BRANCH  11  12
ATOM     12  C   LIG    1       -0.333  -0.890  -2.210  0.00  0.00    +0.100 A 
ATOM     13  C   LIG    1       -0.703  -0.863  -0.873  0.00  0.00    -0.010 A 
ATOM     14  C   LIG    1       -1.291  -1.971  -0.295  0.00  0.00    +0.100 A 
ATOM     15  C   LIG    1       -1.503  -3.117  -1.045  0.00  0.00    +0.070 A 
ATOM     16  O   LIG    1       -2.050  -4.324  -0.717  0.00  0.00    -0.280 OA
ATOM     17  C   LIG    1       -1.633  -5.230  -1.755  0.00  0.00    +0.470 C 
ATOM     18  O   LIG    1       -1.439  -4.375  -2.898  0.00  0.00    -0.280 OA
ATOM     19  C   LIG    1       -1.127  -3.148  -2.386  0.00  0.00    +0.090 A 
ATOM     20  C   LIG    1       -0.543  -2.035  -2.966  0.00  0.00    +0.090 A 
ENDBRANCH  11  12
ENDBRANCH   4   7
BRANCH   4  21
ATOM     21  N   LIG    1       -2.402   0.949  -1.955  0.00  0.00    -0.530 N 
ATOM     22  H   LIG    1       -3.165   1.235  -1.361  0.00  0.00    +0.430 HD
ATOM     23  H   LIG    1       -1.986   0.107  -1.586  0.00  0.00    +0.410 HD
BRANCH  21  24
ATOM     24  C   LIG    1       -2.906   0.691  -3.311  0.00  0.00    +0.250 C 
BRANCH  24  25
ATOM     25  C   LIG    1       -4.071  -0.299  -3.243  0.00  0.00    -0.030 C 
ATOM     26  C   LIG    1       -4.591  -0.622  -4.661  0.00  0.00    +0.050 C 
ATOM     27  C   LIG    1       -4.363  -2.143  -4.807  0.00  0.00    +0.220 C 
ATOM     28  O   LIG    1       -4.336  -2.643  -3.452  0.00  0.00    -0.340 OA
ATOM     29  C   LIG    1       -3.591  -1.661  -2.695  0.00  0.00    +0.170 C 
ENDBRANCH  24  25
ENDBRANCH  21  24
ENDBRANCH   4  21
BRANCH   1  31
ATOM     30  C   LIG    1       -3.315   5.385   1.431  0.00  0.00    +0.040 C 
ATOM     31  C   LIG    1       -3.850   4.788   0.128  0.00  0.00    +0.180 C 
ENDBRANCH   1  31
TORSDOF 6
