REMARK  Name = ZINCqH0000007ju2.0
REMARK                            x       y       z     vdW  Elec       q    Type
REMARK                         _______ _______ _______ _____ _____    ______ ____
ROOT
ATOM      1  N   LIG    1       -0.077   5.528   0.031  0.00  0.00    -0.670 N 
ATOM      2  H   LIG    1        0.752   6.026   0.102  0.00  0.00    +0.410 HD
ATOM      3  C   LIG    1       -1.252   6.184  -0.057  0.00  0.00    +0.560 C 
ATOM      4  O   LIG    1       -2.297   5.562  -0.050  0.00  0.00    -0.510 OA
ENDROOT
BRANCH   1   8
ATOM      5  C   LIG    1       -0.013   1.357  -0.012  0.00  0.00    +0.090 A 
ATOM      6  C   LIG    1       -0.966   2.043  -0.747  0.00  0.00    -0.010 A 
ATOM      7  C   LIG    1       -0.990   3.425  -0.728  0.00  0.00    +0.030 A 
ATOM      8  C   LIG    1       -0.054   4.128   0.018  0.00  0.00    +0.150 A 
ATOM      9  C   LIG    1        0.905   3.443   0.751  0.00  0.00    -0.060 A 
ATOM     10  C   LIG    1        0.927   2.058   0.737  0.00  0.00    +0.120 A 
BRANCH   5  12
ATOM     11  C   LIG    1       -0.987  -0.658  -0.818  0.00  0.00    +0.250 C 
ATOM     12  O   LIG    1        0.007  -0.004  -0.027  0.00  0.00    -0.310 OA
ENDBRANCH   5  12
BRANCH  10  13
ATOM     13  O   LIG    1        1.866   1.385   1.455  0.00  0.00    -0.300 OA
ATOM     14  C   LIG    1        2.799   2.170   2.200  0.00  0.00    +0.240 C 
ENDBRANCH  10  13
ENDBRANCH   1   8
BRANCH   3  15
ATOM     15  C   LIG    1       -1.269   7.656  -0.161  0.00  0.00    -0.140 A 
ATOM     16  C   LIG    1       -0.069   8.372  -0.163  0.00  0.00    +0.080 A 
ATOM     17  C   LIG    1       -0.089   9.745  -0.267  0.00  0.00    +0.000 A 
ATOM     18  C   LIG    1       -1.302  10.420  -0.357  0.00  0.00    +0.190 A 
ATOM     19  C   LIG    1       -2.498   9.711  -0.349  0.00  0.00    +0.020 A 
ATOM     20  C   LIG    1       -2.485   8.338  -0.252  0.00  0.00    +0.120 A 
BRANCH  18  21
ATOM     21  N   LIG    1       -1.318  11.815  -0.456  0.00  0.00    -0.340 N 
ATOM     22  N   LIG    1       -2.228  12.579  -1.198  0.00  0.00    -0.290 NA
ATOM     23  C   LIG    1       -1.926  13.842  -1.042  0.00  0.00    +0.090 A 
ATOM     24  C   LIG    1       -0.808  13.928  -0.203  0.00  0.00    -0.100 A 
ATOM     25  C   LIG    1       -2.652  15.007  -1.664  0.00  0.00    +0.160 C 
ATOM     26  C   LIG    1       -0.451  12.670   0.145  0.00  0.00    +0.090 A 
ATOM     27  C   LIG    1        0.701  12.288   1.038  0.00  0.00    +0.160 C 
ENDBRANCH  18  21
ENDBRANCH   3  15
TORSDOF 5
