REMARK  Name = ZINCpk000000pN9q.0
REMARK                            x       y       z     vdW  Elec       q    Type
REMARK                         _______ _______ _______ _____ _____    ______ ____
ROOT
ATOM      1  N   LIG    1       -2.061   0.763   3.768  0.00  0.00    -0.720 N 
ATOM      2  H   LIG    1       -2.292   0.165   3.040  0.00  0.00    +0.400 HD
ATOM      3  C   LIG    1       -2.925   0.952   4.785  0.00  0.00    +0.500 C 
ATOM      4  O   LIG    1       -2.635   1.699   5.695  0.00  0.00    -0.520 OA
ENDROOT
BRANCH   1   5
ATOM      5  C   LIG    1       -0.772   1.460   3.762  0.00  0.00    +0.270 C 
BRANCH   5   6
ATOM      6  C   LIG    1        0.011   1.072   2.506  0.00  0.00    +0.030 C 
BRANCH   6   7
ATOM      7  C   LIG    1        1.384   1.692   2.560  0.00  0.00    -0.080 A 
ATOM      8  C   LIG    1        1.520   3.066   2.623  0.00  0.00    +0.010 A 
ATOM      9  C   LIG    1        2.780   3.634   2.676  0.00  0.00    +0.000 A 
ATOM     10  C   LIG    1        3.902   2.828   2.658  0.00  0.00    +0.000 A 
ATOM     11  C   LIG    1        3.766   1.454   2.590  0.00  0.00    +0.000 A 
ATOM     12  C   LIG    1        2.507   0.886   2.541  0.00  0.00    +0.010 A 
ENDBRANCH   6   7
BRANCH   6  14
ATOM     13  C   LIG    1       -0.013   1.086   0.008  0.00  0.00    +0.020 C 
ATOM     14  C   LIG    1       -0.729   1.579   1.267  0.00  0.00    +0.020 C 
ENDBRANCH   6  14
ENDBRANCH   5   6
ENDBRANCH   1   5
BRANCH   3  15
ATOM     15  C   LIG    1       -4.250   0.235   4.791  0.00  0.00    +0.340 C 
BRANCH  15  16
ATOM     16  N   LIG    1       -5.001   0.606   5.993  0.00  0.00    -0.530 N 
ATOM     17  C   LIG    1       -5.835   1.675   5.966  0.00  0.00    +0.630 A 
ATOM     18  N   LIG    1       -6.531   2.058   6.996  0.00  0.00    -0.530 NA
ATOM     19  C   LIG    1       -6.471   1.415   8.172  0.00  0.00    +0.330 A 
ATOM     20  C   LIG    1       -5.633   0.295   8.297  0.00  0.00    -0.340 A 
ATOM     21  C   LIG    1       -5.761  -0.178   9.616  0.00  0.00    +0.330 A 
ATOM     22  N   LIG    1       -6.608   0.589  10.246  0.00  0.00    -0.270 NA
ATOM     23  N   LIG    1       -7.068   1.589   9.379  0.00  0.00    -0.350 N 
ATOM     24  C   LIG    1       -8.029   2.642   9.717  0.00  0.00    +0.360 C 
ATOM     25  C   LIG    1       -4.863  -0.123   7.126  0.00  0.00    +0.580 A 
ATOM     26  O   LIG    1       -4.122  -1.090   7.169  0.00  0.00    -0.510 OA
ENDBRANCH  15  16
ENDBRANCH   3  15
TORSDOF 6
