REMARK  Name = ZINCqH0000007MK5.0
REMARK                            x       y       z     vdW  Elec       q    Type
REMARK                         _______ _______ _______ _____ _____    ______ ____
ROOT
ATOM      1  N   LIG    1       -0.017   1.382   0.010  0.00  0.00    -0.620 N 
ATOM      2  H   LIG    1       -0.863   1.855   0.016  0.00  0.00    +0.430 HD
ATOM      3  C   LIG    1        1.141   2.072   0.002  0.00  0.00    +0.520 C 
ATOM      4  O   LIG    1        2.200   1.480  -0.011  0.00  0.00    -0.490 OA
ENDROOT
BRANCH   1   8
ATOM      5  C   LIG    1       -1.839  -3.115   0.004  0.00  0.00    +0.180 A 
ATOM      6  C   LIG    1       -0.864  -2.090   0.000  0.00  0.00    +0.080 A 
ATOM      7  N   LIG    1       -1.044  -0.753   0.013  0.00  0.00    -0.480 NA
ATOM      8  C   LIG    1        0.002  -0.004   0.002  0.00  0.00    +0.300 A 
ATOM      9  S   LIG    1        1.459  -0.988  -0.017  0.00  0.00    +0.190 S 
ATOM     10  C   LIG    1        0.484  -2.456  -0.014  0.00  0.00    -0.180 A 
ATOM     11  C   LIG    1        0.850  -3.801  -0.024  0.00  0.00    +0.020 A 
ATOM     12  C   LIG    1       -0.115  -4.783  -0.020  0.00  0.00    +0.080 A 
ATOM     13  C   LIG    1       -1.458  -4.437  -0.006  0.00  0.00    -0.070 A 
BRANCH   5  15
ATOM     14  C   LIG    1       -4.092  -3.875   0.022  0.00  0.00    +0.240 C 
ATOM     15  O   LIG    1       -3.160  -2.792   0.018  0.00  0.00    -0.300 OA
ENDBRANCH   5  15
ENDBRANCH   1   8
BRANCH   3  16
ATOM     16  C   LIG    1        1.121   3.579   0.011  0.00  0.00    +0.270 C 
BRANCH  16  17
ATOM     17  N   LIG    1        2.495   4.086   0.000  0.00  0.00    -0.710 N 
ATOM     18  H   LIG    1        3.217   3.537   0.345  0.00  0.00    +0.410 HD
ATOM     19  C   LIG    1        2.757   5.314  -0.489  0.00  0.00    +0.600 C 
ATOM     20  O   LIG    1        1.851   6.002  -0.922  0.00  0.00    -0.520 OA
BRANCH  19  21
ATOM     21  C   LIG    1        4.132   5.821  -0.499  0.00  0.00    -0.280 A 
ATOM     22  C   LIG    1        4.522   7.045  -0.967  0.00  0.00    +0.110 A 
ATOM     23  C   LIG    1        5.875   7.263  -0.856  0.00  0.00    +0.000 A 
ATOM     24  C   LIG    1        6.570   6.255  -0.317  0.00  0.00    -0.050 A 
ATOM     25  S   LIG    1        5.543   4.956   0.095  0.00  0.00    +0.210 S 
ENDBRANCH  19  21
ENDBRANCH  16  17
BRANCH  16  26
ATOM     26  C   LIG    1        0.405   4.072   1.269  0.00  0.00    -0.020 C 
ATOM     27  C   LIG    1        0.274   5.595   1.218  0.00  0.00    +0.050 C 
ATOM     28  C   LIG    1        1.212   3.671   2.506  0.00  0.00    +0.030 C 
ENDBRANCH  16  26
ENDBRANCH   3  16
TORSDOF 6
