REMARK  Name = ZINCrH00000tj0QJ.1
REMARK                            x       y       z     vdW  Elec       q    Type
REMARK                         _______ _______ _______ _____ _____    ______ ____
ROOT
ATOM      1  C   LIG    1       -1.812   0.500  -1.481  0.00  0.00    +0.520 C 
ATOM      2  N   LIG    1       -2.793   0.809  -2.352  0.00  0.00    -0.610 N 
ATOM      3  C   LIG    1       -2.813   2.112  -3.035  0.00  0.00    +0.280 C 
ATOM      4  C   LIG    1       -2.969   1.864  -4.543  0.00  0.00    +0.170 C 
ATOM      5  N   LIG    1       -4.151   1.023  -4.777  0.00  0.00    -0.530 NA
ATOM      6  C   LIG    1       -3.992  -0.301  -4.161  0.00  0.00    +0.170 C 
ATOM      7  C   LIG    1       -3.875  -0.144  -2.641  0.00  0.00    +0.300 C 
ATOM      8  O   LIG    1       -1.762  -0.610  -0.995  0.00  0.00    -0.530 OA
ENDROOT
BRANCH   1  10
ATOM      9  C   LIG    1       -1.375   2.510  -0.097  0.00  0.00    +0.060 C 
ATOM     10  C   LIG    1       -0.779   1.532  -1.112  0.00  0.00    +0.140 C 
BRANCH  10  11
ATOM     11  N   LIG    1        0.390   0.866  -0.521  0.00  0.00    -0.660 NA
ATOM     12  H   LIG    1        0.516  -0.056  -0.912  0.00  0.00    +0.350 HD
BRANCH  11  13
ATOM     13  C   LIG    1        1.601   1.680  -0.689  0.00  0.00    +0.220 C 
ATOM     14  C   LIG    1        2.217   1.401  -2.061  0.00  0.00    +0.010 C 
BRANCH  13  15
ATOM     15  C   LIG    1        2.594   1.331   0.389  0.00  0.00    -0.060 A 
ATOM     16  C   LIG    1        2.549   0.089   0.994  0.00  0.00    +0.060 A 
ATOM     17  C   LIG    1        3.464  -0.233   1.979  0.00  0.00    +0.010 A 
ATOM     18  C   LIG    1        4.417   0.690   2.367  0.00  0.00    +0.020 A 
ATOM     19  C   LIG    1        4.460   1.934   1.766  0.00  0.00    +0.020 A 
ATOM     20  C   LIG    1        3.549   2.255   0.776  0.00  0.00    -0.030 A 
ATOM     21 CL   LIG    1        3.601   3.817   0.021  0.00  0.00    -0.070 Cl
ENDBRANCH  13  15
ENDBRANCH  11  13
ENDBRANCH  10  11
ENDBRANCH   1  10
BRANCH   5  22
ATOM     22  C   LIG    1       -4.438   0.906  -6.212  0.00  0.00    +0.220 C 
BRANCH  22  23
ATOM     23  C   LIG    1       -4.835   2.254  -6.757  0.00  0.00    -0.080 A 
ATOM     24  C   LIG    1       -6.164   2.633  -6.763  0.00  0.00    +0.020 A 
ATOM     25  C   LIG    1       -6.527   3.871  -7.259  0.00  0.00    +0.000 A 
ATOM     26  C   LIG    1       -5.562   4.726  -7.757  0.00  0.00    +0.000 A 
ATOM     27  C   LIG    1       -4.233   4.345  -7.756  0.00  0.00    +0.000 A 
ATOM     28  C   LIG    1       -3.869   3.108  -7.256  0.00  0.00    +0.000 A 
ENDBRANCH  22  23
ENDBRANCH   5  22
TORSDOF 6
