REMARK  Name = ZINCfA000000bmOO.0
REMARK                            x       y       z     vdW  Elec       q    Type
REMARK                         _______ _______ _______ _____ _____    ______ ____
ROOT
ATOM      1  N   LIG    1       -1.626  -1.170  -1.374  0.00  0.00    -0.510 N 
ATOM      2  H   LIG    1       -0.875  -1.636  -1.859  0.00  0.00    +0.430 HD
ATOM      3  H   LIG    1       -1.843  -0.303  -1.843  0.00  0.00    +0.430 HD
ENDROOT
BRANCH   1   7
ATOM      4  C   LIG    1       -4.854  -3.598  -4.233  0.00  0.00    +0.080 C 
ATOM      5  C   LIG    1       -4.457  -3.256  -2.795  0.00  0.00    +0.160 C 
ATOM      6  C   LIG    1       -3.172  -2.424  -2.805  0.00  0.00    +0.020 C 
ATOM      7  C   LIG    1       -2.815  -2.033  -1.368  0.00  0.00    +0.160 C 
ATOM      8  C   LIG    1       -3.994  -1.277  -0.747  0.00  0.00    +0.020 C 
ATOM      9  C   LIG    1       -5.246  -2.154  -0.817  0.00  0.00    +0.250 C 
ATOM     10  O   LIG    1       -5.505  -2.506  -2.177  0.00  0.00    -0.370 OA
ENDBRANCH   1   7
BRANCH   1  11
ATOM     11  C   LIG    1       -1.217  -0.889   0.009  0.00  0.00    +0.370 C 
BRANCH  11  12
ATOM     12  C   LIG    1        0.002  -0.004   0.002  0.00  0.00    -0.290 A 
ATOM     13  C   LIG    1       -0.016   1.330   0.009  0.00  0.00    +0.110 A 
ATOM     14  C   LIG    1        1.232   1.930   0.001  0.00  0.00    -0.140 A 
ATOM     15  C   LIG    1        2.263   1.083  -0.014  0.00  0.00    +0.060 A 
ATOM     16  I   LIG    1        1.481   4.010   0.009  0.00  0.00    +0.020 I 
ATOM     17  S   LIG    1        1.667  -0.572  -0.017  0.00  0.00    +0.190 S 
ENDBRANCH  11  12
ENDBRANCH   1  11
TORSDOF 3
