REMARK  Name = ZINCrD000000Amet.0
REMARK                            x       y       z     vdW  Elec       q    Type
REMARK                         _______ _______ _______ _____ _____    ______ ____
ROOT
ATOM      1  N   LIG    1       -0.075  -0.264  -2.661  0.00  0.00    -0.520 NA
ATOM      2  C   LIG    1       -0.163  -1.398  -3.592  0.00  0.00    +0.210 C 
ATOM      3  C   LIG    1       -0.253  -0.872  -5.026  0.00  0.00    +0.220 C 
ATOM      4  N   LIG    1        0.927  -0.046  -5.317  0.00  0.00    -0.450 N 
ATOM      5  C   LIG    1        1.015   1.088  -4.387  0.00  0.00    +0.240 C 
ATOM      6  C   LIG    1        1.105   0.562  -2.952  0.00  0.00    +0.200 C 
ENDROOT
BRANCH   4   7
ATOM      7  C   LIG    1        0.916   0.389  -6.627  0.00  0.00    +0.300 A 
ATOM      8  N   LIG    1        0.969   1.623  -6.993  0.00  0.00    -0.510 NA
ATOM      9  C   LIG    1        0.952   1.890  -8.314  0.00  0.00    +0.100 A 
ATOM     10  C   LIG    1        1.003   3.142  -8.963  0.00  0.00    +0.060 A 
ATOM     11  C   LIG    1        0.969   3.217 -10.332  0.00  0.00    +0.040 A 
ATOM     12  C   LIG    1        0.885   2.066 -11.101  0.00  0.00    +0.030 A 
ATOM     13  C   LIG    1        0.835   0.833 -10.489  0.00  0.00    +0.060 A 
ATOM     14  C   LIG    1        0.868   0.738  -9.101  0.00  0.00    -0.180 A 
ATOM     15  S   LIG    1        0.820  -0.663  -8.032  0.00  0.00    +0.070 S 
ENDBRANCH   4   7
BRANCH   1  16
ATOM     16  C   LIG    1       -0.063  -0.727  -1.267  0.00  0.00    +0.220 C 
BRANCH  16  18
ATOM     17  O   LIG    1       -2.263  -1.414  -1.778  0.00  0.00    -0.500 OA
ATOM     18  C   LIG    1       -1.392  -1.356  -0.935  0.00  0.00    +0.520 C 
ATOM     19  N   LIG    1       -1.612  -1.855   0.297  0.00  0.00    -0.680 N 
ATOM     20  H   LIG    1       -0.892  -1.877   0.947  0.00  0.00    +0.410 HD
BRANCH  19  21
ATOM     21  C   LIG    1       -2.881  -2.342   0.639  0.00  0.00    +0.060 A 
ATOM     22  C   LIG    1       -3.846  -1.479   1.145  0.00  0.00    +0.140 A 
ATOM     23  C   LIG    1       -5.099  -1.963   1.476  0.00  0.00    -0.010 A 
ATOM     24  C   LIG    1       -5.388  -3.305   1.316  0.00  0.00    +0.100 A 
ATOM     25  C   LIG    1       -4.429  -4.168   0.819  0.00  0.00    -0.010 A 
ATOM     26  F   LIG    1       -3.562  -0.168   1.307  0.00  0.00    -0.120 F 
ATOM     27  C   LIG    1       -3.176  -3.691   0.480  0.00  0.00    +0.140 A 
ATOM     28  F   LIG    1       -2.239  -4.535  -0.006  0.00  0.00    -0.120 F 
ENDBRANCH  19  21
ENDBRANCH  16  18
ENDBRANCH   1  16
TORSDOF 4
