REMARK  Name = ZINCrH000004sllj.0
REMARK                            x       y       z     vdW  Elec       q    Type
REMARK                         _______ _______ _______ _____ _____    ______ ____
ROOT
ATOM      1  C   LIG    1        2.107   5.309   0.593  0.00  0.00    +0.540 C 
ATOM      2  N   LIG    1        2.743   6.009   1.554  0.00  0.00    -0.610 N 
ATOM      3  C   LIG    1        3.449   5.432   2.712  0.00  0.00    +0.260 C 
ATOM      4  C   LIG    1        4.480   6.511   3.126  0.00  0.00    +0.040 C 
ATOM      5  C   LIG    1        3.683   7.817   2.871  0.00  0.00    +0.060 C 
ATOM      6  C   LIG    1        2.852   7.474   1.617  0.00  0.00    +0.310 C 
ATOM      7  O   LIG    1        1.558   5.892  -0.318  0.00  0.00    -0.530 OA
ENDROOT
BRANCH   6   8
ATOM      8  C   LIG    1        1.479   8.085   1.732  0.00  0.00    +0.280 A 
ATOM      9  N   LIG    1        0.540   7.663   2.528  0.00  0.00    -0.480 NA
ATOM     10  C   LIG    1       -0.566   8.438   2.380  0.00  0.00    +0.050 A 
ATOM     11  C   LIG    1       -1.831   8.434   2.971  0.00  0.00    +0.070 A 
ATOM     12  C   LIG    1       -2.757   9.369   2.603  0.00  0.00    +0.000 A 
ATOM     13  C   LIG    1       -2.455  10.327   1.646  0.00  0.00    +0.030 A 
ATOM     14  C   LIG    1       -1.212  10.351   1.050  0.00  0.00    +0.010 A 
ATOM     15  C   LIG    1       -0.259   9.408   1.410  0.00  0.00    +0.050 A 
ATOM     16  N   LIG    1        1.044   9.162   1.024  0.00  0.00    -0.480 N 
ATOM     17  C   LIG    1        1.813   9.918   0.033  0.00  0.00    +0.340 C 
ENDBRANCH   6   8
BRANCH   1  18
ATOM     18  C   LIG    1        2.080   3.804   0.650  0.00  0.00    +0.060 C 
BRANCH  18  19
ATOM     19  C   LIG    1        1.300   3.262  -0.550  0.00  0.00    +0.090 C 
ATOM     20  C   LIG    1        2.074   3.558  -1.836  0.00  0.00    +0.020 C 
BRANCH  19  28
ATOM     21  C   LIG    1        3.612   1.095  -0.605  0.00  0.00    +0.150 C 
ATOM     22  C   LIG    1        2.142   0.816  -0.426  0.00  0.00    +0.090 A 
ATOM     23  N   LIG    1        1.599  -0.364  -0.267  0.00  0.00    -0.290 NA
ATOM     24  N   LIG    1        0.215  -0.195  -0.137  0.00  0.00    -0.480 N 
ATOM     25  H   LIG    1       -0.437  -0.901  -0.007  0.00  0.00    +0.440 HD
ATOM     26  C   LIG    1       -0.052   1.125  -0.223  0.00  0.00    +0.090 A 
ATOM     27  C   LIG    1       -1.415   1.763  -0.141  0.00  0.00    +0.140 C 
ATOM     28  C   LIG    1        1.122   1.773  -0.402  0.00  0.00    -0.230 A 
ENDBRANCH  19  28
ENDBRANCH  18  19
ENDBRANCH   1  18
TORSDOF 4
