REMARK  Name = ZINCpk00000xIblr.0
REMARK                            x       y       z     vdW  Elec       q    Type
REMARK                         _______ _______ _______ _____ _____    ______ ____
ROOT
ATOM      1  N   LIG    1        3.139   3.682   1.204  0.00  0.00    -0.650 N 
ATOM      2  H   LIG    1        3.812   3.299   0.619  0.00  0.00    +0.430 HD
ENDROOT
BRANCH   1  11
ATOM      3  C   LIG    1        1.371  -1.617   3.695  0.00  0.00    +0.340 C 
ATOM      4  N   LIG    1        2.098  -0.706   2.807  0.00  0.00    -0.560 N 
ATOM      5  C   LIG    1        1.831   0.616   2.856  0.00  0.00    +0.590 C 
ATOM      6  C   LIG    1        2.575   1.511   1.953  0.00  0.00    -0.440 C 
ATOM      7  C   LIG    1        3.564   0.888   1.055  0.00  0.00    +0.580 C 
ATOM      8  N   LIG    1        3.726  -0.450   1.115  0.00  0.00    -0.560 N 
ATOM      9  C   LIG    1        4.703  -1.093   0.234  0.00  0.00    +0.330 C 
ATOM     10  O   LIG    1        4.217   1.562   0.281  0.00  0.00    -0.520 OA
ATOM     11  C   LIG    1        2.355   2.876   1.947  0.00  0.00    +0.510 C 
ATOM     12  O   LIG    1        0.995   1.056   3.623  0.00  0.00    -0.520 OA
ATOM     13  C   LIG    1        3.013  -1.205   1.963  0.00  0.00    +0.710 C 
ATOM     14  O   LIG    1        3.206  -2.405   1.968  0.00  0.00    -0.540 OA
ENDBRANCH   1  11
BRANCH   1  15
ATOM     15  C   LIG    1        2.976   5.136   1.280  0.00  0.00    +0.280 C 
BRANCH  15  16
ATOM     16  C   LIG    1        3.981   5.812   0.345  0.00  0.00    +0.220 C 
BRANCH  16  17
ATOM     17  C   LIG    1        3.897   7.307   0.513  0.00  0.00    -0.110 A 
ATOM     18  C   LIG    1        3.466   7.844   1.712  0.00  0.00    +0.030 A 
ATOM     19  C   LIG    1        3.390   9.216   1.866  0.00  0.00    +0.020 A 
ATOM     20  C   LIG    1        3.743  10.051   0.823  0.00  0.00    +0.040 A 
ATOM     21  C   LIG    1        4.174   9.514  -0.376  0.00  0.00    +0.030 A 
ATOM     22  C   LIG    1        4.257   8.142  -0.529  0.00  0.00    -0.030 A 
ATOM     23 CL   LIG    1        4.805   7.468  -2.032  0.00  0.00    -0.060 Cl
ENDBRANCH  16  17
BRANCH  16  24
ATOM     24  N   LIG    1        5.338   5.357   0.674  0.00  0.00    -0.520 NA
ATOM     25  C   LIG    1        5.731   5.802   2.018  0.00  0.00    +0.180 C 
ATOM     26  C   LIG    1        6.305   5.811  -0.335  0.00  0.00    +0.200 C 
ENDBRANCH  16  24
ENDBRANCH  15  16
ENDBRANCH   1  15
TORSDOF 5
