REMARK  Name = ZINCrD000000Ag8O.0
REMARK                            x       y       z     vdW  Elec       q    Type
REMARK                         _______ _______ _______ _____ _____    ______ ____
ROOT
ATOM      1  O   LIG    1       -4.018   4.009  -4.180  0.00  0.00    -0.520 OA
ATOM      2  C   LIG    1       -3.556   5.075  -4.527  0.00  0.00    +0.530 C 
ATOM      3  N   LIG    1       -3.936   5.625  -5.697  0.00  0.00    -0.620 N 
ATOM      4  C   LIG    1       -3.456   6.910  -6.238  0.00  0.00    +0.260 C 
ATOM      5  C   LIG    1       -3.664   6.797  -7.769  0.00  0.00    +0.040 C 
ATOM      6  C   LIG    1       -4.997   6.008  -7.846  0.00  0.00    +0.060 C 
ATOM      7  C   LIG    1       -4.894   5.041  -6.647  0.00  0.00    +0.320 C 
ENDROOT
BRANCH   7   8
ATOM      8  C   LIG    1       -6.243   4.896  -5.991  0.00  0.00    +0.090 A 
ATOM      9  N   LIG    1       -6.976   3.851  -6.077  0.00  0.00    -0.450 NA
ATOM     10  C   LIG    1       -8.162   3.861  -5.438  0.00  0.00    +0.080 A 
ATOM     11  C   LIG    1       -9.153   2.861  -5.365  0.00  0.00    +0.080 A 
ATOM     12  C   LIG    1      -10.296   3.074  -4.656  0.00  0.00    +0.030 A 
ATOM     13  C   LIG    1      -10.507   4.275  -3.994  0.00  0.00    +0.040 A 
ATOM     14  C   LIG    1       -9.556   5.269  -4.047  0.00  0.00    +0.060 A 
ATOM     15  C   LIG    1       -8.381   5.069  -4.767  0.00  0.00    -0.180 A 
ATOM     16  S   LIG    1       -6.981   6.102  -5.035  0.00  0.00    +0.110 S 
ENDBRANCH   7   8
BRANCH   2  17
ATOM     17  C   LIG    1       -2.556   5.785  -3.650  0.00  0.00    +0.080 C 
BRANCH  17  18
ATOM     18  C   LIG    1       -2.300   4.952  -2.392  0.00  0.00    +0.300 C 
BRANCH  18  19
ATOM     19  N   LIG    1       -1.328   5.642  -1.540  0.00  0.00    -1.120 NA
ATOM     20  H   LIG    1       -0.798   6.370  -1.900  0.00  0.00    +0.420 HD
BRANCH  19  21
ATOM     21  S   LIG    1       -1.135   5.179   0.038  0.00  0.00    +2.720 S 
ATOM     22  O   LIG    1       -0.112   6.005   0.577  0.00  0.00    -0.950 OA
ATOM     23  O   LIG    1       -2.440   5.095   0.595  0.00  0.00    -0.950 OA
BRANCH  21  24
ATOM     24  C   LIG    1       -0.494   3.538   0.025  0.00  0.00    -0.800 A 
ATOM     25  C   LIG    1        0.801   3.218   0.011  0.00  0.00    +0.170 A 
ATOM     26  C   LIG    1        1.067   1.859   0.002  0.00  0.00    -0.020 A 
ATOM     27  C   LIG    1       -0.013   1.076   0.008  0.00  0.00    +0.010 A 
ATOM     28  S   LIG    1       -1.463   2.070   0.019  0.00  0.00    +0.220 S 
ENDBRANCH  21  24
ENDBRANCH  19  21
ENDBRANCH  18  19
ENDBRANCH  17  18
ENDBRANCH   2  17
TORSDOF 6
