REMARK  Name = ZINCbw0000000Hkc.0
REMARK                            x       y       z     vdW  Elec       q    Type
REMARK                         _______ _______ _______ _____ _____    ______ ____
ROOT
ATOM      1  C   LIG    1       -2.423   6.945   0.061  0.00  0.00    +0.140 C 
ATOM      2  C   LIG    1       -1.702   5.621   0.047  0.00  0.00    +0.090 A 
ATOM      3  C   LIG    1       -2.299   4.419   0.046  0.00  0.00    -0.060 A 
ATOM      4  C   LIG    1       -1.235   3.412   0.031  0.00  0.00    -0.080 A 
ATOM      5  C   LIG    1       -1.221   2.016   0.019  0.00  0.00    +0.030 A 
ATOM      6  C   LIG    1       -0.016   1.347   0.009  0.00  0.00    +0.070 A 
ATOM      7  C   LIG    1        1.180   2.055   0.002  0.00  0.00    +0.010 A 
ATOM      8  C   LIG    1        1.181   3.432   0.009  0.00  0.00    +0.030 A 
ATOM      9  F   LIG    1        0.002  -0.004   0.002  0.00  0.00    -0.140 F 
ATOM     10  C   LIG    1       -0.024   4.127   0.024  0.00  0.00    +0.080 A 
ATOM     11  N   LIG    1       -0.343   5.468   0.033  0.00  0.00    -0.590 N 
ATOM     12  H   LIG    1        0.300   6.194   0.031  0.00  0.00    +0.420 HD
ENDROOT
TORSDOF 0
