REMARK  Name = ZINCkj00000y7wnl.0
REMARK                            x       y       z     vdW  Elec       q    Type
REMARK                         _______ _______ _______ _____ _____    ______ ____
ROOT
ATOM      1  N   LIG    1        1.329   1.776  -0.280  0.00  0.00    -0.480 NA
ATOM      2  C   LIG    1        0.002   1.126  -0.207  0.00  0.00    +0.200 C 
ATOM      3  C   LIG    1        0.242  -0.395  -0.240  0.00  0.00    +0.190 C 
ATOM      4  C   LIG    1        1.778  -0.560  -0.304  0.00  0.00    +0.030 C 
ATOM      5  F   LIG    1       -0.354  -0.956  -1.375  0.00  0.00    -0.190 F 
ATOM      6  C   LIG    1        2.295   0.787   0.262  0.00  0.00    +0.120 C 
ENDROOT
BRANCH   1   7
ATOM      7  C   LIG    1        1.350   3.018   0.506  0.00  0.00    +0.370 C 
BRANCH   7  11
ATOM      8  C   LIG    1        2.157   1.857   5.309  0.00  0.00    +0.250 C 
ATOM      9  C   LIG    1        1.512   2.202   3.992  0.00  0.00    +0.190 A 
ATOM     10  N   LIG    1        2.128   2.425   2.856  0.00  0.00    -0.500 NA
ATOM     11  C   LIG    1        1.157   2.692   1.964  0.00  0.00    +0.120 A 
ATOM     12  N   LIG    1        0.022   2.624   2.593  0.00  0.00    -0.360 NA
ATOM     13  O   LIG    1        0.204   2.338   3.758  0.00  0.00    +0.090 OA
ENDBRANCH   7  11
ENDBRANCH   1   7
BRANCH   6  14
ATOM     14  C   LIG    1        3.708   1.079  -0.245  0.00  0.00    +0.300 C 
BRANCH  14  15
ATOM     15  N   LIG    1        4.634   0.062   0.273  0.00  0.00    -0.500 N 
ATOM     16  H   LIG    1        4.311  -0.855   0.005  0.00  0.00    +0.430 HD
ATOM     17  H   LIG    1        4.673   0.125   1.279  0.00  0.00    +0.430 HD
BRANCH  15  18
ATOM     18  C   LIG    1        5.974   0.291  -0.284  0.00  0.00    +0.190 C 
ATOM     19  C   LIG    1        6.911  -0.836   0.154  0.00  0.00    +0.060 C 
ATOM     20  C   LIG    1        8.371  -0.371   0.279  0.00  0.00    +0.150 C 
ATOM     21  S   LIG    1        8.329   1.426  -0.086  0.00  0.00    -0.200 S 
ATOM     22  C   LIG    1        6.531   1.642   0.238  0.00  0.00    +0.130 C 
ENDBRANCH  15  18
ENDBRANCH  14  15
ENDBRANCH   6  14
TORSDOF 5
