REMARK  Name = ZINCvU0000000DqL.0
REMARK                            x       y       z     vdW  Elec       q    Type
REMARK                         _______ _______ _______ _____ _____    ______ ____
ROOT
ATOM      1  C   LIG    1        2.609   5.290  -0.550  0.00  0.00    -0.280 A 
ATOM      2  C   LIG    1        3.962   5.523  -0.409  0.00  0.00    +0.300 A 
ATOM      3  N   LIG    1        4.462   4.571   0.399  0.00  0.00    -0.300 N 
ATOM      4  N   LIG    1        3.437   3.709   0.799  0.00  0.00    -0.270 NA
ATOM      5  C   LIG    1        2.307   4.104   0.257  0.00  0.00    +0.190 A 
ENDROOT
BRANCH   3   6
ATOM      6  C   LIG    1        5.805   4.460   0.781  0.00  0.00    +0.140 A 
ATOM      7  C   LIG    1        6.739   5.376   0.313  0.00  0.00    -0.010 A 
ATOM      8  C   LIG    1        8.061   5.268   0.697  0.00  0.00    +0.050 A 
ATOM      9  C   LIG    1        8.458   4.242   1.536  0.00  0.00    +0.010 A 
ATOM     10  C   LIG    1        7.531   3.325   1.998  0.00  0.00    +0.050 A 
ATOM     11  C   LIG    1        6.206   3.432   1.623  0.00  0.00    +0.030 A 
ENDBRANCH   3   6
BRANCH   5  12
ATOM     12  C   LIG    1        0.979   3.466   0.423  0.00  0.00    -0.060 A 
ATOM     13  C   LIG    1        0.879   2.081   0.543  0.00  0.00    +0.090 A 
ATOM     14  C   LIG    1       -0.357   1.491   0.697  0.00  0.00    -0.010 A 
ATOM     15  C   LIG    1       -1.503   2.275   0.729  0.00  0.00    +0.120 A 
ATOM     16  C   LIG    1       -1.407   3.655   0.616  0.00  0.00    -0.060 A 
ATOM     17  C   LIG    1       -0.173   4.251   0.461  0.00  0.00    +0.140 A 
BRANCH  15  18
ATOM     18  O   LIG    1       -2.721   1.690   0.876  0.00  0.00    -0.320 OA
BRANCH  18  19
ATOM     19  C   LIG    1       -3.857   2.556   0.901  0.00  0.00    +0.590 C 
ATOM     20  F   LIG    1       -3.926   3.270  -0.300  0.00  0.00    -0.200 F 
ATOM     21  F   LIG    1       -3.739   3.451   1.970  0.00  0.00    -0.200 F 
ENDBRANCH  18  19
ENDBRANCH  15  18
ENDBRANCH   5  12
BRANCH   1  23
ATOM     22  O   LIG    1        0.484   5.763  -1.385  0.00  0.00    -0.510 OA
ATOM     23  C   LIG    1        1.658   6.080  -1.350  0.00  0.00    +0.600 C 
ATOM     24  N   LIG    1        2.087   7.152  -2.044  0.00  0.00    -0.670 N 
ATOM     25  H   LIG    1        3.006   7.450  -1.956  0.00  0.00    +0.410 HD
BRANCH  24  26
ATOM     26  C   LIG    1        1.207   7.836  -2.890  0.00  0.00    +0.140 A 
ATOM     27  C   LIG    1        0.213   7.142  -3.568  0.00  0.00    +0.060 A 
ATOM     28  C   LIG    1       -0.657   7.820  -4.399  0.00  0.00    +0.010 A 
ATOM     29  C   LIG    1       -0.532   9.189  -4.565  0.00  0.00    +0.080 A 
ATOM     30  C   LIG    1        0.462   9.882  -3.895  0.00  0.00    +0.010 A 
ATOM     31  F   LIG    1       -1.381   9.849  -5.383  0.00  0.00    -0.140 F 
ATOM     32  C   LIG    1        1.331   9.209  -3.059  0.00  0.00    +0.020 A 
ENDBRANCH  24  26
ENDBRANCH   1  23
TORSDOF 6
