REMARK  Name = ZINCpk00000e9UPf.0
REMARK                            x       y       z     vdW  Elec       q    Type
REMARK                         _______ _______ _______ _____ _____    ______ ____
ROOT
ATOM      1  C   LIG    1       -2.960   2.153  -4.961  0.00  0.00    +0.510 C 
ATOM      2  O   LIG    1       -3.362   1.009  -4.900  0.00  0.00    -0.500 OA
ENDROOT
BRANCH   1   7
ATOM      3  C   LIG    1       -1.781   2.711  -1.440  0.00  0.00    -0.690 A 
ATOM      4  C   LIG    1       -1.329   4.017  -1.512  0.00  0.00    +0.160 A 
ATOM      5  C   LIG    1       -1.397   4.715  -2.704  0.00  0.00    +0.000 A 
ATOM      6  C   LIG    1       -1.928   4.117  -3.828  0.00  0.00    +0.150 A 
ATOM      7  C   LIG    1       -2.391   2.801  -3.761  0.00  0.00    -0.150 A 
ATOM      8  C   LIG    1       -2.314   2.100  -2.557  0.00  0.00    +0.210 A 
BRANCH   3   9
ATOM      9  S   LIG    1       -1.682   1.829   0.082  0.00  0.00    +2.700 S 
ATOM     10  O   LIG    1       -1.637   2.807   1.111  0.00  0.00    -0.950 OA
ATOM     11  O   LIG    1       -2.671   0.810   0.020  0.00  0.00    -0.950 OA
BRANCH   9  13
ATOM     12  C   LIG    1        1.022   1.838   0.131  0.00  0.00    +0.300 C 
ATOM     13  N   LIG    1       -0.217   1.057   0.107  0.00  0.00    -1.120 NA
ATOM     14  H   LIG    1       -0.179   0.088   0.101  0.00  0.00    +0.420 HD
ENDBRANCH   9  13
ENDBRANCH   3   9
ENDBRANCH   1   7
BRANCH   1  15
ATOM     15  O   LIG    1       -3.034   2.832  -6.122  0.00  0.00    -0.330 OA
BRANCH  15  16
ATOM     16  C   LIG    1       -3.604   2.133  -7.260  0.00  0.00    +0.270 C 
BRANCH  16  17
ATOM     17  C   LIG    1       -3.604   3.043  -8.461  0.00  0.00    +0.520 C 
ATOM     18  N   LIG    1       -4.091   2.605  -9.639  0.00  0.00    -0.570 N 
ATOM     19  C   LIG    1       -4.513   1.210  -9.783  0.00  0.00    +0.300 C 
ATOM     20  O   LIG    1       -3.166   4.170  -8.367  0.00  0.00    -0.500 OA
BRANCH  18  21
ATOM     21  C   LIG    1       -4.193   3.483 -10.723  0.00  0.00    +0.130 A 
ATOM     22  C   LIG    1       -5.442   3.847 -11.209  0.00  0.00    +0.010 A 
ATOM     23  C   LIG    1       -5.540   4.717 -12.277  0.00  0.00    +0.020 A 
ATOM     24  C   LIG    1       -4.395   5.217 -12.870  0.00  0.00    +0.010 A 
ATOM     25  C   LIG    1       -3.150   4.853 -12.392  0.00  0.00    +0.020 A 
ATOM     26  C   LIG    1       -3.045   3.987 -11.321  0.00  0.00    +0.020 A 
ENDBRANCH  18  21
ENDBRANCH  16  17
ENDBRANCH  15  16
ENDBRANCH   1  15
TORSDOF 7
