REMARK  Name = ZINCqH0000000ocY.0
REMARK                            x       y       z     vdW  Elec       q    Type
REMARK                         _______ _______ _______ _____ _____    ______ ____
ROOT
ATOM      1  C   LIG    1       -1.285   5.912   0.116  0.00  0.00    +0.270 A 
ATOM      2  N   LIG    1       -1.424   7.180  -0.111  0.00  0.00    -0.470 NA
ATOM      3  C   LIG    1       -2.657   7.649  -0.149  0.00  0.00    +0.070 A 
ATOM      4  C   LIG    1       -3.605   6.733   0.056  0.00  0.00    -0.040 A 
ATOM      5  S   LIG    1       -2.817   5.177   0.304  0.00  0.00    +0.160 S 
ENDROOT
BRANCH   1   8
ATOM      6  C   LIG    1        2.388   5.153  -0.099  0.00  0.00    +0.110 C 
ATOM      7  C   LIG    1        1.079   5.899  -0.085  0.00  0.00    +0.510 C 
ATOM      8  N   LIG    1       -0.066   5.244   0.191  0.00  0.00    -0.480 N 
ATOM      9  O   LIG    1        1.055   7.088  -0.322  0.00  0.00    -0.470 OA
BRANCH   8  10
ATOM     10  C   LIG    1       -0.030   3.891   0.554  0.00  0.00    +0.100 A 
ATOM     11  C   LIG    1       -0.071   2.908  -0.425  0.00  0.00    +0.030 A 
ATOM     12  C   LIG    1       -0.035   1.575  -0.065  0.00  0.00    +0.030 A 
ATOM     13  C   LIG    1        0.041   1.220   1.269  0.00  0.00    +0.030 A 
ATOM     14  C   LIG    1        0.076   2.197   2.247  0.00  0.00    +0.030 A 
ATOM     15  C   LIG    1        0.047   3.532   1.893  0.00  0.00    +0.030 A 
ENDBRANCH   8  10
ENDBRANCH   1   8
BRANCH   3  16
ATOM     16  C   LIG    1       -2.968   9.101  -0.403  0.00  0.00    +0.320 C 
BRANCH  16  17
ATOM     17  O   LIG    1       -4.384   9.295  -0.383  0.00  0.00    -0.260 OA
BRANCH  17  18
ATOM     18  C   LIG    1       -4.837  10.559  -0.597  0.00  0.00    +0.180 A 
ATOM     19  C   LIG    1       -3.942  11.600  -0.823  0.00  0.00    +0.000 A 
ATOM     20  C   LIG    1       -4.451  12.871  -1.037  0.00  0.00    +0.110 A 
ATOM     21  C   LIG    1       -5.820  13.061  -1.018  0.00  0.00    +0.270 A 
ATOM     22  N   LIG    1       -6.641  12.053  -0.801  0.00  0.00    -0.380 NA
ATOM     23  C   LIG    1       -6.198  10.828  -0.599  0.00  0.00    +0.110 A 
BRANCH  23  24
ATOM     24  N   LIG    1       -7.080   9.822  -0.385  0.00  0.00    +0.070 N 
ATOM     25  O   LIG    1       -8.276  10.051  -0.385  0.00  0.00    -0.160 OA
ATOM     26  O   LIG    1       -6.677   8.689  -0.193  0.00  0.00    -0.160 OA
ENDBRANCH  23  24
ENDBRANCH  17  18
ENDBRANCH  16  17
ENDBRANCH   3  16
TORSDOF 6
