REMARK  Name = ZINCrH00000No4EX.0
REMARK                            x       y       z     vdW  Elec       q    Type
REMARK                         _______ _______ _______ _____ _____    ______ ____
ROOT
ATOM      1  N   LIG    1        4.451   3.803   2.158  0.00  0.00    -0.980 NA
ENDROOT
BRANCH   1   2
ATOM      2  S   LIG    1        3.704   4.253   3.566  0.00  0.00    +2.670 S 
ATOM      3  O   LIG    1        2.777   5.272   3.220  0.00  0.00    -0.960 OA
ATOM      4  O   LIG    1        4.735   4.433   4.527  0.00  0.00    -0.960 OA
BRANCH   2   6
ATOM      5  C   LIG    1        2.973   2.351   5.292  0.00  0.00    +0.220 C 
ATOM      6  C   LIG    1        2.749   2.876   4.112  0.00  0.00    -0.590 C 
ENDBRANCH   2   6
ENDBRANCH   1   2
BRANCH   1   7
ATOM      7  C   LIG    1        5.708   3.052   2.203  0.00  0.00    +0.320 C 
BRANCH   7   8
ATOM      8  C   LIG    1        6.886   4.022   2.090  0.00  0.00    -0.050 C 
ATOM      9  C   LIG    1        7.789   3.897   0.861  0.00  0.00    +0.030 C 
ATOM     10  C   LIG    1        8.295   3.443   2.233  0.00  0.00    -0.020 C 
BRANCH  10  11
ATOM     11  C   LIG    1        9.350   4.312   2.921  0.00  0.00    +0.100 C 
BRANCH  11  12
ATOM     12  C   LIG    1       10.626   3.525   3.074  0.00  0.00    -0.080 A 
ATOM     13  C   LIG    1       10.843   2.775   4.215  0.00  0.00    +0.000 A 
ATOM     14  C   LIG    1       12.011   2.049   4.353  0.00  0.00    +0.000 A 
ATOM     15  C   LIG    1       12.968   2.083   3.356  0.00  0.00    -0.010 A 
ATOM     16  C   LIG    1       12.754   2.838   2.217  0.00  0.00    +0.000 A 
ATOM     17  C   LIG    1       11.582   3.559   2.077  0.00  0.00    +0.010 A 
ENDBRANCH  11  12
ENDBRANCH  10  11
ENDBRANCH   7   8
ENDBRANCH   1   7
BRANCH   1  18
ATOM     18  C   LIG    1        3.855   4.156   0.867  0.00  0.00    +0.390 C 
BRANCH  18  19
ATOM     19  C   LIG    1        3.018   3.006   0.369  0.00  0.00    -0.260 A 
ATOM     20  C   LIG    1        1.703   2.810   0.622  0.00  0.00    +0.230 A 
ATOM     21  N   LIG    1        1.329   1.673  -0.002  0.00  0.00    -0.350 N 
ATOM     22  N   LIG    1        2.453   1.150  -0.654  0.00  0.00    -0.290 NA
ATOM     23  C   LIG    1        3.463   1.953  -0.436  0.00  0.00    +0.240 A 
BRANCH  21  24
ATOM     24  C   LIG    1       -0.013   1.086   0.008  0.00  0.00    +0.240 C 
ATOM     25  C   LIG    1       -0.939   1.683   1.080  0.00  0.00    +0.040 C 
ATOM     26  C   LIG    1       -1.349   2.730   0.028  0.00  0.00    +0.010 C 
ATOM     27  C   LIG    1       -0.959   1.695  -1.040  0.00  0.00    +0.030 C 
ENDBRANCH  21  24
ENDBRANCH  18  19
ENDBRANCH   1  18
TORSDOF 9
