REMARK  Name = ZINCvU00000008OJ.0
REMARK                            x       y       z     vdW  Elec       q    Type
REMARK                         _______ _______ _______ _____ _____    ______ ____
ROOT
ATOM      1  C   LIG    1       -2.365   7.692   0.069  0.00  0.00    +0.270 C 
ATOM      2  C   LIG    1       -3.906   7.718   0.078  0.00  0.00    +0.090 C 
ATOM      3  C   LIG    1       -4.295   6.257   0.075  0.00  0.00    +0.180 C 
ATOM      4  N   LIG    1       -3.230   5.528   0.061  0.00  0.00    -0.240 NA
ATOM      5  N   LIG    1       -2.042   6.257   0.053  0.00  0.00    -0.460 N 
ATOM      6  C   LIG    1       -0.801   5.732   0.039  0.00  0.00    +0.570 C 
ATOM      7  O   LIG    1        0.167   6.465   0.034  0.00  0.00    -0.490 OA
ENDROOT
BRANCH   1  11
ATOM      8  C   LIG    1       -0.804   9.540   3.596  0.00  0.00    +0.110 A 
ATOM      9  C   LIG    1       -1.348   8.268   3.660  0.00  0.00    -0.030 A 
ATOM     10  C   LIG    1       -1.857   7.675   2.519  0.00  0.00    +0.020 A 
ATOM     11  C   LIG    1       -1.815   8.345   1.311  0.00  0.00    -0.090 A 
ATOM     12  C   LIG    1       -1.273   9.616   1.240  0.00  0.00    -0.010 A 
ATOM     13  C   LIG    1       -0.767  10.217   2.380  0.00  0.00    +0.100 A 
BRANCH   8  15
ATOM     14  C   LIG    1       -0.380   9.373   5.930  0.00  0.00    +0.250 C 
ATOM     15  O   LIG    1       -0.308  10.127   4.718  0.00  0.00    -0.300 OA
ENDBRANCH   8  15
BRANCH  13  16
ATOM     16  O   LIG    1       -0.234  11.467   2.312  0.00  0.00    -0.300 OA
ATOM     17  C   LIG    1       -0.228  12.101   1.032  0.00  0.00    +0.240 C 
ENDBRANCH  13  16
ENDBRANCH   1  11
BRANCH   3  18
ATOM     18  C   LIG    1       -5.670   5.747   0.085  0.00  0.00    -0.160 A 
ATOM     19  C   LIG    1       -6.023   4.430   0.082  0.00  0.00    +0.070 A 
ATOM     20  C   LIG    1       -7.381   4.205   0.094  0.00  0.00    +0.010 A 
ATOM     21  C   LIG    1       -8.141   5.305   0.107  0.00  0.00    -0.030 A 
ATOM     22  S   LIG    1       -7.123   6.738   0.112  0.00  0.00    +0.160 S 
ENDBRANCH   3  18
BRANCH   6  23
ATOM     23  C   LIG    1       -0.615   4.237   0.030  0.00  0.00    +0.100 C 
BRANCH  23  24
ATOM     24  S   LIG    1        1.157   3.849   0.011  0.00  0.00    -0.010 S 
BRANCH  24  25
ATOM     25  C   LIG    1        1.177   2.087   0.002  0.00  0.00    -0.140 A 
ATOM     26  C   LIG    1       -0.017   1.377   0.010  0.00  0.00    +0.020 A 
ATOM     27  C   LIG    1        0.002  -0.004   0.002  0.00  0.00    +0.020 A 
ATOM     28  C   LIG    1        1.207  -0.681  -0.013  0.00  0.00    +0.040 A 
ATOM     29  C   LIG    1        2.399   0.021  -0.020  0.00  0.00    +0.010 A 
ATOM     30  C   LIG    1        2.389   1.403  -0.013  0.00  0.00    +0.120 A 
ATOM     31  F   LIG    1        3.553   2.088  -0.019  0.00  0.00    -0.130 F 
ENDBRANCH  24  25
ENDBRANCH  23  24
ENDBRANCH   6  23
TORSDOF 7
