REMARK  Name = ZINCpk00000KfKNz.0
REMARK                            x       y       z     vdW  Elec       q    Type
REMARK                         _______ _______ _______ _____ _____    ______ ____
ROOT
ATOM      1  C   LIG    1       -4.193   0.621  -0.025  0.00  0.00    -0.070 A 
ATOM      2  C   LIG    1       -2.830   0.913  -0.014  0.00  0.00    -0.080 A 
ATOM      3  C   LIG    1       -2.093   0.854  -1.325  0.00  0.00    +0.080 C 
ATOM      4  C   LIG    1       -0.762   1.598  -1.227  0.00  0.00    +0.030 C 
ATOM      5  C   LIG    1       -0.013   1.086   0.008  0.00  0.00    +0.030 C 
ATOM      6  C   LIG    1       -0.736   1.582   1.258  0.00  0.00    +0.110 C 
ATOM      7  C   LIG    1       -2.208   1.242   1.183  0.00  0.00    +0.170 A 
ATOM      8  N   LIG    1       -2.888   1.276   2.314  0.00  0.00    -0.470 NA
ATOM      9  C   LIG    1       -4.190   1.006   2.379  0.00  0.00    +0.140 A 
ATOM     10  C   LIG    1       -4.883   1.052   3.603  0.00  0.00    +0.050 A 
ATOM     11  C   LIG    1       -6.215   0.772   3.635  0.00  0.00    +0.040 A 
ATOM     12  C   LIG    1       -6.908   0.440   2.473  0.00  0.00    +0.030 A 
ATOM     13  C   LIG    1       -6.270   0.386   1.270  0.00  0.00    +0.020 A 
ATOM     14  C   LIG    1       -4.900   0.667   1.200  0.00  0.00    -0.080 A 
ENDROOT
BRANCH   1  20
ATOM     15  C   LIG    1       -7.507   1.592  -3.281  0.00  0.00    +0.150 C 
ATOM     16  C   LIG    1       -6.130   0.917  -3.299  0.00  0.00    +0.290 C 
ATOM     17  N   LIG    1       -5.438   1.240  -2.041  0.00  0.00    -0.610 N 
ATOM     18  C   LIG    1       -5.375   2.651  -1.630  0.00  0.00    +0.260 C 
ATOM     19  C   LIG    1       -6.784   3.242  -1.696  0.00  0.00    +0.230 C 
ATOM     20  C   LIG    1       -4.884   0.272  -1.286  0.00  0.00    +0.580 C 
ATOM     21  O   LIG    1       -4.951  -0.889  -1.641  0.00  0.00    -0.520 OA
ATOM     22  O   LIG    1       -7.346   2.981  -2.984  0.00  0.00    -0.350 OA
BRANCH  15  26
ATOM     23  N   LIG    1       -8.500   0.213  -5.079  0.00  0.00    -0.850 N 
ATOM     24  H   LIG    1       -8.921   0.115  -5.947  0.00  0.00    +0.410 HD
ATOM     25  H   LIG    1       -8.323  -0.569  -4.534  0.00  0.00    +0.400 HD
ATOM     26  C   LIG    1       -8.161   1.438  -4.630  0.00  0.00    +0.530 C 
ATOM     27  O   LIG    1       -8.381   2.417  -5.312  0.00  0.00    -0.510 OA
ENDBRANCH  15  26
ENDBRANCH   1  20
TORSDOF 2
