REMARK  Name = ZINCrH000004loO9.0
REMARK                            x       y       z     vdW  Elec       q    Type
REMARK                         _______ _______ _______ _____ _____    ______ ____
ROOT
ATOM      1  C   LIG    1        5.978   3.382  -0.140  0.00  0.00    +0.570 C 
ATOM      2  N   LIG    1        5.421   2.158  -0.039  0.00  0.00    -0.670 N 
ATOM      3  H   LIG    1        5.986   1.372   0.019  0.00  0.00    +0.410 HD
ATOM      4  O   LIG    1        5.273   4.373  -0.128  0.00  0.00    -0.490 OA
ENDROOT
BRANCH   2   5
ATOM      5  C   LIG    1        4.028   2.022  -0.018  0.00  0.00    +0.150 A 
ATOM      6  C   LIG    1        3.246   2.990   0.609  0.00  0.00    +0.070 A 
ATOM      7  C   LIG    1        1.873   2.867   0.636  0.00  0.00    +0.070 A 
ATOM      8  C   LIG    1        1.263   1.775   0.038  0.00  0.00    -0.010 A 
ATOM      9  O   LIG    1       -0.022   1.380  -0.102  0.00  0.00    -0.210 OA
ATOM     10  C   LIG    1       -0.033   0.224  -0.783  0.00  0.00    +0.260 A 
ATOM     11  N   LIG    1        1.179  -0.135  -1.082  0.00  0.00    -0.480 NA
ATOM     12  C   LIG    1        2.045   0.796  -0.596  0.00  0.00    +0.040 A 
ATOM     13  C   LIG    1        3.433   0.928  -0.620  0.00  0.00    +0.050 A 
BRANCH  10  14
ATOM     14  C   LIG    1       -1.274  -0.549  -1.148  0.00  0.00    +0.030 C 
ATOM     15  C   LIG    1       -1.365  -0.677  -2.670  0.00  0.00    +0.070 C 
ATOM     16  C   LIG    1       -2.507   0.190  -0.624  0.00  0.00    +0.050 C 
ATOM     17  C   LIG    1       -1.210  -1.943  -0.521  0.00  0.00    +0.070 C 
ENDBRANCH  10  14
ENDBRANCH   2   5
BRANCH   1  23
ATOM     18  C   LIG    1        8.033   4.786  -0.377  0.00  0.00    +0.380 A 
ATOM     19  N   LIG    1        9.345   4.904  -0.483  0.00  0.00    -0.550 NA
ATOM     20  C   LIG    1       10.139   3.851  -0.500  0.00  0.00    +0.350 A 
ATOM     21  C   LIG    1        9.630   2.569  -0.399  0.00  0.00    -0.070 A 
ATOM     22  C   LIG    1        8.264   2.387  -0.280  0.00  0.00    +0.130 A 
ATOM     23  C   LIG    1        7.441   3.519  -0.265  0.00  0.00    -0.220 A 
BRANCH  18  24
ATOM     24  O   LIG    1        7.255   5.895  -0.369  0.00  0.00    -0.260 OA
BRANCH  24  25
ATOM     25  C   LIG    1        7.920   7.154  -0.487  0.00  0.00    +0.230 C 
BRANCH  25  26
ATOM     26  C   LIG    1        6.886   8.282  -0.460  0.00  0.00    +0.190 C 
BRANCH  26  28
ATOM     27  C   LIG    1        5.256   9.333   0.949  0.00  0.00    +0.200 C 
ATOM     28  O   LIG    1        6.246   8.310   0.817  0.00  0.00    -0.380 OA
ENDBRANCH  26  28
ENDBRANCH  25  26
ENDBRANCH  24  25
ENDBRANCH  18  24
ENDBRANCH   1  23
TORSDOF 7
