REMARK  Name = ZINCpk00000Kfcj8.0
REMARK                            x       y       z     vdW  Elec       q    Type
REMARK                         _______ _______ _______ _____ _____    ______ ____
ROOT
ATOM      1  O   LIG    1        2.294   5.109  -2.339  0.00  0.00    -0.510 OA
ATOM      2  C   LIG    1        2.290   5.894  -1.414  0.00  0.00    +0.510 C 
ATOM      3  N   LIG    1        2.267   7.220  -1.655  0.00  0.00    -0.610 N 
ATOM      4  C   LIG    1        2.256   8.182  -0.545  0.00  0.00    +0.270 C 
ATOM      5  C   LIG    1        3.411   9.174  -0.747  0.00  0.00    +0.040 C 
ATOM      6  C   LIG    1        3.291   9.812  -2.133  0.00  0.00    +0.030 C 
ATOM      7  C   LIG    1        3.395   8.727  -3.207  0.00  0.00    +0.220 C 
ATOM      8  C   LIG    1        2.245   7.730  -3.033  0.00  0.00    +0.290 C 
ENDROOT
BRANCH   7   9
ATOM      9  N   LIG    1        3.312   9.341  -4.534  0.00  0.00    -0.460 N 
ATOM     10  C   LIG    1        4.264   9.286  -5.516  0.00  0.00    +0.120 A 
ATOM     11  C   LIG    1        3.783   9.980  -6.565  0.00  0.00    +0.140 A 
ATOM     12  N   LIG    1        2.571  10.447  -6.232  0.00  0.00    -0.490 NA
ATOM     13  C   LIG    1        2.279  10.064  -5.020  0.00  0.00    +0.380 A 
ENDBRANCH   7   9
BRANCH   2  14
ATOM     14  C   LIG    1        2.312   5.386   0.005  0.00  0.00    +0.340 C 
BRANCH  14  15
ATOM     15  N   LIG    1        2.335   3.921  -0.001  0.00  0.00    -0.500 N 
ATOM     16  C   LIG    1        3.510   3.254  -0.015  0.00  0.00    +0.500 A 
ATOM     17  C   LIG    1        3.499   1.787  -0.021  0.00  0.00    +0.300 A 
ATOM     18  N   LIG    1        2.369   1.139  -0.013  0.00  0.00    -0.400 NA
ATOM     19  C   LIG    1        1.193   1.794   0.000  0.00  0.00    +0.020 A 
ATOM     20  C   LIG    1       -0.013   1.076   0.008  0.00  0.00    +0.120 A 
ATOM     21  C   LIG    1       -1.203   1.742   0.017  0.00  0.00    +0.000 A 
ATOM     22  C   LIG    1       -1.238   3.130   0.030  0.00  0.00    +0.090 A 
ATOM     23  C   LIG    1       -0.069   3.859   0.022  0.00  0.00    -0.030 A 
ATOM     24  O   LIG    1        4.564   3.862  -0.022  0.00  0.00    -0.510 OA
ATOM     25  C   LIG    1        1.157   3.201   0.008  0.00  0.00    +0.160 A 
ENDBRANCH  14  15
ENDBRANCH   2  14
TORSDOF 3
