REMARK  Name = ZINCrD00000hQ6zq.0
REMARK                            x       y       z     vdW  Elec       q    Type
REMARK                         _______ _______ _______ _____ _____    ______ ____
ROOT
ATOM      1  N   LIG    1       -1.393  -1.423   2.282  0.00  0.00    -0.660 N 
ATOM      2  C   LIG    1       -1.852  -1.733   3.638  0.00  0.00    +0.290 C 
ENDROOT
BRANCH   1   3
ATOM      3  C   LIG    1       -0.295  -2.085   1.753  0.00  0.00    +0.430 A 
ATOM      4  C   LIG    1       -0.468  -3.211   0.954  0.00  0.00    -0.120 A 
ATOM      5  C   LIG    1        0.666  -3.840   0.448  0.00  0.00    +0.360 A 
ATOM      6  N   LIG    1        1.866  -3.344   0.744  0.00  0.00    -0.500 NA
ATOM      7  C   LIG    1        1.988  -2.275   1.505  0.00  0.00    +0.520 A 
ATOM      8  N   LIG    1        0.939  -1.649   1.999  0.00  0.00    -0.530 NA
BRANCH   5   9
ATOM      9  N   LIG    1        0.548  -4.965  -0.353  0.00  0.00    -0.470 N 
ATOM     10  C   LIG    1       -0.187  -4.654  -1.598  0.00  0.00    +0.190 C 
ATOM     11  C   LIG    1       -1.002  -5.908  -1.966  0.00  0.00    +0.020 C 
ATOM     12  C   LIG    1       -0.708  -6.926  -0.840  0.00  0.00    +0.060 C 
ATOM     13  C   LIG    1       -0.240  -6.023   0.329  0.00  0.00    +0.140 C 
BRANCH  13  14
ATOM     14  C   LIG    1        0.642  -6.811   1.300  0.00  0.00    +0.180 C 
BRANCH  14  15
ATOM     15  O   LIG    1        1.644  -7.519   0.567  0.00  0.00    -0.550 OA
ATOM     16  H   LIG    1        2.241  -8.041   1.120  0.00  0.00    +0.380 HD
ENDBRANCH  14  15
ENDBRANCH  13  14
ENDBRANCH   5   9
ENDBRANCH   1   3
BRANCH   1  17
ATOM     17  C   LIG    1       -2.094  -0.414   1.484  0.00  0.00    +0.390 C 
BRANCH  17  19
ATOM     18  C   LIG    1       -0.554   1.588   1.147  0.00  0.00    +0.070 A 
ATOM     19  C   LIG    1       -1.537   0.950   1.798  0.00  0.00    -0.200 A 
ATOM     20  C   LIG    1       -1.960   1.847   2.880  0.00  0.00    -0.110 A 
ATOM     21  C   LIG    1       -2.917   1.771   3.890  0.00  0.00    +0.040 A 
ATOM     22  C   LIG    1       -3.067   2.824   4.767  0.00  0.00    +0.000 A 
ATOM     23  C   LIG    1       -2.270   3.953   4.646  0.00  0.00    +0.030 A 
ATOM     24  C   LIG    1       -1.320   4.040   3.651  0.00  0.00    +0.030 A 
ATOM     25  C   LIG    1       -1.153   2.991   2.757  0.00  0.00    +0.050 A 
ATOM     26  O   LIG    1       -0.329   2.788   1.709  0.00  0.00    -0.190 OA
BRANCH  18  28
ATOM     27  C   LIG    1       -0.461   1.558  -1.330  0.00  0.00    +0.040 C 
ATOM     28  C   LIG    1        0.188   1.040  -0.045  0.00  0.00    +0.120 C 
ENDBRANCH  18  28
ENDBRANCH  17  19
ENDBRANCH   1  17
TORSDOF 7
