REMARK  Name = ZINCvU00000009XS.0
REMARK                            x       y       z     vdW  Elec       q    Type
REMARK                         _______ _______ _______ _____ _____    ______ ____
ROOT
ATOM      1  N   LIG    1        2.376   3.921   0.213  0.00  0.00    -0.550 N 
ATOM      2  C   LIG    1        2.336   5.233  -0.094  0.00  0.00    +0.550 C 
ATOM      3  O   LIG    1        3.357   5.820  -0.383  0.00  0.00    -0.510 OA
ENDROOT
BRANCH   1   9
ATOM      4  C   LIG    1       -1.881   2.108  -1.447  0.00  0.00    +0.090 C 
ATOM      5  C   LIG    1       -0.893   2.330  -0.331  0.00  0.00    -0.070 A 
ATOM      6  C   LIG    1       -1.159   1.838   0.934  0.00  0.00    +0.020 A 
ATOM      7  C   LIG    1       -0.257   2.044   1.962  0.00  0.00    +0.030 A 
ATOM      8  C   LIG    1        0.916   2.732   1.726  0.00  0.00    +0.010 A 
ATOM      9  C   LIG    1        1.188   3.223   0.456  0.00  0.00    +0.130 A 
ATOM     10  C   LIG    1        0.279   3.019  -0.573  0.00  0.00    +0.000 A 
ENDBRANCH   1   9
BRANCH   2  11
ATOM     11  C   LIG    1        1.022   5.971  -0.079  0.00  0.00    +0.100 C 
BRANCH  11  12
ATOM     12  S   LIG    1        1.316   7.733  -0.369  0.00  0.00    +0.150 S 
BRANCH  12  13
ATOM     13  C   LIG    1       -0.339   8.334  -0.301  0.00  0.00    +0.120 A 
ATOM     14  N   LIG    1       -1.419   7.620  -0.092  0.00  0.00    -0.290 NA
ATOM     15  N   LIG    1       -2.449   8.390  -0.108  0.00  0.00    -0.270 NA
ATOM     16  C   LIG    1       -2.073   9.616  -0.327  0.00  0.00    +0.180 A 
ATOM     17  O   LIG    1       -0.730   9.614  -0.449  0.00  0.00    -0.200 OA
BRANCH  16  18
ATOM     18  C   LIG    1       -2.973  10.820  -0.420  0.00  0.00    +0.250 C 
BRANCH  18  19
ATOM     19  C   LIG    1       -3.140  11.430   0.948  0.00  0.00    -0.100 A 
ATOM     20  C   LIG    1       -4.174  11.016   1.767  0.00  0.00    +0.030 A 
ATOM     21  C   LIG    1       -4.324  11.571   3.024  0.00  0.00    +0.010 A 
ATOM     22  C   LIG    1       -3.447  12.549   3.457  0.00  0.00    +0.010 A 
ATOM     23  C   LIG    1       -2.417  12.967   2.635  0.00  0.00    +0.010 A 
ATOM     24  C   LIG    1       -2.264  12.407   1.380  0.00  0.00    +0.010 A 
ENDBRANCH  18  19
ENDBRANCH  16  18
ENDBRANCH  12  13
ENDBRANCH  11  12
ENDBRANCH   2  11
BRANCH   1  25
ATOM     25  C   LIG    1        3.664   3.227   0.294  0.00  0.00    +0.350 C 
BRANCH  25  26
ATOM     26  C   LIG    1        4.015   2.663  -1.058  0.00  0.00    -0.120 A 
ATOM     27  C   LIG    1        3.615   1.384  -1.399  0.00  0.00    +0.020 A 
ATOM     28  C   LIG    1        3.934   0.868  -2.641  0.00  0.00    +0.000 A 
ATOM     29  C   LIG    1        4.661   1.627  -3.539  0.00  0.00    +0.010 A 
ATOM     30  C   LIG    1        5.066   2.904  -3.196  0.00  0.00    +0.000 A 
ATOM     31  C   LIG    1        4.743   3.421  -1.956  0.00  0.00    +0.040 A 
ENDBRANCH  25  26
ENDBRANCH   1  25
TORSDOF 8
