REMARK  Name = ZINCrD00000762uc.0
REMARK                            x       y       z     vdW  Elec       q    Type
REMARK                         _______ _______ _______ _____ _____    ______ ____
ROOT
ATOM      1  C   LIG    1        7.035   4.220  -0.044  0.00  0.00    +0.060 A 
ATOM      2  C   LIG    1        6.965   5.610  -0.035  0.00  0.00    +0.000 A 
ATOM      3  C   LIG    1        5.760   6.251  -0.021  0.00  0.00    +0.060 A 
ATOM      4  C   LIG    1        4.580   5.501  -0.013  0.00  0.00    -0.200 A 
ATOM      5  C   LIG    1        4.649   4.085  -0.022  0.00  0.00    +0.190 A 
ATOM      6  N   LIG    1        3.507   3.384  -0.009  0.00  0.00    -0.540 NA
ATOM      7  C   LIG    1        2.342   4.003   0.001  0.00  0.00    +0.420 A 
ATOM      8  N   LIG    1        2.232   5.331   0.009  0.00  0.00    -0.590 NA
ATOM      9  C   LIG    1        3.301   6.112   0.003  0.00  0.00    +0.480 A 
ATOM     10  C   LIG    1        5.903   3.460  -0.037  0.00  0.00    +0.030 A 
ENDROOT
BRANCH   7  11
ATOM     11  C   LIG    1        1.103   3.188   0.009  0.00  0.00    -0.100 A 
ATOM     12  C   LIG    1        1.172   1.792   0.001  0.00  0.00    +0.120 A 
ATOM     13  C   LIG    1       -0.013   1.076   0.008  0.00  0.00    -0.040 A 
ATOM     14  C   LIG    1       -1.215   1.758   0.017  0.00  0.00    +0.280 A 
ATOM     15  N   LIG    1       -1.249   3.077   0.031  0.00  0.00    -0.490 NA
ATOM     16  C   LIG    1       -0.148   3.801   0.024  0.00  0.00    +0.320 A 
ENDBRANCH   7  11
BRANCH   9  17
ATOM     17  N   LIG    1        3.173   7.485   0.011  0.00  0.00    -0.700 N 
ATOM     18  H   LIG    1        3.965   8.045   0.006  0.00  0.00    +0.410 HD
BRANCH  17  19
ATOM     19  C   LIG    1        1.842   8.097   0.027  0.00  0.00    +0.300 C 
BRANCH  19  20
ATOM     20  C   LIG    1        1.982   9.620   0.033  0.00  0.00    -0.010 C 
ATOM     21  C   LIG    1        2.153  10.217   1.440  0.00  0.00    +0.050 C 
ATOM     22  C   LIG    1        1.222  11.355   0.983  0.00  0.00    +0.260 C 
ATOM     23  C   LIG    1        0.636  10.362  -0.035  0.00  0.00    +0.060 C 
BRANCH  22  24
ATOM     24  N   LIG    1        0.263  11.780   2.006  0.00  0.00    -0.280 N 
ATOM     25  C   LIG    1       -0.018  11.119   3.152  0.00  0.00    +0.140 A 
ATOM     26  C   LIG    1       -0.949  11.860   3.797  0.00  0.00    +0.140 A 
ATOM     27  N   LIG    1       -1.195  12.921   3.019  0.00  0.00    -0.270 NA
ATOM     28  N   LIG    1       -0.461  12.844   1.966  0.00  0.00    -0.090 NA
ENDBRANCH  22  24
ENDBRANCH  19  20
ENDBRANCH  17  19
ENDBRANCH   9  17
TORSDOF 5
