REMARK  Name = ZINCrD000000fH1E.0
REMARK                            x       y       z     vdW  Elec       q    Type
REMARK                         _______ _______ _______ _____ _____    ______ ____
ROOT
ATOM      1  C   LIG    1        0.148  -0.520   1.435  0.00  0.00    +0.260 C 
ENDROOT
BRANCH   1   4
ATOM      2  C   LIG    1       -3.477  -0.214   2.626  0.00  0.00    +0.090 C 
ATOM      3  C   LIG    1       -2.255  -0.592   1.828  0.00  0.00    +0.520 C 
ATOM      4  N   LIG    1       -1.039  -0.153   2.210  0.00  0.00    -0.720 N 
ATOM      5  H   LIG    1       -0.951   0.406   2.998  0.00  0.00    +0.410 HD
ATOM      6  O   LIG    1       -2.366  -1.291   0.844  0.00  0.00    -0.510 OA
ENDBRANCH   1   4
BRANCH   1   7
ATOM      7  C   LIG    1        0.292  -2.020   1.417  0.00  0.00    +0.490 C 
ATOM      8  N   LIG    1        1.484  -2.579   1.129  0.00  0.00    -0.630 N 
ATOM      9  H   LIG    1        2.250  -2.016   0.934  0.00  0.00    +0.420 HD
ATOM     10  O   LIG    1       -0.665  -2.724   1.660  0.00  0.00    -0.470 OA
BRANCH   8  11
ATOM     11  C   LIG    1        1.618  -3.971   1.112  0.00  0.00    +0.000 A 
ATOM     12  C   LIG    1        2.741  -4.654   0.838  0.00  0.00    +0.040 A 
ATOM     13  N   LIG    1        2.606  -5.965   0.891  0.00  0.00    -0.450 NA
ATOM     14  C   LIG    1        1.438  -6.425   1.183  0.00  0.00    +0.160 A 
ATOM     15  S   LIG    1        0.340  -5.139   1.439  0.00  0.00    +0.240 S 
BRANCH  12  16
ATOM     16  C   LIG    1        4.047  -3.981   0.502  0.00  0.00    +0.020 C 
ATOM     17  C   LIG    1        5.194  -4.867   0.013  0.00  0.00    +0.050 C 
ATOM     18  C   LIG    1        5.241  -4.258   1.417  0.00  0.00    +0.040 C 
ENDBRANCH  12  16
ENDBRANCH   8  11
ENDBRANCH   1   7
BRANCH   1  19
ATOM     19  C   LIG    1        0.002  -0.004   0.002  0.00  0.00    +0.120 C 
BRANCH  19  20
ATOM     20  C   LIG    1       -0.018   1.503   0.010  0.00  0.00    -0.160 A 
ATOM     21  C   LIG    1       -1.108   2.286   0.019  0.00  0.00    +0.240 A 
ATOM     22  N   LIG    1       -0.735   3.604   0.028  0.00  0.00    -0.590 N 
ATOM     23  H   LIG    1       -1.348   4.356   0.037  0.00  0.00    +0.420 HD
ATOM     24  C   LIG    1        0.638   3.702   0.015  0.00  0.00    +0.120 A 
ATOM     25  C   LIG    1        1.521   4.776   0.013  0.00  0.00    -0.040 A 
ATOM     26  C   LIG    1        2.881   4.545  -0.001  0.00  0.00    +0.120 A 
ATOM     27  C   LIG    1        3.378   3.247  -0.011  0.00  0.00    -0.030 A 
ATOM     28  C   LIG    1        2.527   2.179  -0.010  0.00  0.00    +0.090 A 
ATOM     29  F   LIG    1        3.737   5.590  -0.003  0.00  0.00    -0.140 F 
ATOM     30  C   LIG    1        1.148   2.390   0.004  0.00  0.00    -0.110 A 
ENDBRANCH  19  20
ENDBRANCH   1  19
TORSDOF 6
