REMARK  Name = ZINCpk00000KbxTn.0
REMARK                            x       y       z     vdW  Elec       q    Type
REMARK                         _______ _______ _______ _____ _____    ______ ____
ROOT
ATOM      1  N   LIG    1       -2.302   4.098  -5.399  0.00  0.00    -0.720 N 
ATOM      2  H   LIG    1       -1.964   3.189  -5.376  0.00  0.00    +0.400 HD
ATOM      3  C   LIG    1       -2.325   4.837  -4.273  0.00  0.00    +0.720 C 
ATOM      4  N   LIG    1       -1.879   4.314  -3.114  0.00  0.00    -0.650 N 
ATOM      5  H   LIG    1       -1.540   3.405  -3.091  0.00  0.00    +0.410 HD
ATOM      6  O   LIG    1       -2.749   5.977  -4.302  0.00  0.00    -0.580 OA
ENDROOT
BRANCH   4   7
ATOM      7  C   LIG    1       -1.903   5.088  -1.933  0.00  0.00    +0.010 A 
ATOM      8  C   LIG    1       -1.487   4.690  -0.707  0.00  0.00    +0.230 A 
ATOM      9  O   LIG    1       -0.964   3.493  -0.329  0.00  0.00    -0.290 OA
ATOM     10  C   LIG    1       -0.305   3.496   0.946  0.00  0.00    +0.240 C 
ATOM     11  C   LIG    1       -1.195   4.201   1.975  0.00  0.00    +0.020 C 
ATOM     12  C   LIG    1       -1.354   5.677   1.581  0.00  0.00    +0.320 C 
ATOM     13  N   LIG    1       -1.682   5.731   0.153  0.00  0.00    -0.400 N 
ATOM     14  N   LIG    1       -2.227   6.790  -0.571  0.00  0.00    -0.270 NA
ATOM     15  C   LIG    1       -2.362   6.410  -1.819  0.00  0.00    +0.290 A 
ENDBRANCH   4   7
BRANCH   1  16
ATOM     16  C   LIG    1       -2.787   4.667  -6.659  0.00  0.00    +0.270 C 
BRANCH  16  17
ATOM     17  C   LIG    1       -4.282   4.491  -6.747  0.00  0.00    +0.510 C 
ATOM     18  O   LIG    1       -4.823   3.591  -6.140  0.00  0.00    -0.530 OA
ATOM     19  N   LIG    1       -5.016   5.334  -7.500  0.00  0.00    -0.850 N 
ATOM     20  H   LIG    1       -5.984   5.270  -7.495  0.00  0.00    +0.400 HD
ATOM     21  H   LIG    1       -4.577   6.004  -8.046  0.00  0.00    +0.400 HD
ENDBRANCH  16  17
BRANCH  16  23
ATOM     22  C   LIG    1       -2.537   4.619  -9.144  0.00  0.00    +0.060 C 
ATOM     23  C   LIG    1       -2.120   3.949  -7.834  0.00  0.00    +0.040 C 
BRANCH  23  24
ATOM     24  C   LIG    1       -0.622   4.027  -7.684  0.00  0.00    -0.080 A 
ATOM     25  C   LIG    1       -0.000   5.258  -7.585  0.00  0.00    +0.010 A 
ATOM     26  C   LIG    1        1.373   5.329  -7.444  0.00  0.00    +0.000 A 
ATOM     27  C   LIG    1        2.125   4.170  -7.410  0.00  0.00    +0.000 A 
ATOM     28  C   LIG    1        1.504   2.939  -7.515  0.00  0.00    +0.000 A 
ATOM     29  C   LIG    1        0.131   2.868  -7.652  0.00  0.00    +0.000 A 
ENDBRANCH  23  24
ENDBRANCH  16  23
ENDBRANCH   1  16
TORSDOF 5
