REMARK  Name = ZINCqH0000008yCb.0
REMARK                            x       y       z     vdW  Elec       q    Type
REMARK                         _______ _______ _______ _____ _____    ______ ____
ROOT
ATOM      1  C   LIG    1       -3.334  -1.263   0.027  0.00  0.00    +0.150 A 
ATOM      2  N   LIG    1       -2.519  -0.237   0.029  0.00  0.00    -0.460 NA
ATOM      3  C   LIG    1       -1.273  -0.762   0.010  0.00  0.00    +0.220 A 
ATOM      4  N   LIG    1       -1.403  -2.063   0.004  0.00  0.00    -0.370 NA
ATOM      5  O   LIG    1       -2.578  -2.365   0.014  0.00  0.00    +0.110 OA
ENDROOT
BRANCH   3   6
ATOM      6  C   LIG    1        0.002  -0.004   0.002  0.00  0.00    -0.060 A 
ATOM      7  C   LIG    1       -0.017   1.394   0.010  0.00  0.00    +0.080 A 
ATOM      8  C   LIG    1        1.147   2.107   0.002  0.00  0.00    +0.000 A 
ATOM      9  C   LIG    1        2.373   1.447  -0.013  0.00  0.00    +0.110 A 
ATOM     10  N   LIG    1        3.679   1.881  -0.023  0.00  0.00    -0.590 N 
ATOM     11  H   LIG    1        3.957   2.810  -0.021  0.00  0.00    +0.420 HD
ATOM     12  C   LIG    1        4.527   0.807  -0.037  0.00  0.00    +0.220 A 
ATOM     13  C   LIG    1        3.821  -0.334  -0.036  0.00  0.00    -0.050 A 
ATOM     14  C   LIG    1        2.404   0.039  -0.021  0.00  0.00    -0.120 A 
ATOM     15  C   LIG    1        1.212  -0.684  -0.013  0.00  0.00    +0.110 A 
ENDBRANCH   3   6
BRANCH   1  17
ATOM     16  C   LIG    1       -5.348  -1.573   1.439  0.00  0.00    +0.100 C 
ATOM     17  C   LIG    1       -4.840  -1.210   0.042  0.00  0.00    +0.420 C 
BRANCH  17  18
ATOM     18  N   LIG    1       -5.372  -2.164  -0.934  0.00  0.00    -0.550 N 
ATOM     19  C   LIG    1       -5.172  -3.497  -0.936  0.00  0.00    +0.640 A 
ATOM     20  O   LIG    1       -5.814  -4.043  -1.981  0.00  0.00    -0.230 OA
ATOM     21  C   LIG    1       -6.444  -3.066  -2.677  0.00  0.00    +0.040 A 
ATOM     22  C   LIG    1       -7.233  -3.075  -3.817  0.00  0.00    +0.060 A 
ATOM     23  C   LIG    1       -7.751  -1.892  -4.306  0.00  0.00    +0.040 A 
ATOM     24  C   LIG    1       -7.487  -0.695  -3.663  0.00  0.00    +0.040 A 
ATOM     25  C   LIG    1       -6.701  -0.676  -2.526  0.00  0.00    +0.040 A 
ATOM     26  O   LIG    1       -4.513  -4.110  -0.118  0.00  0.00    -0.460 OA
ATOM     27  C   LIG    1       -6.182  -1.859  -2.027  0.00  0.00    +0.070 A 
ENDBRANCH  17  18
ENDBRANCH   1  17
TORSDOF 3
