REMARK  Name = ZINCrg000000q8rR.0
REMARK                            x       y       z     vdW  Elec       q    Type
REMARK                         _______ _______ _______ _____ _____    ______ ____
ROOT
ATOM      1  C   LIG    1        0.002  -0.004   0.002  0.00  0.00    +0.520 C 
ATOM      2  N   LIG    1       -1.156  -0.694   0.009  0.00  0.00    -0.610 N 
ATOM      3  C   LIG    1       -2.446   0.009   0.032  0.00  0.00    +0.280 C 
ATOM      4  C   LIG    1       -3.279  -0.517   1.199  0.00  0.00    +0.040 C 
ATOM      5  C   LIG    1       -3.394  -2.039   1.096  0.00  0.00    +0.080 C 
ATOM      6  C   LIG    1       -2.000  -2.665   1.175  0.00  0.00    +0.040 C 
ATOM      7  C   LIG    1       -1.152  -2.163   0.001  0.00  0.00    +0.290 C 
ATOM      8  O   LIG    1        1.060  -0.596  -0.011  0.00  0.00    -0.510 OA
ENDROOT
BRANCH   5   9
ATOM      9  C   LIG    1       -4.242  -2.557   2.229  0.00  0.00    +0.350 A 
ATOM     10  N   LIG    1       -3.853  -2.340   3.470  0.00  0.00    -0.530 NA
ATOM     11  C   LIG    1       -4.570  -2.778   4.496  0.00  0.00    +0.340 A 
ATOM     12  C   LIG    1       -5.740  -3.471   4.254  0.00  0.00    -0.130 A 
ATOM     13  C   LIG    1       -6.122  -3.683   2.928  0.00  0.00    +0.360 A 
ATOM     14  N   LIG    1       -5.353  -3.208   1.952  0.00  0.00    -0.530 NA
BRANCH  13  15
ATOM     15  N   LIG    1       -7.287  -4.372   2.633  0.00  0.00    -0.470 N 
ATOM     16  C   LIG    1       -8.179  -3.563   1.789  0.00  0.00    +0.200 C 
ATOM     17  C   LIG    1       -9.424  -4.382   1.439  0.00  0.00    +0.240 C 
ATOM     18  O   LIG    1      -10.061  -4.811   2.646  0.00  0.00    -0.380 OA
ATOM     19  C   LIG    1       -9.222  -5.602   3.491  0.00  0.00    +0.240 C 
ATOM     20  C   LIG    1       -7.975  -4.795   3.862  0.00  0.00    +0.170 C 
ENDBRANCH  13  15
ENDBRANCH   5   9
BRANCH   1  21
ATOM     21  C   LIG    1       -0.018   1.503   0.010  0.00  0.00    +0.210 C 
BRANCH  21  22
ATOM     22  O   LIG    1        1.322   1.997   0.000  0.00  0.00    -0.360 OA
BRANCH  22  23
ATOM     23  C   LIG    1        1.416   3.423   0.007  0.00  0.00    +0.170 C 
BRANCH  23  24
ATOM     24  C   LIG    1        2.889   3.838  -0.005  0.00  0.00    +0.040 C 
BRANCH  24  25
ATOM     25  C   LIG    1        2.989   5.365   0.002  0.00  0.00    +0.170 C 
BRANCH  25  27
ATOM     26  C   LIG    1        4.570   7.166  -0.003  0.00  0.00    +0.200 C 
ATOM     27  O   LIG    1        4.364   5.752  -0.009  0.00  0.00    -0.390 OA
ENDBRANCH  25  27
ENDBRANCH  24  25
ENDBRANCH  23  24
ENDBRANCH  22  23
ENDBRANCH  21  22
ENDBRANCH   1  21
TORSDOF 8
