REMARK  Name = ZINCrH000004tF6V.0
REMARK                            x       y       z     vdW  Elec       q    Type
REMARK                         _______ _______ _______ _____ _____    ______ ____
ROOT
ATOM      1  C   LIG    1        1.248   1.716  -0.001  0.00  0.00    +0.260 C 
ENDROOT
BRANCH   1   2
ATOM      2  N   LIG    1       -0.011   0.966   0.007  0.00  0.00    -0.730 N 
ATOM      3  H   LIG    1        0.002  -0.004   0.002  0.00  0.00    +0.400 HD
ATOM      4  C   LIG    1       -1.187   1.624   0.017  0.00  0.00    +0.520 C 
ATOM      5  O   LIG    1       -1.204   2.837   0.023  0.00  0.00    -0.540 OA
BRANCH   4   6
ATOM      6  C   LIG    1       -2.482   0.853   0.018  0.00  0.00    -0.070 C 
ATOM      7  C   LIG    1       -2.557  -0.021  -1.235  0.00  0.00    +0.040 C 
ATOM      8  C   LIG    1       -3.872  -0.804  -1.233  0.00  0.00    -0.010 C 
ATOM      9  C   LIG    1       -3.935  -1.692   0.011  0.00  0.00    +0.020 C 
ATOM     10  C   LIG    1       -3.860  -0.818   1.265  0.00  0.00    -0.010 C 
ATOM     11  C   LIG    1       -5.036   0.161   1.276  0.00  0.00    +0.010 C 
ATOM     12  C   LIG    1       -4.973   1.048   0.031  0.00  0.00    -0.020 C 
ATOM     13  C   LIG    1       -5.048   0.174  -1.222  0.00  0.00    +0.010 C 
ATOM     14  C   LIG    1       -2.545  -0.035   1.263  0.00  0.00    +0.040 C 
ATOM     15  C   LIG    1       -3.658   1.831   0.029  0.00  0.00    +0.050 C 
ENDBRANCH   4   6
ENDBRANCH   1   2
BRANCH   1  16
ATOM     16  C   LIG    1        2.424   0.737  -0.017  0.00  0.00    +0.040 C 
BRANCH  16  17
ATOM     17  C   LIG    1        3.738   1.520  -0.025  0.00  0.00    +0.060 C 
BRANCH  17  19
ATOM     18  O   LIG    1        4.691  -0.639  -0.046  0.00  0.00    -0.540 OA
ATOM     19  C   LIG    1        4.897   0.557  -0.042  0.00  0.00    +0.520 C 
ATOM     20  N   LIG    1        6.161   1.023  -0.051  0.00  0.00    -0.620 N 
ATOM     21  C   LIG    1        7.306   0.100  -0.061  0.00  0.00    +0.300 C 
ATOM     22  C   LIG    1        8.060   0.280  -1.388  0.00  0.00    +0.110 C 
ATOM     23  C   LIG    1        8.230   1.759  -1.663  0.00  0.00    -0.170 A 
ATOM     24  C   LIG    1        7.516   2.742  -1.083  0.00  0.00    -0.130 A 
ATOM     25  C   LIG    1        7.860   4.018  -1.517  0.00  0.00    +0.020 A 
ATOM     26  C   LIG    1        8.832   4.075  -2.422  0.00  0.00    -0.040 A 
ATOM     27  S   LIG    1        9.388   2.450  -2.793  0.00  0.00    +0.110 S 
ATOM     28  C   LIG    1        6.432   2.468  -0.046  0.00  0.00    +0.360 C 
ENDBRANCH  17  19
ENDBRANCH  16  17
ENDBRANCH   1  16
TORSDOF 5
