REMARK  Name = ZINCnE000001Q31F.0
REMARK                            x       y       z     vdW  Elec       q    Type
REMARK                         _______ _______ _______ _____ _____    ______ ____
ROOT
ATOM      1  C   LIG    1       -3.422  -1.085   0.503  0.00  0.00    +0.540 C 
ATOM      2  N   LIG    1       -2.542  -0.173   0.044  0.00  0.00    -0.680 N 
ATOM      3  H   LIG    1       -2.016  -0.363  -0.748  0.00  0.00    +0.410 HD
ATOM      4  O   LIG    1       -4.082  -0.847   1.496  0.00  0.00    -0.540 OA
ENDROOT
BRANCH   1  10
ATOM      5  C   LIG    1       -5.622  -5.550   0.121  0.00  0.00    +0.090 C 
ATOM      6  C   LIG    1       -4.641  -4.526  -0.388  0.00  0.00    -0.090 A 
ATOM      7  C   LIG    1       -3.889  -4.792  -1.517  0.00  0.00    +0.040 A 
ATOM      8  C   LIG    1       -2.985  -3.857  -1.991  0.00  0.00    +0.010 A 
ATOM      9  C   LIG    1       -2.832  -2.650  -1.343  0.00  0.00    +0.070 A 
ATOM     10  C   LIG    1       -3.584  -2.375  -0.199  0.00  0.00    -0.110 A 
ATOM     11  C   LIG    1       -4.495  -3.322   0.274  0.00  0.00    +0.010 A 
ATOM     12 CL   LIG    1       -5.441  -2.988   1.691  0.00  0.00    -0.030 Cl
ENDBRANCH   1  10
BRANCH   2  13
ATOM     13  C   LIG    1       -2.381   1.105   0.741  0.00  0.00    +0.280 C 
BRANCH  13  14
ATOM     14  C   LIG    1       -1.330   1.951   0.019  0.00  0.00    -0.120 C 
ATOM     15  C   LIG    1       -1.782   2.208  -1.420  0.00  0.00    +0.040 C 
BRANCH  14  16
ATOM     16  C   LIG    1       -1.164   3.266   0.736  0.00  0.00    -0.040 A 
ATOM     17  C   LIG    1       -1.918   3.539   1.861  0.00  0.00    -0.010 A 
ATOM     18  C   LIG    1       -1.763   4.744   2.521  0.00  0.00    -0.020 A 
ATOM     19  C   LIG    1       -0.860   5.679   2.050  0.00  0.00    -0.030 A 
ATOM     20  C   LIG    1       -0.110   5.408   0.922  0.00  0.00    -0.020 A 
ATOM     21  C   LIG    1       -0.262   4.201   0.264  0.00  0.00    +0.060 A 
ENDBRANCH  14  16
BRANCH  14  22
ATOM     22  C   LIG    1       -0.015   1.215   0.009  0.00  0.00    +0.510 C 
ATOM     23  O   LIG    1        1.033   1.839   0.002  0.00  0.00    -0.680 OA
ATOM     24  O   LIG    1        0.002  -0.004   0.002  0.00  0.00    -0.680 OA
ENDBRANCH  14  22
ENDBRANCH  13  14
ENDBRANCH   2  13
TORSDOF 5
