REMARK  Name = ZINCpk000000of7Z.0
REMARK                            x       y       z     vdW  Elec       q    Type
REMARK                         _______ _______ _______ _____ _____    ______ ____
ROOT
ATOM      1  N   LIG    1        3.509  10.038  -1.446  0.00  0.00    -0.520 NA
ATOM      2  C   LIG    1        4.220   9.719  -0.200  0.00  0.00    +0.190 C 
ATOM      3  C   LIG    1        4.571   8.229  -0.184  0.00  0.00    +0.190 C 
ATOM      4  N   LIG    1        3.340   7.436  -0.303  0.00  0.00    -0.520 NA
ATOM      5  C   LIG    1        2.630   7.756  -1.549  0.00  0.00    +0.200 C 
ATOM      6  C   LIG    1        2.278   9.245  -1.565  0.00  0.00    +0.200 C 
ENDROOT
BRANCH   1   7
ATOM      7  C   LIG    1        3.220  11.476  -1.534  0.00  0.00    +0.210 C 
BRANCH   7  10
ATOM      8  N   LIG    1        2.389  13.073  -3.230  0.00  0.00    -0.740 N 
ATOM      9  H   LIG    1        2.474  13.774  -2.566  0.00  0.00    +0.400 HD
ATOM     10  C   LIG    1        2.719  11.804  -2.917  0.00  0.00    +0.510 C 
ATOM     11  O   LIG    1        2.613  10.927  -3.747  0.00  0.00    -0.520 OA
BRANCH   8  12
ATOM     12  C   LIG    1        1.901  13.392  -4.574  0.00  0.00    +0.260 C 
BRANCH  12  13
ATOM     13  C   LIG    1        1.600  14.889  -4.665  0.00  0.00    +0.010 C 
BRANCH  13  15
ATOM     14  C   LIG    1        0.790  16.720  -6.160  0.00  0.00    +0.010 C 
ATOM     15  C   LIG    1        1.091  15.223  -6.069  0.00  0.00    +0.020 C 
ENDBRANCH  13  15
ENDBRANCH  12  13
ENDBRANCH   8  12
ENDBRANCH   7  10
ENDBRANCH   1   7
BRANCH   4  16
ATOM     16  C   LIG    1        3.628   5.998  -0.216  0.00  0.00    +0.220 C 
BRANCH  16  17
ATOM     17  C   LIG    1        2.336   5.233  -0.094  0.00  0.00    +0.510 C 
ATOM     18  N   LIG    1        2.356   3.889   0.001  0.00  0.00    -0.680 N 
ATOM     19  H   LIG    1        3.202   3.419   0.058  0.00  0.00    +0.410 HD
ATOM     20  O   LIG    1        1.278   5.827  -0.082  0.00  0.00    -0.500 OA
BRANCH  18  21
ATOM     21  C   LIG    1        1.155   3.171   0.015  0.00  0.00    +0.140 A 
ATOM     22  C   LIG    1        1.081   1.924  -0.592  0.00  0.00    -0.020 A 
ATOM     23  C   LIG    1       -0.106   1.218  -0.575  0.00  0.00    +0.030 A 
ATOM     24  C   LIG    1       -1.222   1.754   0.042  0.00  0.00    -0.100 A 
ATOM     25  C   LIG    1       -1.151   2.992   0.652  0.00  0.00    +0.020 A 
ATOM     26  C   LIG    1       -2.517   0.983   0.053  0.00  0.00    +0.100 C 
ATOM     27  C   LIG    1        0.033   3.704   0.638  0.00  0.00    +0.020 A 
ENDBRANCH  18  21
ENDBRANCH  16  17
ENDBRANCH   4  16
TORSDOF 8
