REMARK  Name = ZINCpe00000MJJhq.0
REMARK                            x       y       z     vdW  Elec       q    Type
REMARK                         _______ _______ _______ _____ _____    ______ ____
ROOT
ATOM      1  C   LIG    1        4.715   0.145  -2.361  0.00  0.00    +0.400 A 
ATOM      2  N   LIG    1        4.417  -0.826  -1.511  0.00  0.00    -0.520 NA
ATOM      3  C   LIG    1        3.171  -1.075  -1.153  0.00  0.00    +0.440 A 
ATOM      4  C   LIG    1        2.127  -0.325  -1.657  0.00  0.00    -0.750 A 
ATOM      5  C   LIG    1        2.396   0.700  -2.555  0.00  0.00    +0.250 A 
ATOM      6  C   LIG    1        3.712   0.940  -2.907  0.00  0.00    -0.230 A 
ENDROOT
BRANCH   6   7
ATOM      7  C   LIG    1        4.054   2.043  -3.874  0.00  0.00    +0.530 C 
ATOM      8  F   LIG    1        4.605   1.492  -5.036  0.00  0.00    -0.170 F 
ATOM      9  F   LIG    1        4.981   2.909  -3.285  0.00  0.00    -0.160 F 
ATOM     10  F   LIG    1        2.894   2.754  -4.201  0.00  0.00    -0.180 F 
ENDBRANCH   6   7
BRANCH   4  11
ATOM     11  S   LIG    1        0.469  -0.669  -1.170  0.00  0.00    +2.710 S 
ATOM     12  O   LIG    1       -0.365  -0.166  -2.204  0.00  0.00    -0.940 OA
ATOM     13  O   LIG    1        0.448  -2.024  -0.745  0.00  0.00    -0.940 OA
BRANCH  11  14
ATOM     14  N   LIG    1        0.152   0.247   0.173  0.00  0.00    -1.110 NA
ATOM     15  H   LIG    1       -0.021  -0.184   1.024  0.00  0.00    +0.430 HD
BRANCH  14  16
ATOM     16  C   LIG    1        0.134   1.709   0.075  0.00  0.00    +0.280 C 
BRANCH  16  17
ATOM     17  C   LIG    1       -0.535   2.295   1.320  0.00  0.00    +0.200 C 
BRANCH  17  18
ATOM     18  O   LIG    1        0.261   2.003   2.470  0.00  0.00    -0.570 OA
ATOM     19  H   LIG    1       -0.103   2.346   3.298  0.00  0.00    +0.390 HD
ENDBRANCH  17  18
ENDBRANCH  16  17
ENDBRANCH  14  16
ENDBRANCH  11  14
ENDBRANCH   4  11
BRANCH   1  21
ATOM     20  C   LIG    1        6.822   0.816  -1.548  0.00  0.00    +0.240 C 
ATOM     21  N   LIG    1        6.041   0.372  -2.710  0.00  0.00    -0.500 N 
BRANCH  21  22
ATOM     22  C   LIG    1        6.637  -0.825  -3.319  0.00  0.00    +0.210 C 
BRANCH  22  23
ATOM     23  C   LIG    1        8.001  -0.469  -3.913  0.00  0.00    -0.030 C 
ATOM     24  C   LIG    1        8.685  -1.728  -4.492  0.00  0.00    +0.010 C 
ATOM     25  C   LIG    1        8.850  -1.408  -5.995  0.00  0.00    +0.190 C 
ATOM     26  O   LIG    1        8.850   0.035  -6.067  0.00  0.00    -0.380 OA
ATOM     27  C   LIG    1        7.834   0.466  -5.132  0.00  0.00    +0.210 C 
ENDBRANCH  22  23
ENDBRANCH  21  22
ENDBRANCH   1  21
TORSDOF 9
