REMARK  Name = ZINCqH000000816X.0
REMARK                            x       y       z     vdW  Elec       q    Type
REMARK                         _______ _______ _______ _____ _____    ______ ____
ROOT
ATOM      1  C   LIG    1        1.248   1.716  -0.001  0.00  0.00    +0.250 C 
ENDROOT
BRANCH   1   2
ATOM      2  C   LIG    1        2.332   0.870  -0.616  0.00  0.00    +0.520 C 
ATOM      3  N   LIG    1        3.584   1.356  -0.730  0.00  0.00    -0.720 N 
ATOM      4  H   LIG    1        3.787   2.251  -0.415  0.00  0.00    +0.400 HD
ATOM      5  O   LIG    1        2.079  -0.249  -1.009  0.00  0.00    -0.530 OA
BRANCH   3   6
ATOM      6  C   LIG    1        4.638   0.534  -1.328  0.00  0.00    +0.280 C 
ATOM      7  C   LIG    1        5.246  -0.374  -0.257  0.00  0.00    +0.040 C 
BRANCH   6   8
ATOM      8  C   LIG    1        5.711   1.427  -1.896  0.00  0.00    -0.100 A 
ATOM      9  C   LIG    1        6.099   2.563  -1.210  0.00  0.00    +0.000 A 
ATOM     10  C   LIG    1        7.086   3.380  -1.730  0.00  0.00    +0.020 A 
ATOM     11  C   LIG    1        7.677   3.067  -2.939  0.00  0.00    +0.000 A 
ATOM     12  C   LIG    1        7.285   1.934  -3.627  0.00  0.00    +0.020 A 
ATOM     13  C   LIG    1        6.301   1.115  -3.106  0.00  0.00    +0.020 A 
ENDBRANCH   6   8
ENDBRANCH   3   6
ENDBRANCH   1   2
BRANCH   1  14
ATOM     14  N   LIG    1       -0.011   0.966   0.007  0.00  0.00    -0.710 N 
ATOM     15  H   LIG    1        0.002  -0.004   0.002  0.00  0.00    +0.410 HD
ATOM     16  C   LIG    1       -1.187   1.624   0.017  0.00  0.00    +0.570 C 
ATOM     17  O   LIG    1       -1.204   2.839   0.023  0.00  0.00    -0.530 OA
BRANCH  16  18
ATOM     18  C   LIG    1       -2.458   0.867   0.018  0.00  0.00    -0.130 A 
ATOM     19  C   LIG    1       -2.442  -0.528   0.005  0.00  0.00    +0.040 A 
ATOM     20  C   LIG    1       -3.631  -1.228   0.011  0.00  0.00    +0.010 A 
ATOM     21  C   LIG    1       -4.837  -0.550   0.021  0.00  0.00    +0.040 A 
ATOM     22  C   LIG    1       -4.859   0.834   0.029  0.00  0.00    -0.090 A 
ATOM     23  C   LIG    1       -6.177   1.564   0.039  0.00  0.00    +0.090 C 
ATOM     24  C   LIG    1       -3.678   1.546   0.028  0.00  0.00    +0.080 A 
ENDBRANCH  16  18
ENDBRANCH   1  14
BRANCH   1  25
ATOM     25  C   LIG    1        1.635   2.077   1.435  0.00  0.00    +0.060 C 
BRANCH  25  26
ATOM     26  C   LIG    1        0.596   3.037   2.017  0.00  0.00    +0.100 C 
BRANCH  26  28
ATOM     27  C   LIG    1       -0.273   4.590   4.229  0.00  0.00    +0.140 C 
ATOM     28  S   LIG    1        1.055   3.465   3.719  0.00  0.00    -0.270 S 
ENDBRANCH  26  28
ENDBRANCH  25  26
ENDBRANCH   1  25
TORSDOF 8
