REMARK  Name = ZINCqH0000050DhL.0
REMARK                            x       y       z     vdW  Elec       q    Type
REMARK                         _______ _______ _______ _____ _____    ______ ____
ROOT
ATOM      1  C   LIG    1       -0.087   1.108  -2.478  0.00  0.00    +0.520 C 
ATOM      2  N   LIG    1       -0.556   1.432  -3.700  0.00  0.00    -0.670 N 
ATOM      3  H   LIG    1       -1.392   1.916  -3.785  0.00  0.00    +0.410 HD
ATOM      4  O   LIG    1        0.914   0.431  -2.373  0.00  0.00    -0.510 OA
ENDROOT
BRANCH   2   5
ATOM      5  C   LIG    1        0.164   1.070  -4.844  0.00  0.00    +0.160 A 
ATOM      6  C   LIG    1        0.865  -0.128  -4.875  0.00  0.00    +0.010 A 
ATOM      7  C   LIG    1        1.575  -0.486  -6.004  0.00  0.00    +0.050 A 
ATOM      8  C   LIG    1        1.592   0.347  -7.106  0.00  0.00    -0.030 A 
ATOM      9  C   LIG    1        0.893   1.547  -7.082  0.00  0.00    +0.180 A 
ATOM     10  C   LIG    1        0.173   1.906  -5.952  0.00  0.00    +0.000 A 
BRANCH   9  11
ATOM     11  N   LIG    1        0.911   2.391  -8.198  0.00  0.00    -0.680 N 
ATOM     12  H   LIG    1        0.931   2.013  -9.091  0.00  0.00    +0.410 HD
ATOM     13  C   LIG    1        0.900   3.728  -8.033  0.00  0.00    +0.710 C 
ATOM     14  N   LIG    1        1.011   4.541  -9.102  0.00  0.00    -0.710 N 
ATOM     15  H   LIG    1        1.099   4.163  -9.991  0.00  0.00    +0.400 HD
ATOM     16  O   LIG    1        0.790   4.202  -6.918  0.00  0.00    -0.570 OA
BRANCH  14  17
ATOM     17  C   LIG    1        0.999   5.995  -8.922  0.00  0.00    +0.240 C 
ATOM     18  C   LIG    1        0.158   6.820  -9.897  0.00  0.00    +0.010 C 
ATOM     19  C   LIG    1        1.685   6.845  -9.993  0.00  0.00    +0.020 C 
ENDBRANCH  14  17
ENDBRANCH   9  11
ENDBRANCH   2   5
BRANCH   1  20
ATOM     20  C   LIG    1       -0.806   1.587  -1.244  0.00  0.00    +0.050 C 
BRANCH  20  21
ATOM     21  C   LIG    1       -0.073   1.084   0.001  0.00  0.00    +0.280 C 
BRANCH  21  22
ATOM     22  N   LIG    1       -0.772   1.549   1.202  0.00  0.00    -0.750 N 
ATOM     23  H   LIG    1       -1.573   2.090   1.117  0.00  0.00    +0.400 HD
BRANCH  22  30
ATOM     24  C   LIG    1       -2.192   2.495   3.478  0.00  0.00    +0.090 C 
ATOM     25  C   LIG    1       -0.948   1.654   3.607  0.00  0.00    -0.160 A 
ATOM     26  C   LIG    1       -0.465   1.319   4.856  0.00  0.00    +0.040 A 
ATOM     27  C   LIG    1        0.675   0.546   4.975  0.00  0.00    -0.050 A 
ATOM     28  C   LIG    1        1.337   0.106   3.843  0.00  0.00    +0.040 A 
ATOM     29  C   LIG    1        0.856   0.433   2.590  0.00  0.00    -0.070 A 
ATOM     30  C   LIG    1       -0.286   1.213   2.467  0.00  0.00    +0.220 A 
ENDBRANCH  22  30
ENDBRANCH  21  22
ENDBRANCH  20  21
ENDBRANCH   1  20
TORSDOF 7
