REMARK  Name = ZINCvU00000006wG.0
REMARK                            x       y       z     vdW  Elec       q    Type
REMARK                         _______ _______ _______ _____ _____    ______ ____
ROOT
ATOM      1  C   LIG    1       -1.002   3.806   0.028  0.00  0.00    +0.030 C 
ENDROOT
BRANCH   1   2
ATOM      2  C   LIG    1       -0.832   4.300  -1.386  0.00  0.00    -0.090 A 
ATOM      3  C   LIG    1       -1.823   4.070  -2.322  0.00  0.00    +0.030 A 
ATOM      4  C   LIG    1       -1.669   4.527  -3.618  0.00  0.00    +0.000 A 
ATOM      5  C   LIG    1       -0.520   5.206  -3.979  0.00  0.00    +0.010 A 
ATOM      6  C   LIG    1        0.473   5.431  -3.045  0.00  0.00    +0.010 A 
ATOM      7  C   LIG    1        0.317   4.978  -1.748  0.00  0.00    +0.060 A 
ENDBRANCH   1   2
BRANCH   1   8
ATOM      8  C   LIG    1       -1.163   2.308   0.020  0.00  0.00    +0.460 C 
ATOM      9  O   LIG    1       -2.273   1.816   0.023  0.00  0.00    -0.450 OA
BRANCH   8  10
ATOM     10  C   LIG    1       -0.018   1.472   0.010  0.00  0.00    -0.270 A 
ATOM     11  C   LIG    1        1.301   1.874  -0.000  0.00  0.00    +0.340 A 
ATOM     12  N   LIG    1        2.103   0.793  -0.014  0.00  0.00    -0.560 N 
ATOM     13  H   LIG    1        3.073   0.826  -0.024  0.00  0.00    +0.420 HD
ATOM     14  C   LIG    1        1.358  -0.369  -0.013  0.00  0.00    +0.070 A 
ATOM     15  C   LIG    1        1.700  -1.717  -0.024  0.00  0.00    +0.000 A 
ATOM     16  C   LIG    1        0.712  -2.678  -0.020  0.00  0.00    +0.030 A 
ATOM     17  C   LIG    1       -0.626  -2.315  -0.005  0.00  0.00    +0.000 A 
ATOM     18  C   LIG    1       -0.986  -0.984   0.006  0.00  0.00    +0.060 A 
ATOM     19  C   LIG    1        0.002  -0.004   0.002  0.00  0.00    -0.050 A 
ENDBRANCH   8  10
ENDBRANCH   1   8
BRANCH   1  20
ATOM     20  S   LIG    1       -2.471   4.567   0.760  0.00  0.00    +0.110 S 
BRANCH  20  25
ATOM     21  N   LIG    1       -2.688   7.309   1.234  0.00  0.00    -0.310 N 
ATOM     22  N   LIG    1       -1.861   8.431   1.046  0.00  0.00    -0.070 NA
ATOM     23  N   LIG    1       -0.765   8.003   0.519  0.00  0.00    -0.030 NA
ATOM     24  N   LIG    1       -0.812   6.730   0.359  0.00  0.00    -0.320 NA
ATOM     25  C   LIG    1       -1.963   6.254   0.782  0.00  0.00    +0.210 A 
BRANCH  21  30
ATOM     26  C   LIG    1       -7.926   7.212   3.418  0.00  0.00    +0.100 C 
ATOM     27  C   LIG    1       -6.535   7.238   2.838  0.00  0.00    -0.070 A 
ATOM     28  C   LIG    1       -5.602   8.135   3.323  0.00  0.00    +0.040 A 
ATOM     29  C   LIG    1       -4.326   8.161   2.793  0.00  0.00    +0.050 A 
ATOM     30  C   LIG    1       -3.982   7.285   1.773  0.00  0.00    +0.110 A 
ATOM     31  C   LIG    1       -4.923   6.389   1.284  0.00  0.00    +0.030 A 
ATOM     32  C   LIG    1       -6.195   6.364   1.822  0.00  0.00    +0.040 A 
ENDBRANCH  21  30
ENDBRANCH  20  25
ENDBRANCH   1  20
TORSDOF 6
