REMARK  Name = ZINCtV00001bB39K.0
REMARK                            x       y       z     vdW  Elec       q    Type
REMARK                         _______ _______ _______ _____ _____    ______ ____
ROOT
ATOM      1  C   LIG    1       -2.118  -1.686  -2.408  0.00  0.00    +0.080 C 
ATOM      2  C   LIG    1       -2.067  -3.189  -2.129  0.00  0.00    +0.080 C 
ENDROOT
BRANCH   1   3
ATOM      3  C   LIG    1       -3.152  -1.407  -3.469  0.00  0.00    -0.090 A 
ATOM      4  C   LIG    1       -4.473  -1.758  -3.254  0.00  0.00    +0.060 A 
ATOM      5  C   LIG    1       -5.430  -1.501  -4.221  0.00  0.00    +0.000 A 
ATOM      6  C   LIG    1       -5.070  -0.902  -5.410  0.00  0.00    +0.060 A 
ATOM      7  C   LIG    1       -3.737  -0.550  -5.635  0.00  0.00    -0.160 A 
ATOM      8  C   LIG    1       -2.778  -0.807  -4.653  0.00  0.00    +0.080 A 
BRANCH   7   9
ATOM      9  C   LIG    1       -3.344   0.092  -6.906  0.00  0.00    +0.440 C 
ATOM     10  O   LIG    1       -2.485   0.953  -6.913  0.00  0.00    -0.440 OA
BRANCH   9  11
ATOM     11  C   LIG    1       -3.995  -0.311  -8.170  0.00  0.00    -0.160 A 
ATOM     12  C   LIG    1       -4.860  -1.407  -8.195  0.00  0.00    +0.060 A 
ATOM     13  C   LIG    1       -5.469  -1.774  -9.377  0.00  0.00    +0.000 A 
ATOM     14  C   LIG    1       -5.215  -1.067 -10.539  0.00  0.00    +0.040 A 
ATOM     15  C   LIG    1       -4.354   0.017 -10.523  0.00  0.00    +0.000 A 
ATOM     16  C   LIG    1       -3.743   0.399  -9.347  0.00  0.00    +0.070 A 
ENDBRANCH   9  11
ENDBRANCH   7   9
ENDBRANCH   1   3
BRANCH   1  17
ATOM     17  C   LIG    1       -2.485  -0.952  -1.144  0.00  0.00    +0.460 C 
ATOM     18  O   LIG    1       -3.483  -0.273  -1.108  0.00  0.00    -0.500 OA
BRANCH  17  19
ATOM     19  O   LIG    1       -1.703  -1.054  -0.058  0.00  0.00    -0.330 OA
BRANCH  19  26
ATOM     20  C   LIG    1       -1.645  -1.062   2.377  0.00  0.00    +0.010 C 
ATOM     21  C   LIG    1       -0.119  -1.176   2.356  0.00  0.00    +0.030 C 
ATOM     22  C   LIG    1        0.497   0.224   2.330  0.00  0.00    +0.000 C 
ATOM     23  C   LIG    1        0.025   0.965   1.077  0.00  0.00    -0.020 C 
ATOM     24  C   LIG    1       -1.501   1.080   1.098  0.00  0.00    +0.020 C 
ATOM     25  C   LIG    1        0.462   0.192  -0.168  0.00  0.00    +0.030 C 
ATOM     26  C   LIG    1       -2.117  -0.320   1.124  0.00  0.00    +0.190 C 
BRANCH  20  28
ATOM     27  C   LIG    1       -1.789  -3.203   3.655  0.00  0.00    +0.010 C 
ATOM     28  C   LIG    1       -2.261  -2.462   2.403  0.00  0.00    -0.010 C 
ATOM     29  C   LIG    1       -3.787  -2.347   2.423  0.00  0.00    +0.020 C 
ENDBRANCH  20  28
ENDBRANCH  19  26
ENDBRANCH  17  19
ENDBRANCH   1  17
TORSDOF 7
