REMARK  Name = ZINCvU0000000CKt.0
REMARK                            x       y       z     vdW  Elec       q    Type
REMARK                         _______ _______ _______ _____ _____    ______ ____
ROOT
ATOM      1  C   LIG    1       -1.933  -2.573   1.458  0.00  0.00    +0.010 C 
ATOM      2  C   LIG    1       -3.333  -1.959   1.391  0.00  0.00    +0.060 C 
ATOM      3  C   LIG    1       -3.222  -0.433   1.373  0.00  0.00    +0.020 C 
ATOM      4  C   LIG    1       -2.442   0.005   0.135  0.00  0.00    +0.270 C 
ATOM      5  N   LIG    1       -1.150  -0.694   0.111  0.00  0.00    -0.610 N 
ATOM      6  C   LIG    1        0.002  -0.004   0.002  0.00  0.00    +0.570 C 
ATOM      7  O   LIG    1        1.060  -0.597  -0.089  0.00  0.00    -0.520 OA
ATOM      8  C   LIG    1       -1.138  -2.160   0.214  0.00  0.00    +0.300 C 
ENDROOT
BRANCH   6   9
ATOM      9  C   LIG    1       -0.019   1.471  -0.006  0.00  0.00    -0.150 A 
ATOM     10  C   LIG    1       -0.823   2.156  -0.921  0.00  0.00    +0.080 A 
ATOM     11  C   LIG    1       -0.841   3.535  -0.921  0.00  0.00    -0.010 A 
ATOM     12  C   LIG    1       -0.060   4.244  -0.024  0.00  0.00    +0.080 A 
ATOM     13  C   LIG    1        0.742   3.579   0.882  0.00  0.00    -0.050 A 
ATOM     14  C   LIG    1        0.770   2.193   0.899  0.00  0.00    +0.150 A 
BRANCH  14  15
ATOM     15  O   LIG    1        1.558   1.538   1.788  0.00  0.00    -0.310 OA
BRANCH  15  16
ATOM     16  C   LIG    1        2.335   2.340   2.680  0.00  0.00    +0.600 C 
ATOM     17  F   LIG    1        1.484   3.140   3.450  0.00  0.00    -0.200 F 
ATOM     18  F   LIG    1        3.199   3.156   1.941  0.00  0.00    -0.190 F 
ENDBRANCH  15  16
ENDBRANCH  14  15
ENDBRANCH   6   9
BRANCH   1  20
ATOM     19  O   LIG    1       -3.135  -4.603   1.494  0.00  0.00    -0.490 OA
ATOM     20  C   LIG    1       -2.044  -4.075   1.507  0.00  0.00    +0.530 C 
ATOM     21  N   LIG    1       -0.930  -4.832   1.567  0.00  0.00    -0.620 N 
ATOM     22  H   LIG    1       -0.057  -4.409   1.577  0.00  0.00    +0.430 HD
BRANCH  21  23
ATOM     23  C   LIG    1       -1.032  -6.213   1.612  0.00  0.00    +0.320 A 
ATOM     24  N   LIG    1       -0.033  -7.022   1.670  0.00  0.00    -0.500 NA
ATOM     25  C   LIG    1       -0.292  -8.344   1.710  0.00  0.00    +0.110 A 
ATOM     26  C   LIG    1        0.617  -9.421   1.775  0.00  0.00    +0.080 A 
ATOM     27  C   LIG    1        0.161 -10.715   1.808  0.00  0.00    +0.060 A 
ATOM     28  C   LIG    1       -1.200 -10.985   1.778  0.00  0.00    -0.030 A 
ATOM     29  C   LIG    1       -2.107  -9.949   1.715  0.00  0.00    +0.090 A 
ATOM     30 CL   LIG    1       -1.761 -12.628   1.820  0.00  0.00    -0.060 Cl
ATOM     31  C   LIG    1       -1.661  -8.630   1.680  0.00  0.00    -0.210 A 
ATOM     32  S   LIG    1       -2.545  -7.108   1.607  0.00  0.00    +0.190 S 
ENDBRANCH  21  23
ENDBRANCH   1  20
TORSDOF 5
