REMARK  Name = ZINCrD000000AqVd.0
REMARK                            x       y       z     vdW  Elec       q    Type
REMARK                         _______ _______ _______ _____ _____    ______ ____
ROOT
ATOM      1  O   LIG    1        0.046  -6.736  -0.060  0.00  0.00    -0.490 OA
ATOM      2  C   LIG    1        1.157  -6.258  -0.161  0.00  0.00    +0.520 C 
ATOM      3  N   LIG    1        2.232  -7.065  -0.250  0.00  0.00    -0.660 N 
ATOM      4  H   LIG    1        3.125  -6.686  -0.248  0.00  0.00    +0.420 HD
ENDROOT
BRANCH   3   5
ATOM      5  C   LIG    1        2.061  -8.448  -0.347  0.00  0.00    +0.170 A 
ATOM      6  C   LIG    1        0.980  -8.968  -1.022  0.00  0.00    +0.030 A 
ATOM      7  C   LIG    1        0.799 -10.345  -1.130  0.00  0.00    +0.040 A 
ATOM      8  C   LIG    1        1.681 -11.213  -0.562  0.00  0.00    +0.020 A 
ATOM      9  C   LIG    1        2.794 -10.722   0.140  0.00  0.00    -0.090 A 
ATOM     10  C   LIG    1        3.724 -11.593   0.738  0.00  0.00    +0.080 A 
ATOM     11  C   LIG    1        4.783 -11.046   1.405  0.00  0.00    -0.030 A 
ATOM     12  C   LIG    1        4.918  -9.662   1.478  0.00  0.00    +0.290 A 
ATOM     13  N   LIG    1        4.050  -8.854   0.920  0.00  0.00    -0.480 NA
ATOM     14  C   LIG    1        2.993  -9.324   0.253  0.00  0.00    +0.110 A 
ENDBRANCH   3   5
BRANCH   2  15
ATOM     15  C   LIG    1        1.334  -4.762  -0.185  0.00  0.00    +0.240 C 
BRANCH  15  16
ATOM     16  O   LIG    1        0.057  -4.129  -0.077  0.00  0.00    -0.290 OA
BRANCH  16  17
ATOM     17  C   LIG    1        0.039  -2.770  -0.084  0.00  0.00    +0.100 A 
ATOM     18  C   LIG    1       -1.167  -2.092   0.018  0.00  0.00    +0.020 A 
ATOM     19  C   LIG    1       -1.186  -0.711   0.010  0.00  0.00    +0.010 A 
ATOM     20  C   LIG    1        0.002  -0.001  -0.099  0.00  0.00    +0.130 A 
ATOM     21  C   LIG    1        1.208  -0.680  -0.205  0.00  0.00    +0.050 A 
ATOM     22  C   LIG    1        1.226  -2.061  -0.193  0.00  0.00    -0.050 A 
BRANCH  20  23
ATOM     23  N   LIG    1       -0.016   1.400  -0.107  0.00  0.00    -0.560 N 
ATOM     24  C   LIG    1       -1.239   2.212  -0.126  0.00  0.00    +0.260 C 
ATOM     25  C   LIG    1       -0.789   3.623  -0.565  0.00  0.00    +0.060 C 
ATOM     26  C   LIG    1        0.692   3.634  -0.121  0.00  0.00    +0.070 C 
ATOM     27  C   LIG    1        1.083   2.173  -0.092  0.00  0.00    +0.510 C 
ATOM     28  O   LIG    1        2.223   1.759  -0.062  0.00  0.00    -0.510 OA
ENDBRANCH  20  23
ENDBRANCH  16  17
ENDBRANCH  15  16
ENDBRANCH   2  15
TORSDOF 5
