REMARK  Name = ZINCqH0000007jZn.0
REMARK                            x       y       z     vdW  Elec       q    Type
REMARK                         _______ _______ _______ _____ _____    ______ ____
ROOT
ATOM      1  N   LIG    1       -0.698   1.558   1.213  0.00  0.00    -0.720 N 
ATOM      2  H   LIG    1       -0.402   2.370   1.653  0.00  0.00    +0.410 HD
ENDROOT
BRANCH   1   6
ATOM      3  C   LIG    1       -3.925  -0.593   2.749  0.00  0.00    +0.060 A 
ATOM      4  C   LIG    1       -3.275  -1.037   1.610  0.00  0.00    +0.010 A 
ATOM      5  C   LIG    1       -2.205  -0.324   1.101  0.00  0.00    -0.060 A 
ATOM      6  C   LIG    1       -1.781   0.838   1.730  0.00  0.00    +0.230 A 
ATOM      7  C   LIG    1       -2.427   1.283   2.876  0.00  0.00    -0.080 A 
ATOM      8  C   LIG    1       -3.502   0.572   3.383  0.00  0.00    +0.120 A 
BRANCH   3  10
ATOM      9  C   LIG    1       -5.358  -2.482   2.549  0.00  0.00    +0.230 C 
ATOM     10  O   LIG    1       -4.978  -1.296   3.250  0.00  0.00    -0.310 OA
ENDBRANCH   3  10
BRANCH   8  11
ATOM     11  O   LIG    1       -4.141   1.008   4.501  0.00  0.00    -0.310 OA
BRANCH  11  12
ATOM     12  C   LIG    1       -3.653   2.212   5.099  0.00  0.00    +0.590 C 
ATOM     13  F   LIG    1       -3.748   3.261   4.178  0.00  0.00    -0.200 F 
ATOM     14  F   LIG    1       -2.316   2.038   5.472  0.00  0.00    -0.200 F 
ENDBRANCH  11  12
ENDBRANCH   8  11
ENDBRANCH   1   6
BRANCH   1  15
ATOM     15  C   LIG    1       -0.013   1.086   0.008  0.00  0.00    +0.290 C 
BRANCH  15  16
ATOM     16  C   LIG    1        1.401   1.607  -0.003  0.00  0.00    -0.100 A 
ATOM     17  C   LIG    1        1.663   2.902   0.406  0.00  0.00    +0.020 A 
ATOM     18  C   LIG    1        2.961   3.379   0.400  0.00  0.00    +0.020 A 
ATOM     19  C   LIG    1        3.995   2.564  -0.023  0.00  0.00    +0.020 A 
ATOM     20  C   LIG    1        3.732   1.272  -0.436  0.00  0.00    +0.020 A 
ATOM     21  C   LIG    1        2.435   0.793  -0.426  0.00  0.00    +0.020 A 
ENDBRANCH  15  16
BRANCH  15  22
ATOM     22  C   LIG    1       -0.742   1.585  -1.213  0.00  0.00    +0.500 C 
ATOM     23  N   LIG    1       -0.288   1.272  -2.443  0.00  0.00    -0.700 N 
ATOM     24  H   LIG    1        0.507   0.726  -2.543  0.00  0.00    +0.400 HD
ATOM     25  O   LIG    1       -1.736   2.268  -1.088  0.00  0.00    -0.510 OA
BRANCH  23  26
ATOM     26  C   LIG    1       -0.997   1.758  -3.630  0.00  0.00    +0.220 C 
ATOM     27  C   LIG    1       -1.213   0.769  -4.777  0.00  0.00    +0.010 C 
ATOM     28  C   LIG    1       -0.193   1.900  -4.924  0.00  0.00    +0.010 C 
ENDBRANCH  23  26
ENDBRANCH  15  22
ENDBRANCH   1  15
TORSDOF 8
