REMARK  Name = ZINCrH000004sOIw.0
REMARK                            x       y       z     vdW  Elec       q    Type
REMARK                         _______ _______ _______ _____ _____    ______ ____
ROOT
ATOM      1  C   LIG    1       -1.341   2.962   0.416  0.00  0.00    +0.120 A 
ATOM      2  C   LIG    1       -1.408   1.575   0.424  0.00  0.00    +0.020 A 
ATOM      3  C   LIG    1       -0.256   0.829   0.577  0.00  0.00    +0.000 A 
ATOM      4  C   LIG    1        0.970   1.465   0.710  0.00  0.00    +0.150 A 
ATOM      5  C   LIG    1        1.038   2.853   0.695  0.00  0.00    -0.100 A 
ATOM      6  C   LIG    1        2.371   3.540   0.840  0.00  0.00    +0.090 C 
ATOM      7  C   LIG    1        3.269   2.723   1.768  0.00  0.00    +0.070 C 
ATOM      8  C   LIG    1        3.258   1.277   1.351  0.00  0.00    +0.520 C 
ATOM      9  O   LIG    1        4.268   0.614   1.459  0.00  0.00    -0.520 OA
ATOM     10  N   LIG    1        2.141   0.711   0.859  0.00  0.00    -0.550 N 
ATOM     11  C   LIG    1       -0.114   3.599   0.549  0.00  0.00    +0.070 A 
ENDROOT
BRANCH   1  13
ATOM     12  C   LIG    1       -2.639   4.895   0.912  0.00  0.00    +0.520 C 
ATOM     13  N   LIG    1       -2.510   3.719   0.267  0.00  0.00    -0.670 N 
ATOM     14  H   LIG    1       -3.228   3.396  -0.301  0.00  0.00    +0.410 HD
ATOM     15  O   LIG    1       -1.710   5.339   1.553  0.00  0.00    -0.500 OA
BRANCH  12  16
ATOM     16  C   LIG    1       -3.936   5.658   0.837  0.00  0.00    +0.080 C 
ATOM     17  C   LIG    1       -5.067   4.799   1.406  0.00  0.00    +0.070 C 
BRANCH  16  24
ATOM     18  C   LIG    1       -3.167   5.959   3.975  0.00  0.00    +0.160 C 
ATOM     19  C   LIG    1       -3.484   7.068   3.005  0.00  0.00    +0.050 A 
ATOM     20  N   LIG    1       -3.504   8.345   3.260  0.00  0.00    -0.370 NA
ATOM     21  O   LIG    1       -3.792   8.990   2.279  0.00  0.00    +0.100 OA
ATOM     22  C   LIG    1       -4.003   8.202   1.215  0.00  0.00    -0.020 A 
ATOM     23  C   LIG    1       -4.374   8.645  -0.177  0.00  0.00    +0.190 C 
ATOM     24  C   LIG    1       -3.818   6.929   1.638  0.00  0.00    -0.190 A 
ENDBRANCH  16  24
ENDBRANCH  12  16
ENDBRANCH   1  13
BRANCH  10  25
ATOM     25  C   LIG    1        2.148  -0.703   0.476  0.00  0.00    +0.320 C 
BRANCH  25  26
ATOM     26  C   LIG    1        2.555  -0.831  -0.993  0.00  0.00    -0.070 C 
ATOM     27  C   LIG    1        1.522  -1.405  -1.965  0.00  0.00    +0.010 C 
ATOM     28  C   LIG    1        2.735  -2.243  -1.555  0.00  0.00    +0.030 C 
ENDBRANCH  25  26
ENDBRANCH  10  25
TORSDOF 5
