REMARK  Name = ZINCrD00000iD2wE.0
REMARK                            x       y       z     vdW  Elec       q    Type
REMARK                         _______ _______ _______ _____ _____    ______ ____
ROOT
ATOM      1  C   LIG    1       -1.878   6.241   0.565  0.00  0.00    +0.120 C 
ATOM      2  C   LIG    1       -1.064   6.733  -0.604  0.00  0.00    -0.030 A 
ATOM      3  C   LIG    1       -0.844   8.084  -0.774  0.00  0.00    +0.080 A 
ATOM      4  C   LIG    1       -0.096   8.537  -1.846  0.00  0.00    -0.160 A 
ATOM      5  C   LIG    1        0.436   7.640  -2.755  0.00  0.00    +0.070 A 
ATOM      6  C   LIG    1        0.227   6.285  -2.594  0.00  0.00    +0.050 A 
ATOM      7  C   LIG    1       -0.530   5.822  -1.518  0.00  0.00    -0.100 A 
ENDROOT
BRANCH   7   8
ATOM      8  C   LIG    1       -0.761   4.372  -1.342  0.00  0.00    +0.570 C 
ATOM      9  N   LIG    1        0.286   3.529  -1.252  0.00  0.00    -0.600 N 
ATOM     10  C   LIG    1        1.655   4.033  -1.417  0.00  0.00    +0.280 C 
ATOM     11  C   LIG    1        2.477   3.672  -0.170  0.00  0.00    +0.320 C 
ATOM     12  N   LIG    1        2.202   2.262   0.143  0.00  0.00    -0.630 N 
ATOM     13  C   LIG    1        3.075   1.266   0.298  0.00  0.00    +0.650 C 
ATOM     14  O   LIG    1        2.502   0.057   0.381  0.00  0.00    -0.320 OA
ATOM     15  C   LIG    1        1.052   0.204   0.346  0.00  0.00    +0.280 C 
ATOM     16  O   LIG    1        4.277   1.437   0.359  0.00  0.00    -0.520 OA
ATOM     17  C   LIG    1        0.832   1.724   0.284  0.00  0.00    +0.100 C 
ATOM     18  C   LIG    1        0.149   2.246   1.550  0.00  0.00    +0.070 C 
ATOM     19  C   LIG    1        0.062   2.099  -0.988  0.00  0.00    +0.320 C 
ATOM     20  O   LIG    1       -1.896   3.941  -1.279  0.00  0.00    -0.510 OA
ENDBRANCH   7   8
BRANCH   4  21
ATOM     21  C   LIG    1        0.140  10.015  -2.025  0.00  0.00    +0.320 C 
ATOM     22  F   LIG    1       -0.944  10.727  -1.501  0.00  0.00    -0.150 F 
ATOM     23  F   LIG    1        0.274  10.304  -3.387  0.00  0.00    -0.150 F 
BRANCH  21  24
ATOM     24  C   LIG    1        1.419  10.419  -1.289  0.00  0.00    +0.430 C 
ATOM     25  F   LIG    1        1.285  10.130   0.073  0.00  0.00    -0.150 F 
ATOM     26  F   LIG    1        1.638  11.791  -1.455  0.00  0.00    -0.160 F 
ATOM     27  F   LIG    1        2.504   9.707  -1.812  0.00  0.00    -0.150 F 
ENDBRANCH  21  24
ENDBRANCH   4  21
TORSDOF 3
