REMARK  Name = ZINCqH0000038Nlk.0
REMARK                            x       y       z     vdW  Elec       q    Type
REMARK                         _______ _______ _______ _____ _____    ______ ____
ROOT
ATOM      1  C   LIG    1       -8.203   2.550  -2.513  0.00  0.00    +0.150 C 
ATOM      2  C   LIG    1       -6.800   2.450  -3.154  0.00  0.00    +0.010 C 
ATOM      3  C   LIG    1       -5.858   2.848  -1.990  0.00  0.00    +0.190 C 
ATOM      4  N   LIG    1       -6.613   3.922  -1.294  0.00  0.00    -0.510 NA
ATOM      5  C   LIG    1       -8.029   3.493  -1.308  0.00  0.00    +0.200 C 
ENDROOT
BRANCH   1   6
ATOM      6  O   LIG    1       -9.136   3.103  -3.444  0.00  0.00    -0.370 OA
BRANCH   6   7
ATOM      7  C   LIG    1       -9.867   2.123  -4.185  0.00  0.00    +0.260 C 
BRANCH   7  14
ATOM      8  C   LIG    1      -12.938   3.007  -3.621  0.00  0.00    +0.160 C 
ATOM      9  C   LIG    1      -12.154   3.202  -4.893  0.00  0.00    +0.040 A 
ATOM     10  N   LIG    1      -12.574   3.763  -5.990  0.00  0.00    -0.370 NA
ATOM     11  O   LIG    1      -11.717   3.770  -6.843  0.00  0.00    +0.100 OA
ATOM     12  C   LIG    1      -10.584   3.202  -6.408  0.00  0.00    -0.000 A 
ATOM     13  C   LIG    1       -9.305   3.029  -7.186  0.00  0.00    +0.190 C 
ATOM     14  C   LIG    1      -10.815   2.814  -5.131  0.00  0.00    -0.210 A 
ENDBRANCH   7  14
ENDBRANCH   6   7
ENDBRANCH   1   6
BRANCH   4  15
ATOM     15  C   LIG    1       -6.130   4.098   0.082  0.00  0.00    +0.290 C 
BRANCH  15  16
ATOM     16  C   LIG    1       -4.636   4.292   0.069  0.00  0.00    -0.010 A 
ATOM     17  C   LIG    1       -3.990   5.473   0.068  0.00  0.00    +0.170 A 
ATOM     18  O   LIG    1       -2.669   5.206   0.054  0.00  0.00    -0.190 OA
ATOM     19  C   LIG    1       -2.522   3.870   0.046  0.00  0.00    +0.230 A 
ATOM     20  N   LIG    1       -3.713   3.319   0.050  0.00  0.00    -0.460 NA
BRANCH  19  21
ATOM     21  C   LIG    1       -1.234   3.143   0.031  0.00  0.00    -0.020 A 
ATOM     22  C   LIG    1       -1.217   1.748   0.017  0.00  0.00    +0.070 A 
ATOM     23  C   LIG    1       -0.013   1.076   0.008  0.00  0.00    +0.010 A 
ATOM     24  C   LIG    1        1.177   1.782   0.000  0.00  0.00    +0.030 A 
ATOM     25  C   LIG    1        1.167   3.166   0.008  0.00  0.00    +0.010 A 
ATOM     26  C   LIG    1       -0.031   3.850   0.023  0.00  0.00    +0.040 A 
ENDBRANCH  19  21
ENDBRANCH  15  16
ENDBRANCH   4  15
TORSDOF 6
