REMARK  Name = ZINCvU00000006Zo.0
REMARK                            x       y       z     vdW  Elec       q    Type
REMARK                         _______ _______ _______ _____ _____    ______ ____
ROOT
ATOM      1  C   LIG    1       -1.815   1.016   1.783  0.00  0.00    +0.190 A 
ATOM      2  N   LIG    1       -2.035   1.633   2.922  0.00  0.00    -0.490 NA
ATOM      3  C   LIG    1       -1.184   2.658   3.050  0.00  0.00    +0.190 A 
ATOM      4  C   LIG    1       -0.388   2.689   1.949  0.00  0.00    +0.030 A 
ATOM      5  N   LIG    1       -0.794   1.644   1.137  0.00  0.00    -0.430 N 
ENDROOT
BRANCH   4   6
ATOM      6  C   LIG    1        0.697   3.653   1.671  0.00  0.00    -0.010 A 
ATOM      7  C   LIG    1        1.828   3.250   0.958  0.00  0.00    +0.000 A 
ATOM      8  C   LIG    1        2.834   4.156   0.697  0.00  0.00    +0.020 A 
ATOM      9  C   LIG    1        2.731   5.459   1.151  0.00  0.00    +0.010 A 
ATOM     10  C   LIG    1        1.616   5.864   1.863  0.00  0.00    +0.020 A 
ATOM     11  C   LIG    1        0.600   4.969   2.126  0.00  0.00    +0.030 A 
ENDBRANCH   4   6
BRANCH   1  12
ATOM     12  S   LIG    1       -2.695  -0.391   1.189  0.00  0.00    +0.080 S 
BRANCH  12  14
ATOM     13  C   LIG    1       -4.805   0.566   2.636  0.00  0.00    +0.100 C 
ATOM     14  C   LIG    1       -3.858  -0.633   2.554  0.00  0.00    +0.080 C 
BRANCH  14  15
ATOM     15  C   LIG    1       -4.657  -1.889   2.317  0.00  0.00    +0.470 A 
ATOM     16  N   LIG    1       -4.973  -2.197   1.089  0.00  0.00    -0.580 NA
ATOM     17  C   LIG    1       -5.685  -3.302   0.797  0.00  0.00    +0.540 A 
ATOM     18  C   LIG    1       -6.106  -4.170   1.911  0.00  0.00    -0.210 A 
ATOM     19  C   LIG    1       -6.844  -5.333   1.705  0.00  0.00    +0.110 A 
ATOM     20  C   LIG    1       -7.209  -6.105   2.787  0.00  0.00    -0.010 A 
ATOM     21  C   LIG    1       -6.847  -5.731   4.073  0.00  0.00    +0.080 A 
ATOM     22  C   LIG    1       -6.115  -4.582   4.292  0.00  0.00    -0.020 A 
ATOM     23  C   LIG    1       -5.738  -3.792   3.216  0.00  0.00    +0.180 A 
ATOM     24  O   LIG    1       -5.973  -3.576  -0.355  0.00  0.00    -0.470 OA
ATOM     25  N   LIG    1       -5.001  -2.635   3.380  0.00  0.00    -0.620 N 
ATOM     26  H   LIG    1       -4.734  -2.358   4.270  0.00  0.00    +0.420 HD
ENDBRANCH  14  15
ENDBRANCH  12  14
ENDBRANCH   1  12
BRANCH   5  27
ATOM     27  C   LIG    1       -0.229   1.280  -0.165  0.00  0.00    +0.420 C 
BRANCH  27  28
ATOM     28  C   LIG    1       -0.876   2.111  -1.243  0.00  0.00    -0.050 A 
ATOM     29  C   LIG    1       -0.444   3.308  -1.679  0.00  0.00    -0.020 A 
ATOM     30  C   LIG    1       -1.340   3.723  -2.691  0.00  0.00    -0.070 A 
ATOM     31  C   LIG    1       -2.271   2.759  -2.807  0.00  0.00    +0.190 A 
ATOM     32  O   LIG    1       -1.985   1.785  -1.927  0.00  0.00    -0.160 OA
ENDBRANCH  27  28
ENDBRANCH   5  27
TORSDOF 6
