REMARK  Name = ZINCvU0000000Ilg.0
REMARK                            x       y       z     vdW  Elec       q    Type
REMARK                         _______ _______ _______ _____ _____    ______ ____
ROOT
ATOM      1  C   LIG    1        6.768   5.870  -1.119  0.00  0.00    +0.520 C 
ATOM      2  O   LIG    1        7.120   6.579  -0.198  0.00  0.00    -0.490 OA
ENDROOT
BRANCH   1   3
ATOM      3  C   LIG    1        5.924   6.425  -2.198  0.00  0.00    -0.070 A 
ATOM      4  C   LIG    1        5.602   5.675  -3.319  0.00  0.00    +0.080 A 
ATOM      5  C   LIG    1        4.800   6.246  -4.323  0.00  0.00    +0.230 A 
ATOM      6  N   LIG    1        4.329   7.474  -4.234  0.00  0.00    -0.430 NA
ATOM      7  C   LIG    1        4.586   8.262  -3.188  0.00  0.00    +0.130 A 
ATOM      8  C   LIG    1        4.070   9.569  -3.121  0.00  0.00    +0.060 A 
ATOM      9  C   LIG    1        4.349  10.350  -2.041  0.00  0.00    +0.040 A 
ATOM     10  C   LIG    1        5.140   9.877  -0.997  0.00  0.00    +0.030 A 
ATOM     11  C   LIG    1        5.656   8.615  -1.028  0.00  0.00    +0.050 A 
ATOM     12  C   LIG    1        5.390   7.786  -2.122  0.00  0.00    -0.060 A 
BRANCH   5  13
ATOM     13  C   LIG    1        4.470   5.440  -5.514  0.00  0.00    +0.000 A 
ATOM     14  C   LIG    1        3.704   5.845  -6.565  0.00  0.00    +0.020 A 
ATOM     15  C   LIG    1        3.657   4.768  -7.470  0.00  0.00    -0.060 A 
ATOM     16  C   LIG    1        4.380   3.765  -6.930  0.00  0.00    +0.200 A 
ATOM     17  O   LIG    1        4.872   4.176  -5.751  0.00  0.00    -0.170 OA
ENDBRANCH   5  13
ENDBRANCH   1   3
BRANCH   1  18
ATOM     18  O   LIG    1        7.148   4.578  -1.158  0.00  0.00    -0.320 OA
BRANCH  18  19
ATOM     19  C   LIG    1        7.976   4.101  -0.065  0.00  0.00    +0.270 C 
BRANCH  19  22
ATOM     20  N   LIG    1        9.062   1.986   0.618  0.00  0.00    -0.670 N 
ATOM     21  H   LIG    1        9.362   2.435   1.423  0.00  0.00    +0.410 HD
ATOM     22  C   LIG    1        8.299   2.645  -0.277  0.00  0.00    +0.520 C 
ATOM     23  O   LIG    1        7.873   2.065  -1.254  0.00  0.00    -0.490 OA
BRANCH  20  28
ATOM     24  C   LIG    1       10.515  -3.416  -0.326  0.00  0.00    +0.090 C 
ATOM     25  C   LIG    1       10.129  -1.981  -0.075  0.00  0.00    -0.070 A 
ATOM     26  C   LIG    1       11.102  -0.999  -0.052  0.00  0.00    +0.010 A 
ATOM     27  C   LIG    1       10.752   0.317   0.177  0.00  0.00    -0.080 A 
ATOM     28  C   LIG    1        9.420   0.653   0.385  0.00  0.00    +0.120 A 
ATOM     29  C   LIG    1        8.446  -0.336   0.367  0.00  0.00    -0.060 A 
ATOM     30  C   LIG    1        7.001   0.023   0.598  0.00  0.00    +0.100 C 
ATOM     31  C   LIG    1       11.812   1.387   0.200  0.00  0.00    +0.090 C 
ATOM     32  C   LIG    1        8.803  -1.650   0.132  0.00  0.00    +0.010 A 
ENDBRANCH  20  28
ENDBRANCH  19  22
ENDBRANCH  18  19
ENDBRANCH   1  18
TORSDOF 6
