REMARK  Name = ZINCqH0000007BfE.0
REMARK                            x       y       z     vdW  Elec       q    Type
REMARK                         _______ _______ _______ _____ _____    ______ ____
ROOT
ATOM      1  C   LIG    1       -0.001  -0.004   0.008  0.00  0.00    +0.120 C 
ENDROOT
BRANCH   1   2
ATOM      2  C   LIG    1        1.247  -0.493   0.696  0.00  0.00    +0.530 C 
ATOM      3  N   LIG    1        1.478  -1.816   0.812  0.00  0.00    -0.670 N 
ATOM      4  H   LIG    1        0.811  -2.453   0.512  0.00  0.00    +0.410 HD
ATOM      5  O   LIG    1        2.043   0.303   1.147  0.00  0.00    -0.470 OA
BRANCH   3   6
ATOM      6  C   LIG    1        2.681  -2.270   1.364  0.00  0.00    +0.140 A 
ATOM      7  C   LIG    1        3.270  -3.434   0.887  0.00  0.00    -0.020 A 
ATOM      8  C   LIG    1        4.461  -3.876   1.430  0.00  0.00    +0.030 A 
ATOM      9  C   LIG    1        5.060  -3.168   2.455  0.00  0.00    -0.010 A 
ATOM     10  C   LIG    1        4.473  -2.012   2.936  0.00  0.00    -0.070 A 
ATOM     11  C   LIG    1        5.130  -1.243   4.054  0.00  0.00    +0.090 C 
ATOM     12  C   LIG    1        3.286  -1.561   2.394  0.00  0.00    +0.020 A 
ENDBRANCH   3   6
ENDBRANCH   1   2
BRANCH   1  13
ATOM     13  C   LIG    1       -0.020   1.503   0.013  0.00  0.00    +0.440 C 
ATOM     14  O   LIG    1        1.023   2.123  -0.003  0.00  0.00    -0.380 OA
BRANCH  13  21
ATOM     15  C   LIG    1       -1.173   6.057   0.040  0.00  0.00    +0.130 A 
ATOM     16  C   LIG    1       -2.551   6.240   0.057  0.00  0.00    -0.020 A 
ATOM     17  C   LIG    1       -3.403   5.156   0.063  0.00  0.00    +0.080 A 
ATOM     18  C   LIG    1       -2.888   3.866   0.053  0.00  0.00    +0.010 A 
ATOM     19  O   LIG    1       -3.464   2.645   0.056  0.00  0.00    -0.170 OA
ATOM     20  C   LIG    1       -2.547   1.673   0.036  0.00  0.00    +0.320 A 
ATOM     21  C   LIG    1       -1.295   2.218   0.029  0.00  0.00    -0.270 A 
ATOM     22  C   LIG    1       -1.498   3.682   0.036  0.00  0.00    -0.050 A 
ATOM     23  C   LIG    1       -0.644   4.778   0.030  0.00  0.00    +0.040 A 
BRANCH  15  25
ATOM     24  C   LIG    1       -0.959   8.425   0.044  0.00  0.00    +0.240 C 
ATOM     25  O   LIG    1       -0.345   7.135   0.033  0.00  0.00    -0.310 OA
ENDBRANCH  15  25
ENDBRANCH  13  21
ENDBRANCH   1  13
BRANCH   1  26
ATOM     26  C   LIG    1       -0.018  -0.491  -1.381  0.00  0.00    +0.200 C 
ATOM     27  N   LIG    1       -0.031  -0.866  -2.454  0.00  0.00    -0.360 NA
ENDBRANCH   1  26
TORSDOF 6
