REMARK  Name = ZINCqH00000h0UeU.0
REMARK                            x       y       z     vdW  Elec       q    Type
REMARK                         _______ _______ _______ _____ _____    ______ ____
ROOT
ATOM      1  C   LIG    1       -0.685   1.601   3.780  0.00  0.00    +0.040 C 
ATOM      2  C   LIG    1        0.034   1.073   2.538  0.00  0.00    +0.190 C 
ATOM      3  C   LIG    1       -0.982   0.839   1.412  0.00  0.00    +0.040 C 
ATOM      4  C   LIG    1       -0.260   0.125   0.267  0.00  0.00    +0.040 C 
ATOM      5  C   LIG    1        1.048   0.819  -0.020  0.00  0.00    -0.110 A 
ATOM      6  C   LIG    1        1.690   0.535  -1.215  0.00  0.00    +0.010 A 
ATOM      7  C   LIG    1        2.892   1.140  -1.525  0.00  0.00    +0.000 A 
ATOM      8  C   LIG    1        3.462   2.035  -0.639  0.00  0.00    +0.030 A 
ATOM      9  C   LIG    1        2.828   2.324   0.551  0.00  0.00    +0.020 A 
ATOM     10  C   LIG    1        1.612   1.718   0.869  0.00  0.00    +0.120 A 
ATOM     11  N   LIG    1        1.018   2.057   2.083  0.00  0.00    -0.490 N 
ENDROOT
BRANCH   4  12
ATOM     12  C   LIG    1       -1.125   0.155  -0.967  0.00  0.00    +0.530 C 
ATOM     13  O   LIG    1       -1.838   1.111  -1.184  0.00  0.00    -0.530 OA
ATOM     14  N   LIG    1       -1.106  -0.881  -1.829  0.00  0.00    -0.860 N 
ATOM     15  H   LIG    1       -1.719  -0.899  -2.580  0.00  0.00    +0.400 HD
ATOM     16  H   LIG    1       -0.479  -1.610  -1.697  0.00  0.00    +0.400 HD
ENDBRANCH   4  12
BRANCH  11  17
ATOM     17  C   LIG    1        0.428   3.402   2.023  0.00  0.00    +0.330 C 
BRANCH  17  18
ATOM     18  C   LIG    1        1.521   4.434   2.123  0.00  0.00    -0.020 A 
ATOM     19  C   LIG    1        2.213   4.980   1.097  0.00  0.00    -0.040 A 
ATOM     20  C   LIG    1        3.109   5.885   1.731  0.00  0.00    +0.060 A 
ATOM     21  N   LIG    1        2.877   5.786   3.017  0.00  0.00    -0.350 NA
ATOM     22  O   LIG    1        2.001   4.986   3.247  0.00  0.00    +0.120 OA
BRANCH  20  23
ATOM     23  C   LIG    1        4.109   6.761   1.070  0.00  0.00    -0.020 A 
ATOM     24  C   LIG    1        4.240   6.748  -0.317  0.00  0.00    +0.040 A 
ATOM     25  C   LIG    1        5.168   7.568  -0.927  0.00  0.00    +0.010 A 
ATOM     26  C   LIG    1        5.974   8.393  -0.164  0.00  0.00    +0.020 A 
ATOM     27  C   LIG    1        5.852   8.405   1.214  0.00  0.00    +0.010 A 
ATOM     28  C   LIG    1        4.924   7.593   1.834  0.00  0.00    +0.040 A 
ENDBRANCH  20  23
ENDBRANCH  17  18
ENDBRANCH  11  17
TORSDOF 4
