REMARK  Name = ZINCnE00000dPTgT.0
REMARK                            x       y       z     vdW  Elec       q    Type
REMARK                         _______ _______ _______ _____ _____    ______ ____
ROOT
ATOM      1  C   LIG    1       -2.446   5.175  -0.378  0.00  0.00    +0.070 C 
ATOM      2  C   LIG    1       -1.321   5.929   0.346  0.00  0.00    +0.260 C 
ATOM      3  N   LIG    1       -0.053   5.254   0.023  0.00  0.00    -0.760 N 
ATOM      4  H   LIG    1        0.748   5.762  -0.181  0.00  0.00    +0.400 HD
ATOM      5  C   LIG    1       -0.043   3.850   0.021  0.00  0.00    +0.130 A 
ATOM      6  C   LIG    1        1.162   3.164   0.006  0.00  0.00    -0.040 A 
ATOM      7  C   LIG    1        1.174   1.780   0.000  0.00  0.00    +0.000 A 
ATOM      8  C   LIG    1       -0.013   1.076   0.008  0.00  0.00    -0.010 A 
ATOM      9  C   LIG    1       -1.230   1.755   0.017  0.00  0.00    -0.050 A 
ATOM     10  C   LIG    1       -1.246   3.152   0.030  0.00  0.00    +0.090 A 
ATOM     11  O   LIG    1       -2.434   3.811   0.049  0.00  0.00    -0.270 OA
ENDROOT
BRANCH   9  12
ATOM     12  C   LIG    1       -2.505   0.996   0.019  0.00  0.00    -0.030 A 
ATOM     13  C   LIG    1       -2.831   0.194   1.107  0.00  0.00    +0.010 A 
ATOM     14  C   LIG    1       -4.021  -0.506   1.106  0.00  0.00    -0.010 A 
ATOM     15  C   LIG    1       -4.872  -0.416   0.023  0.00  0.00    -0.010 A 
ATOM     16  C   LIG    1       -4.549   0.378  -1.072  0.00  0.00    -0.080 A 
ATOM     17  C   LIG    1       -5.524   0.418  -2.219  0.00  0.00    +0.070 C 
ATOM     18  C   LIG    1       -5.257   1.631  -3.109  0.00  0.00    +0.010 C 
ATOM     19  C   LIG    1       -3.768   1.642  -3.476  0.00  0.00    +0.000 C 
ATOM     20  C   LIG    1       -2.966   1.978  -2.220  0.00  0.00    +0.080 C 
ATOM     21  C   LIG    1       -3.372   1.087  -1.077  0.00  0.00    -0.040 A 
ENDBRANCH   9  12
BRANCH   1  23
ATOM     22  O   LIG    1       -4.019   6.941  -0.390  0.00  0.00    -0.690 OA
ATOM     23  C   LIG    1       -3.774   5.800  -0.038  0.00  0.00    +0.510 C 
ATOM     24  O   LIG    1       -4.604   5.164   0.589  0.00  0.00    -0.660 OA
ENDBRANCH   1  23
TORSDOF 2
