REMARK  Name = ZINCqH0000032xKn.0
REMARK                            x       y       z     vdW  Elec       q    Type
REMARK                         _______ _______ _______ _____ _____    ______ ____
ROOT
ATOM      1  N   LIG    1       -2.103   1.072   1.277  0.00  0.00    -0.380 N 
ATOM      2  N   LIG    1       -2.481  -0.276   1.268  0.00  0.00    -0.230 NA
ATOM      3  C   LIG    1       -3.781  -0.369   1.285  0.00  0.00    +0.300 A 
ATOM      4  C   LIG    1       -4.325   0.932   1.297  0.00  0.00    -0.180 A 
ATOM      5  C   LIG    1       -5.645   1.440   1.313  0.00  0.00    -0.010 A 
ATOM      6  C   LIG    1       -5.812   2.821   1.323  0.00  0.00    -0.020 A 
ATOM      7  C   LIG    1       -4.683   3.646   1.317  0.00  0.00    +0.240 A 
ATOM      8  N   LIG    1       -3.461   3.142   1.302  0.00  0.00    -0.480 NA
ATOM      9  C   LIG    1       -3.242   1.836   1.292  0.00  0.00    +0.320 A 
ENDROOT
BRANCH   7  10
ATOM     10  C   LIG    1       -4.861   5.118   1.327  0.00  0.00    -0.060 A 
ATOM     11  C   LIG    1       -6.142   5.668   1.337  0.00  0.00    +0.040 A 
ATOM     12  C   LIG    1       -6.301   7.038   1.352  0.00  0.00    +0.010 A 
ATOM     13  C   LIG    1       -5.193   7.866   1.347  0.00  0.00    +0.030 A 
ATOM     14  C   LIG    1       -3.920   7.326   1.331  0.00  0.00    +0.000 A 
ATOM     15  C   LIG    1       -3.748   5.957   1.321  0.00  0.00    +0.070 A 
ENDBRANCH   7  10
BRANCH   5  16
ATOM     16  C   LIG    1       -6.811   0.531   1.318  0.00  0.00    +0.570 C 
ATOM     17  N   LIG    1       -8.060   1.038   1.333  0.00  0.00    -0.720 N 
ATOM     18  H   LIG    1       -8.194   1.998   1.340  0.00  0.00    +0.410 HD
ATOM     19  O   LIG    1       -6.644  -0.673   1.309  0.00  0.00    -0.510 OA
BRANCH  17  20
ATOM     20  C   LIG    1       -9.216   0.137   1.338  0.00  0.00    +0.280 C 
ATOM     21  C   LIG    1       -9.163  -0.753   2.581  0.00  0.00    +0.080 C 
ATOM     22  C   LIG    1       -9.186  -0.737   0.083  0.00  0.00    +0.080 C 
BRANCH  20  23
ATOM     23  C   LIG    1      -10.456   0.930   1.355  0.00  0.00    +0.200 C 
ATOM     24  N   LIG    1      -11.412   1.542   1.368  0.00  0.00    -0.390 NA
ENDBRANCH  20  23
ENDBRANCH  17  20
ENDBRANCH   5  16
BRANCH   1  26
ATOM     25  C   LIG    1       -0.013   1.086   0.008  0.00  0.00    +0.050 C 
ATOM     26  C   LIG    1       -0.729   1.579   1.267  0.00  0.00    +0.270 C 
ATOM     27  C   LIG    1        0.011   1.072   2.506  0.00  0.00    +0.050 C 
ENDBRANCH   1  26
TORSDOF 5
