REMARK  Name = ZINCvU0000000GE1.0
REMARK                            x       y       z     vdW  Elec       q    Type
REMARK                         _______ _______ _______ _____ _____    ______ ____
ROOT
ATOM      1  C   LIG    1        7.039  -4.415  -0.469  0.00  0.00    +0.280 A 
ATOM      2  N   LIG    1        7.320  -3.217  -0.012  0.00  0.00    -0.270 NA
ATOM      3  N   LIG    1        6.250  -2.510   0.056  0.00  0.00    -0.280 NA
ATOM      4  C   LIG    1        5.217  -3.210  -0.352  0.00  0.00    +0.150 A 
ATOM      5  N   LIG    1        5.681  -4.452  -0.697  0.00  0.00    -0.410 N 
ENDROOT
BRANCH   1   8
ATOM      6  C   LIG    1       10.127  -4.330   0.065  0.00  0.00    +0.200 C 
ATOM      7  C   LIG    1        9.339  -5.500  -0.466  0.00  0.00    +0.070 A 
ATOM      8  C   LIG    1        7.998  -5.519  -0.691  0.00  0.00    -0.140 A 
ATOM      9  C   LIG    1        7.698  -6.865  -1.195  0.00  0.00    -0.040 A 
ATOM     10  C   LIG    1        8.873  -7.517  -1.233  0.00  0.00    +0.180 A 
ATOM     11  O   LIG    1        9.841  -6.699  -0.795  0.00  0.00    -0.170 OA
ENDBRANCH   1   8
BRANCH   5  12
ATOM     12  C   LIG    1        4.931  -5.532  -1.182  0.00  0.00    +0.100 A 
ATOM     13  C   LIG    1        4.822  -6.696  -0.433  0.00  0.00    +0.030 A 
ATOM     14  C   LIG    1        4.079  -7.757  -0.912  0.00  0.00    +0.030 A 
ATOM     15  C   LIG    1        3.453  -7.665  -2.142  0.00  0.00    +0.040 A 
ATOM     16  C   LIG    1        3.565  -6.510  -2.893  0.00  0.00    +0.040 A 
ATOM     17  C   LIG    1        4.302  -5.444  -2.417  0.00  0.00    +0.030 A 
ENDBRANCH   5  12
BRANCH   4  18
ATOM     18  S   LIG    1        3.546  -2.658  -0.435  0.00  0.00    +0.090 S 
BRANCH  18  19
ATOM     19  C   LIG    1        3.743  -0.966   0.178  0.00  0.00    +0.020 C 
ATOM     20  C   LIG    1        4.198  -1.002   1.638  0.00  0.00    +0.090 C 
BRANCH  19  21
ATOM     21  C   LIG    1        2.426  -0.240   0.080  0.00  0.00    +0.540 C 
ATOM     22  N   LIG    1        2.403   1.104  -0.015  0.00  0.00    -0.660 N 
ATOM     23  H   LIG    1        3.233   1.598  -0.101  0.00  0.00    +0.420 HD
ATOM     24  O   LIG    1        1.387  -0.866   0.087  0.00  0.00    -0.500 OA
BRANCH  22  25
ATOM     25  C   LIG    1        1.180   1.787   0.011  0.00  0.00    +0.150 A 
ATOM     26  C   LIG    1        0.076   1.213   0.627  0.00  0.00    +0.080 A 
ATOM     27  C   LIG    1       -1.130   1.886   0.647  0.00  0.00    +0.030 A 
ATOM     28  C   LIG    1       -1.236   3.138   0.064  0.00  0.00    +0.100 A 
ATOM     29  C   LIG    1       -0.136   3.713  -0.551  0.00  0.00    +0.030 A 
ATOM     30  F   LIG    1       -2.415   3.796   0.090  0.00  0.00    -0.130 F 
ATOM     31  C   LIG    1        1.071   3.041  -0.578  0.00  0.00    -0.040 A 
ATOM     32 CL   LIG    1        2.449   3.761  -1.349  0.00  0.00    -0.050 Cl
ENDBRANCH  22  25
ENDBRANCH  19  21
ENDBRANCH  18  19
ENDBRANCH   4  18
TORSDOF 6
