REMARK  Name = ZINCvU0000000JYR.0
REMARK                            x       y       z     vdW  Elec       q    Type
REMARK                         _______ _______ _______ _____ _____    ______ ____
ROOT
ATOM      1  C   LIG    1       -3.584   6.270  -4.636  0.00  0.00    -0.150 A 
ATOM      2  C   LIG    1       -2.568   5.670  -5.382  0.00  0.00    +0.130 A 
ATOM      3  C   LIG    1       -1.353   5.394  -4.791  0.00  0.00    +0.020 A 
ATOM      4  C   LIG    1       -1.137   5.716  -3.462  0.00  0.00    +0.080 A 
ATOM      5  C   LIG    1       -2.143   6.307  -2.714  0.00  0.00    -0.680 A 
ATOM      6 CL   LIG    1        0.397   5.372  -2.727  0.00  0.00    -0.020 Cl
ATOM      7  C   LIG    1       -3.362   6.588  -3.294  0.00  0.00    +0.220 A 
ENDROOT
BRANCH   1  10
ATOM      8  N   LIG    1       -5.099   6.261  -6.558  0.00  0.00    -0.670 N 
ATOM      9  H   LIG    1       -4.423   5.777  -7.058  0.00  0.00    +0.410 HD
ATOM     10  C   LIG    1       -4.888   6.568  -5.263  0.00  0.00    +0.560 C 
ATOM     11  O   LIG    1       -5.771   7.090  -4.611  0.00  0.00    -0.500 OA
BRANCH   8  16
ATOM     12  C   LIG    1       -8.110   8.189  -7.435  0.00  0.00    -0.060 A 
ATOM     13  C   LIG    1       -8.659   7.378  -8.422  0.00  0.00    -0.020 A 
ATOM     14  C   LIG    1       -8.027   6.205  -8.785  0.00  0.00    +0.050 A 
ATOM     15  C   LIG    1       -6.844   5.835  -8.172  0.00  0.00    -0.020 A 
ATOM     16  C   LIG    1       -6.293   6.638  -7.181  0.00  0.00    +0.160 A 
ATOM     17  C   LIG    1       -6.924   7.818  -6.814  0.00  0.00    +0.040 A 
BRANCH  12  19
ATOM     18  C   LIG    1      -10.377   9.710  -8.048  0.00  0.00    +0.140 C 
ATOM     19  S   LIG    1       -8.916   9.686  -6.974  0.00  0.00    -0.110 S 
ENDBRANCH  12  19
ENDBRANCH   8  16
ENDBRANCH   1  10
BRANCH   5  20
ATOM     20  S   LIG    1       -1.862   6.706  -1.022  0.00  0.00    +2.690 S 
ATOM     21  O   LIG    1       -3.088   7.223  -0.522  0.00  0.00    -0.940 OA
ATOM     22  O   LIG    1       -1.200   5.587  -0.450  0.00  0.00    -0.930 OA
BRANCH  20  23
ATOM     23  N   LIG    1       -0.779   7.958  -0.987  0.00  0.00    -0.990 NA
ATOM     24  C   LIG    1        0.665   7.717  -0.828  0.00  0.00    +0.310 C 
ATOM     25  C   LIG    1        1.363   8.184  -2.105  0.00  0.00    +0.070 C 
ATOM     26  C   LIG    1        0.880   9.553  -2.509  0.00  0.00    -0.060 A 
ATOM     27  C   LIG    1        1.680  10.287  -3.376  0.00  0.00    +0.000 A 
ATOM     28  C   LIG    1        1.292  11.544  -3.793  0.00  0.00    +0.000 A 
ATOM     29  C   LIG    1        0.095  12.076  -3.353  0.00  0.00    +0.000 A 
ATOM     30  C   LIG    1       -0.700  11.349  -2.491  0.00  0.00    +0.020 A 
ATOM     31  C   LIG    1       -0.309  10.087  -2.066  0.00  0.00    -0.100 A 
ATOM     32  C   LIG    1       -1.219   9.352  -1.114  0.00  0.00    +0.350 C 
ENDBRANCH  20  23
ENDBRANCH   5  20
TORSDOF 5
