REMARK  Name = ZINCqH0000006jVo.0
REMARK                            x       y       z     vdW  Elec       q    Type
REMARK                         _______ _______ _______ _____ _____    ______ ____
ROOT
ATOM      1  N   LIG    1       -2.265   1.328   1.110  0.00  0.00    -0.700 N 
ATOM      2  H   LIG    1       -3.073   1.702   0.726  0.00  0.00    +0.410 HD
ATOM      3  C   LIG    1       -2.323   0.182   1.817  0.00  0.00    +0.610 C 
ATOM      4  O   LIG    1       -1.310  -0.287   2.299  0.00  0.00    -0.540 OA
ENDROOT
BRANCH   3   5
ATOM      5  C   LIG    1       -3.617  -0.504   2.007  0.00  0.00    -0.020 A 
ATOM      6  N   LIG    1       -4.789  -0.109   1.549  0.00  0.00    -0.260 NA
ATOM      7  N   LIG    1       -5.702  -0.944   1.896  0.00  0.00    -0.270 N 
ATOM      8  C   LIG    1       -5.165  -1.947   2.624  0.00  0.00    +0.020 A 
ATOM      9  C   LIG    1       -3.837  -1.707   2.719  0.00  0.00    -0.020 A 
BRANCH   7  10
ATOM     10  C   LIG    1       -7.122  -0.821   1.557  0.00  0.00    +0.170 C 
ATOM     11  C   LIG    1       -7.521  -1.959   0.615  0.00  0.00    +0.050 C 
ATOM     12  C   LIG    1       -7.367   0.522   0.866  0.00  0.00    +0.070 C 
ATOM     13  C   LIG    1       -7.960  -0.899   2.834  0.00  0.00    +0.060 C 
ENDBRANCH   7  10
BRANCH   8  14
ATOM     14  C   LIG    1       -5.907  -3.116   3.219  0.00  0.00    +0.060 C 
ATOM     15  C   LIG    1       -6.224  -2.825   4.687  0.00  0.00    +0.040 C 
ATOM     16  C   LIG    1       -5.041  -4.373   3.123  0.00  0.00    +0.040 C 
ENDBRANCH   8  14
ENDBRANCH   3   5
BRANCH   1  17
ATOM     17  C   LIG    1       -0.981   2.008   0.922  0.00  0.00    +0.260 C 
BRANCH  17  18
ATOM     18  C   LIG    1       -0.254   1.401  -0.280  0.00  0.00    +0.170 C 
BRANCH  18  20
ATOM     19  C   LIG    1       -0.404   1.138  -2.658  0.00  0.00    +0.200 C 
ATOM     20  O   LIG    1       -0.999   1.665  -1.470  0.00  0.00    -0.390 OA
ENDBRANCH  18  20
ENDBRANCH  17  18
BRANCH  17  21
ATOM     21  C   LIG    1       -1.225   3.498   0.672  0.00  0.00    +0.100 C 
BRANCH  21  22
ATOM     22  C   LIG    1       -1.830   4.121   1.903  0.00  0.00    -0.080 A 
ATOM     23  C   LIG    1       -3.203   4.163   2.053  0.00  0.00    +0.010 A 
ATOM     24  C   LIG    1       -3.758   4.731   3.185  0.00  0.00    +0.000 A 
ATOM     25  C   LIG    1       -2.939   5.266   4.162  0.00  0.00    +0.000 A 
ATOM     26  C   LIG    1       -1.566   5.228   4.010  0.00  0.00    +0.000 A 
ATOM     27  C   LIG    1       -1.011   4.656   2.881  0.00  0.00    +0.000 A 
ENDBRANCH  21  22
ENDBRANCH  17  21
ENDBRANCH   1  17
TORSDOF 8
