REMARK  Name = ZINCrD00000hQ4WQ.0
REMARK                            x       y       z     vdW  Elec       q    Type
REMARK                         _______ _______ _______ _____ _____    ______ ____
ROOT
ATOM      1  C   LIG    1       -7.176   4.904   0.134  0.00  0.00    +0.560 C 
ATOM      2  N   LIG    1       -7.643   5.261  -1.079  0.00  0.00    -0.600 N 
ATOM      3  C   LIG    1       -8.754   6.216  -1.222  0.00  0.00    +0.230 C 
ATOM      4  C   LIG    1       -8.210   7.458  -1.937  0.00  0.00    +0.080 C 
ATOM      5  C   LIG    1       -7.408   7.069  -3.151  0.00  0.00    -0.060 A 
ATOM      6  C   LIG    1       -7.202   8.038  -4.123  0.00  0.00    -0.020 A 
ATOM      7  C   LIG    1       -6.452   7.754  -5.252  0.00  0.00    +0.110 A 
ATOM      8  C   LIG    1       -5.903   6.491  -5.412  0.00  0.00    -0.010 A 
ATOM      9  C   LIG    1       -6.113   5.528  -4.448  0.00  0.00    +0.040 A 
ATOM     10  C   LIG    1       -6.869   5.812  -3.318  0.00  0.00    -0.100 A 
ATOM     11  C   LIG    1       -9.286   6.601   0.160  0.00  0.00    +0.050 C 
ATOM     12  C   LIG    1       -7.068   4.708  -2.310  0.00  0.00    +0.280 C 
ATOM     13  C   LIG    1       -5.720   4.057  -1.995  0.00  0.00    +0.060 C 
ATOM     14  O   LIG    1       -6.341   4.027   0.230  0.00  0.00    -0.520 OA
ENDROOT
BRANCH   1  18
ATOM     15  C   LIG    1       -8.624   6.848   3.622  0.00  0.00    -0.100 A 
ATOM     16  C   LIG    1       -7.785   7.525   2.755  0.00  0.00    +0.030 A 
ATOM     17  C   LIG    1       -7.308   6.898   1.623  0.00  0.00    +0.040 A 
ATOM     18  C   LIG    1       -7.681   5.581   1.348  0.00  0.00    -0.080 A 
ATOM     19  C   LIG    1       -8.531   4.906   2.224  0.00  0.00    +0.030 A 
ATOM     20  C   LIG    1       -8.998   5.543   3.356  0.00  0.00    +0.030 A 
BRANCH  15  21
ATOM     21  C   LIG    1       -9.138   7.537   4.860  0.00  0.00    +0.320 C 
BRANCH  21  23
ATOM     22  C   LIG    1       -8.469   7.828   7.184  0.00  0.00    +0.540 C 
ATOM     23  N   LIG    1       -8.212   7.303   5.970  0.00  0.00    -0.720 N 
ATOM     24  H   LIG    1       -7.413   6.770   5.831  0.00  0.00    +0.400 HD
ATOM     25  O   LIG    1       -9.467   8.500   7.357  0.00  0.00    -0.540 OA
BRANCH  22  27
ATOM     26  C   LIG    1       -7.789   8.115   9.496  0.00  0.00    +0.140 C 
ATOM     27  C   LIG    1       -7.538   7.592   8.299  0.00  0.00    -0.090 C 
ENDBRANCH  22  27
ENDBRANCH  21  23
ENDBRANCH  15  21
ENDBRANCH   1  18
BRANCH   7  28
ATOM     28  O   LIG    1       -6.255   8.710  -6.198  0.00  0.00    -0.500 OA
ATOM     29  H   LIG    1       -6.929   8.721  -6.891  0.00  0.00    +0.390 HD
ENDBRANCH   7  28
TORSDOF 5
