REMARK  Name = ZINCrD00000hQ76I.0
REMARK                            x       y       z     vdW  Elec       q    Type
REMARK                         _______ _______ _______ _____ _____    ______ ____
ROOT
ATOM      1  N   LIG    1        1.316   3.280   0.094  0.00  0.00    -0.460 N 
ATOM      2  C   LIG    1        0.585   3.736  -1.108  0.00  0.00    +0.200 C 
ATOM      3  C   LIG    1        1.266   5.070  -1.503  0.00  0.00    +0.060 C 
ATOM      4  C   LIG    1        2.753   4.771  -1.177  0.00  0.00    +0.020 C 
ATOM      5  C   LIG    1        2.662   3.882   0.082  0.00  0.00    +0.230 C 
ENDROOT
BRANCH   1  10
ATOM      6  C   LIG    1        2.639  -0.035   0.196  0.00  0.00    +0.050 A 
ATOM      7  C   LIG    1        1.469  -0.789   0.213  0.00  0.00    +0.260 A 
ATOM      8  N   LIG    1        0.292  -0.187   0.191  0.00  0.00    -0.420 NA
ATOM      9  C   LIG    1        0.221   1.129   0.152  0.00  0.00    +0.260 A 
ATOM     10  C   LIG    1        1.391   1.893   0.135  0.00  0.00    +0.260 A 
ATOM     11  N   LIG    1        2.571   1.294   0.157  0.00  0.00    -0.460 NA
BRANCH   6  15
ATOM     12  N   LIG    1        5.089   0.021   0.205  0.00  0.00    -0.830 N 
ATOM     13  H   LIG    1        5.952  -0.421   0.222  0.00  0.00    +0.410 HD
ATOM     14  H   LIG    1        5.040   0.990   0.176  0.00  0.00    +0.410 HD
ATOM     15  C   LIG    1        3.957  -0.710   0.221  0.00  0.00    +0.580 C 
ATOM     16  O   LIG    1        4.018  -1.923   0.257  0.00  0.00    -0.530 OA
ENDBRANCH   6  15
ENDBRANCH   1  10
BRANCH   4  17
ATOM     17  C   LIG    1        3.500   6.045  -0.877  0.00  0.00    -0.060 A 
ATOM     18  C   LIG    1        3.024   6.913   0.088  0.00  0.00    +0.020 A 
ATOM     19  C   LIG    1        3.707   8.083   0.367  0.00  0.00    +0.030 A 
ATOM     20  C   LIG    1        4.866   8.387  -0.319  0.00  0.00    +0.010 A 
ATOM     21  C   LIG    1        5.346   7.517  -1.288  0.00  0.00    +0.090 A 
ATOM     22  C   LIG    1        4.662   6.342  -1.562  0.00  0.00    +0.000 A 
BRANCH  21  23
ATOM     23  O   LIG    1        6.487   7.814  -1.964  0.00  0.00    -0.260 OA
BRANCH  23  24
ATOM     24  C   LIG    1        6.389   8.092  -3.291  0.00  0.00    +0.120 A 
ATOM     25  C   LIG    1        7.536   8.282  -4.048  0.00  0.00    -0.020 A 
ATOM     26  C   LIG    1        7.434   8.559  -5.397  0.00  0.00    +0.050 A 
ATOM     27  C   LIG    1        6.189   8.659  -5.991  0.00  0.00    -0.020 A 
ATOM     28  C   LIG    1        5.044   8.476  -5.237  0.00  0.00    +0.050 A 
ATOM     29  C   LIG    1        5.141   8.193  -3.889  0.00  0.00    -0.060 A 
ENDBRANCH  23  24
ENDBRANCH  21  23
ENDBRANCH   4  17
TORSDOF 5
