REMARK  Name = ZINCpk000000nwY3.1
REMARK                            x       y       z     vdW  Elec       q    Type
REMARK                         _______ _______ _______ _____ _____    ______ ____
ROOT
ATOM      1  C   LIG    1        0.835   2.627  -0.207  0.00  0.00    +0.270 C 
ATOM      2  N   LIG    1        1.055   3.415  -1.420  0.00  0.00    -0.700 N 
ATOM      3  H   LIG    1        1.734   3.132  -2.052  0.00  0.00    +0.420 HD
ATOM      4  C   LIG    1        0.344   4.513  -1.675  0.00  0.00    +0.570 C 
ATOM      5  C   LIG    1       -0.697   5.052  -0.793  0.00  0.00    -0.150 A 
ATOM      6  C   LIG    1       -0.760   6.447  -0.641  0.00  0.00    +0.100 A 
ATOM      7  C   LIG    1       -1.710   7.018   0.174  0.00  0.00    +0.010 A 
ATOM      8  C   LIG    1       -2.613   6.217   0.854  0.00  0.00    +0.070 A 
ATOM      9  C   LIG    1       -2.564   4.848   0.714  0.00  0.00    -0.010 A 
ATOM     10  C   LIG    1       -1.610   4.249  -0.111  0.00  0.00    +0.170 A 
ATOM     11  N   LIG    1       -1.633   2.869  -0.214  0.00  0.00    -0.660 N 
ATOM     12  H   LIG    1       -2.502   2.442  -0.274  0.00  0.00    +0.420 HD
ATOM     13  O   LIG    1        0.574   5.108  -2.710  0.00  0.00    -0.520 OA
ATOM     14  C   LIG    1       -0.565   2.077  -0.233  0.00  0.00    +0.520 C 
ATOM     15  O   LIG    1       -0.724   0.875  -0.276  0.00  0.00    -0.500 OA
ENDROOT
BRANCH   1  16
ATOM     16  C   LIG    1        1.014   3.517   1.025  0.00  0.00    +0.200 C 
BRANCH  16  20
ATOM     17  C   LIG    1        4.264   5.038   0.920  0.00  0.00    +0.190 A 
ATOM     18  N   LIG    1        4.472   3.969   1.629  0.00  0.00    -0.370 NA
ATOM     19  O   LIG    1        3.442   3.340   1.752  0.00  0.00    +0.080 OA
ATOM     20  C   LIG    1        2.449   3.968   1.115  0.00  0.00    +0.180 A 
ATOM     21  N   LIG    1        2.963   5.048   0.578  0.00  0.00    -0.450 NA
BRANCH  17  22
ATOM     22  C   LIG    1        5.292   6.075   0.547  0.00  0.00    +0.290 C 
BRANCH  22  23
ATOM     23  N   LIG    1        6.103   6.407   1.726  0.00  0.00    -0.840 NA
ATOM     24  H   LIG    1        6.810   7.090   1.498  0.00  0.00    +0.360 HD
ATOM     25  H   LIG    1        6.516   5.578   2.125  0.00  0.00    +0.350 HD
ENDBRANCH  22  23
BRANCH  22  26
ATOM     26  C   LIG    1        6.197   5.521  -0.555  0.00  0.00    +0.000 C 
BRANCH  26  28
ATOM     27  C   LIG    1        4.896   6.657  -2.361  0.00  0.00    +0.020 C 
ATOM     28  C   LIG    1        5.377   5.306  -1.829  0.00  0.00    -0.020 C 
ATOM     29  C   LIG    1        6.246   4.622  -2.886  0.00  0.00    +0.020 C 
ENDBRANCH  26  28
ENDBRANCH  22  26
ENDBRANCH  17  22
ENDBRANCH  16  20
ENDBRANCH   1  16
TORSDOF 6
