REMARK  Name = ZINCrD000000Al0C.0
REMARK                            x       y       z     vdW  Elec       q    Type
REMARK                         _______ _______ _______ _____ _____    ______ ____
ROOT
ATOM      1  O   LIG    1        1.032   1.965   0.087  0.00  0.00    -0.490 OA
ATOM      2  C   LIG    1        0.001   1.345   0.239  0.00  0.00    +0.500 C 
ATOM      3  N   LIG    1        0.021  -0.002   0.263  0.00  0.00    -0.620 N 
ATOM      4  H   LIG    1       -0.804  -0.498   0.384  0.00  0.00    +0.430 HD
ENDROOT
BRANCH   3   5
ATOM      5  C   LIG    1        1.224  -0.681   0.114  0.00  0.00    +0.270 A 
ATOM      6  N   LIG    1        1.363  -1.970   0.126  0.00  0.00    -0.480 NA
ATOM      7  C   LIG    1        2.590  -2.445  -0.035  0.00  0.00    +0.120 A 
ATOM      8  C   LIG    1        3.552  -1.517  -0.183  0.00  0.00    -0.100 A 
ATOM      9  S   LIG    1        2.798   0.074  -0.114  0.00  0.00    +0.210 S 
BRANCH   7  10
ATOM     10  C   LIG    1        2.883  -3.899  -0.045  0.00  0.00    -0.010 A 
ATOM     11  C   LIG    1        3.933  -4.406   0.717  0.00  0.00    +0.040 A 
ATOM     12  C   LIG    1        4.201  -5.760   0.705  0.00  0.00    +0.010 A 
ATOM     13  C   LIG    1        3.429  -6.614  -0.063  0.00  0.00    +0.030 A 
ATOM     14  C   LIG    1        2.386  -6.117  -0.823  0.00  0.00    +0.030 A 
ATOM     15  C   LIG    1        2.105  -4.765  -0.814  0.00  0.00    -0.010 A 
ATOM     16 CL   LIG    1        0.790  -4.143  -1.762  0.00  0.00    -0.050 Cl
ENDBRANCH   7  10
ENDBRANCH   3   5
BRANCH   2  17
ATOM     17  C   LIG    1       -1.305   2.082   0.394  0.00  0.00    +0.360 C 
BRANCH  17  18
ATOM     18  N   LIG    1       -1.062   3.525   0.334  0.00  0.00    -0.580 N 
ATOM     19  C   LIG    1       -0.797   4.282   1.430  0.00  0.00    +0.550 C 
ATOM     20  C   LIG    1       -0.915   5.710   0.993  0.00  0.00    +0.000 C 
ATOM     21  C   LIG    1        0.002   6.739   1.601  0.00  0.00    +0.110 C 
ATOM     22  C   LIG    1       -0.077   7.984   0.742  0.00  0.00    -0.030 C 
ATOM     23  C   LIG    1       -0.539   8.009  -0.471  0.00  0.00    -0.030 C 
ATOM     24  C   LIG    1       -1.044   6.792  -1.219  0.00  0.00    +0.110 C 
ATOM     25  C   LIG    1       -0.494   5.577  -0.503  0.00  0.00    +0.000 C 
ATOM     26  O   LIG    1       -0.518   3.883   2.540  0.00  0.00    -0.460 OA
ATOM     27  C   LIG    1       -1.084   4.237  -0.823  0.00  0.00    +0.550 C 
ATOM     28  O   LIG    1       -1.499   3.863  -1.899  0.00  0.00    -0.460 OA
ENDBRANCH  17  18
ENDBRANCH   2  17
TORSDOF 4
