REMARK  Name = ZINCkj00000y7BT1.0
REMARK                            x       y       z     vdW  Elec       q    Type
REMARK                         _______ _______ _______ _____ _____    ______ ____
ROOT
ATOM      1  C   LIG    1       -4.950   6.551  -1.425  0.00  0.00    +0.200 C 
ENDROOT
BRANCH   1   2
ATOM      2  O   LIG    1       -4.731   7.059  -0.108  0.00  0.00    -0.540 OA
ATOM      3  H   LIG    1       -4.001   7.690  -0.046  0.00  0.00    +0.390 HD
ENDBRANCH   1   2
BRANCH   1   4
ATOM      4  C   LIG    1       -5.274   7.709  -2.371  0.00  0.00    +0.050 C 
BRANCH   4   5
ATOM      5  C   LIG    1       -6.601   8.349  -1.958  0.00  0.00    +0.140 C 
ATOM      6  C   LIG    1       -7.696   7.279  -1.921  0.00  0.00    -0.030 C 
ATOM      7  C   LIG    1       -9.035   7.941  -1.584  0.00  0.00    +0.200 C 
ATOM      8  O   LIG    1       -9.321   8.953  -2.552  0.00  0.00    -0.380 OA
ATOM      9  C   LIG    1       -8.355  10.005  -2.599  0.00  0.00    +0.200 C 
ATOM     10  C   LIG    1       -6.989   9.426  -2.976  0.00  0.00    -0.020 C 
BRANCH   5  11
ATOM     11  O   LIG    1       -6.464   8.941  -0.665  0.00  0.00    -0.550 OA
ATOM     12  H   LIG    1       -7.270   9.366  -0.340  0.00  0.00    +0.380 HD
ENDBRANCH   5  11
ENDBRANCH   4   5
ENDBRANCH   1   4
BRANCH   1  13
ATOM     13  C   LIG    1       -3.689   5.833  -1.911  0.00  0.00    +0.230 C 
BRANCH  13  14
ATOM     14  N   LIG    1       -3.446   4.650  -1.074  0.00  0.00    -0.510 N 
ATOM     15  H   LIG    1       -3.321   4.937  -0.115  0.00  0.00    +0.430 HD
ATOM     16  H   LIG    1       -4.235   4.025  -1.138  0.00  0.00    +0.430 HD
BRANCH  14  17
ATOM     17  C   LIG    1       -2.236   3.961  -1.541  0.00  0.00    +0.280 C 
BRANCH  17  18
ATOM     18  C   LIG    1       -1.982   2.729  -0.669  0.00  0.00    -0.010 C 
ATOM     19  C   LIG    1       -1.535   3.154   0.752  0.00  0.00    +0.040 C 
ATOM     20  C   LIG    1       -0.767   1.906   1.257  0.00  0.00    +0.060 C 
ATOM     21  C   LIG    1       -0.017   1.395   0.010  0.00  0.00    +0.280 C 
ATOM     22  F   LIG    1        1.291   1.891  -0.000  0.00  0.00    -0.190 F 
ATOM     23  F   LIG    1        0.002  -0.004   0.002  0.00  0.00    -0.190 F 
ATOM     24  C   LIG    1       -0.789   1.918  -1.214  0.00  0.00    +0.060 C 
ENDBRANCH  17  18
ENDBRANCH  14  17
ENDBRANCH  13  14
ENDBRANCH   1  13
TORSDOF 8
