REMARK  Name = ZINCqH0000000fK2.0
REMARK                            x       y       z     vdW  Elec       q    Type
REMARK                         _______ _______ _______ _____ _____    ______ ____
ROOT
ATOM      1  C   LIG    1       -0.841  -5.073   0.168  0.00  0.00    +0.440 A 
ATOM      2  N   LIG    1       -1.997  -4.457  -0.003  0.00  0.00    -0.630 NA
ATOM      3  C   LIG    1       -2.026  -3.149  -0.249  0.00  0.00    +0.630 A 
ATOM      4  N   LIG    1       -0.891  -2.462  -0.318  0.00  0.00    -0.640 NA
ATOM      5  C   LIG    1        0.270  -3.087  -0.151  0.00  0.00    +0.630 A 
ATOM      6  N   LIG    1        0.291  -4.395   0.095  0.00  0.00    -0.610 NA
ENDROOT
BRANCH   3   7
ATOM      7  N   LIG    1       -3.234  -2.506  -0.426  0.00  0.00    -0.800 N 
ATOM      8  H   LIG    1       -3.254  -1.552  -0.606  0.00  0.00    +0.420 HD
ATOM      9  H   LIG    1       -4.063  -3.006  -0.372  0.00  0.00    +0.420 HD
ENDBRANCH   3   7
BRANCH   5  10
ATOM     10  N   LIG    1        1.454  -2.379  -0.227  0.00  0.00    -0.620 N 
ATOM     11  H   LIG    1        2.294  -2.814  -0.012  0.00  0.00    +0.430 HD
BRANCH  10  12
ATOM     12  C   LIG    1        1.441  -1.035  -0.613  0.00  0.00    +0.160 A 
ATOM     13  C   LIG    1        0.424  -0.555  -1.428  0.00  0.00    +0.020 A 
ATOM     14  C   LIG    1        0.414   0.773  -1.808  0.00  0.00    +0.010 A 
ATOM     15  C   LIG    1        1.415   1.624  -1.377  0.00  0.00    -0.010 A 
ATOM     16  C   LIG    1        2.429   1.149  -0.565  0.00  0.00    +0.030 A 
ATOM     17  C   LIG    1        2.445  -0.177  -0.182  0.00  0.00    -0.120 A 
ATOM     18  C   LIG    1        3.550  -0.694   0.702  0.00  0.00    +0.080 C 
ENDBRANCH  10  12
ENDBRANCH   5  10
BRANCH   1  19
ATOM     19  C   LIG    1       -0.813  -6.554   0.446  0.00  0.00    +0.300 C 
BRANCH  19  20
ATOM     20  N   LIG    1       -0.869  -6.781   1.896  0.00  0.00    -0.520 NA
BRANCH  20  21
ATOM     21  C   LIG    1       -2.159  -6.346   2.448  0.00  0.00    +0.240 C 
BRANCH  21  23
ATOM     22  C   LIG    1       -4.115  -7.805   2.546  0.00  0.00    +0.020 C 
ATOM     23  C   LIG    1       -3.272  -7.131   1.803  0.00  0.00    -0.070 C 
ENDBRANCH  21  23
ENDBRANCH  20  21
BRANCH  20  24
ATOM     24  C   LIG    1       -0.607  -8.190   2.220  0.00  0.00    +0.280 C 
BRANCH  24  25
ATOM     25  C   LIG    1       -0.221  -8.309   3.672  0.00  0.00    -0.170 A 
ATOM     26  C   LIG    1       -1.053  -8.627   4.664  0.00  0.00    +0.000 A 
ATOM     27  C   LIG    1       -0.472  -8.677   5.920  0.00  0.00    +0.000 A 
ATOM     28  C   LIG    1        0.832  -8.398   5.946  0.00  0.00    -0.060 A 
ATOM     29  S   LIG    1        1.396  -8.056   4.316  0.00  0.00    +0.120 S 
ENDBRANCH  24  25
ENDBRANCH  20  24
ENDBRANCH  19  20
ENDBRANCH   1  19
TORSDOF 9
