REMARK  Name = ZINCpk00000KdHtT.0
REMARK                            x       y       z     vdW  Elec       q    Type
REMARK                         _______ _______ _______ _____ _____    ______ ____
ROOT
ATOM      1  N   LIG    1       -0.768  -0.960  -0.386  0.00  0.00    -0.680 N 
ATOM      2  H   LIG    1       -1.528  -0.402  -0.157  0.00  0.00    +0.410 HD
ATOM      3  C   LIG    1       -0.906  -2.300  -0.437  0.00  0.00    +0.510 C 
ATOM      4  O   LIG    1        0.061  -3.002  -0.639  0.00  0.00    -0.480 OA
ENDROOT
BRANCH   1   9
ATOM      5  C   LIG    1        2.875  -0.421  -0.558  0.00  0.00    -0.120 A 
ATOM      6  C   LIG    1        2.923   0.805  -1.223  0.00  0.00    +0.030 A 
ATOM      7  C   LIG    1        1.752   1.431  -1.602  0.00  0.00    +0.020 A 
ATOM      8  C   LIG    1        0.530   0.847  -1.326  0.00  0.00    +0.010 A 
ATOM      9  C   LIG    1        0.472  -0.373  -0.664  0.00  0.00    +0.140 A 
ATOM     10  C   LIG    1        1.641  -1.010  -0.279  0.00  0.00    +0.090 A 
BRANCH   5  14
ATOM     11  C   LIG    1        6.558  -1.190  -0.018  0.00  0.00    +0.290 C 
ATOM     12  N   LIG    1        5.317  -0.523  -0.422  0.00  0.00    -0.730 N 
ATOM     13  H   LIG    1        5.353   0.329  -0.884  0.00  0.00    +0.400 HD
ATOM     14  C   LIG    1        4.127  -1.094  -0.151  0.00  0.00    +0.560 C 
ATOM     15  O   LIG    1        4.083  -2.162   0.428  0.00  0.00    -0.530 OA
ENDBRANCH   5  14
ENDBRANCH   1   9
BRANCH   3  16
ATOM     16  C   LIG    1       -2.264  -2.925  -0.243  0.00  0.00    +0.220 C 
BRANCH  16  17
ATOM     17  N   LIG    1       -2.130  -4.388  -0.214  0.00  0.00    -0.500 NA
BRANCH  17  18
ATOM     18  C   LIG    1       -1.588  -4.841   1.074  0.00  0.00    +0.230 C 
BRANCH  18  19
ATOM     19  C   LIG    1       -1.235  -6.303   0.983  0.00  0.00    -0.070 A 
ATOM     20  C   LIG    1       -2.175  -7.263   1.309  0.00  0.00    +0.000 A 
ATOM     21  C   LIG    1       -1.853  -8.604   1.221  0.00  0.00    +0.000 A 
ATOM     22  C   LIG    1       -0.587  -8.986   0.818  0.00  0.00    +0.000 A 
ATOM     23  C   LIG    1        0.355  -8.026   0.496  0.00  0.00    +0.000 A 
ATOM     24  C   LIG    1        0.031  -6.685   0.579  0.00  0.00    +0.040 A 
ENDBRANCH  18  19
ENDBRANCH  17  18
BRANCH  17  25
ATOM     25  C   LIG    1       -3.414  -5.040  -0.505  0.00  0.00    +0.190 C 
BRANCH  25  26
ATOM     26  C   LIG    1       -3.709  -4.941  -2.003  0.00  0.00    +0.170 C 
BRANCH  26  27
ATOM     27  O   LIG    1       -2.720  -5.671  -2.732  0.00  0.00    -0.550 OA
ATOM     28  H   LIG    1       -2.845  -5.652  -3.691  0.00  0.00    +0.370 HD
ENDBRANCH  26  27
ENDBRANCH  25  26
ENDBRANCH  17  25
ENDBRANCH  16  17
ENDBRANCH   3  16
TORSDOF 9
