REMARK  Name = ZINCqH0000002jJY.0
REMARK                            x       y       z     vdW  Elec       q    Type
REMARK                         _______ _______ _______ _____ _____    ______ ____
ROOT
ATOM      1  C   LIG    1       -1.763   0.018  -1.135  0.00  0.00    +0.120 C 
ATOM      2  N   LIG    1       -2.822   0.475  -2.051  0.00  0.00    -0.720 N 
ATOM      3  H   LIG    1       -2.833   0.384  -3.017  0.00  0.00    +0.440 HD
ATOM      4  C   LIG    1       -3.771   1.047  -1.282  0.00  0.00    +0.710 C 
ATOM      5  N   LIG    1       -3.463   1.016   0.019  0.00  0.00    -0.570 N 
ATOM      6  O   LIG    1       -4.793   1.535  -1.723  0.00  0.00    -0.540 OA
ATOM      7  C   LIG    1       -2.274   0.419   0.234  0.00  0.00    +0.540 C 
ATOM      8  O   LIG    1       -1.727   0.239   1.301  0.00  0.00    -0.460 OA
ENDROOT
BRANCH   1   9
ATOM      9  C   LIG    1       -0.442   0.723  -1.445  0.00  0.00    +0.070 C 
BRANCH   9  11
ATOM     10  C   LIG    1        0.684   2.943  -1.659  0.00  0.00    +0.010 C 
ATOM     11  C   LIG    1       -0.638   2.238  -1.350  0.00  0.00    +0.010 C 
ENDBRANCH   9  11
ENDBRANCH   1   9
BRANCH   5  12
ATOM     12  C   LIG    1       -4.313   1.563   1.080  0.00  0.00    +0.340 C 
BRANCH  12  13
ATOM     13  C   LIG    1       -3.951   3.007   1.318  0.00  0.00    +0.420 C 
ATOM     14  O   LIG    1       -3.070   3.527   0.666  0.00  0.00    -0.460 OA
BRANCH  13  15
ATOM     15  C   LIG    1       -4.663   3.781   2.337  0.00  0.00    -0.270 A 
ATOM     16  C   LIG    1       -4.449   5.103   2.679  0.00  0.00    +0.120 A 
ATOM     17  N   LIG    1       -5.315   5.429   3.655  0.00  0.00    -0.430 N 
ATOM     18  C   LIG    1       -6.093   4.356   3.979  0.00  0.00    +0.020 A 
ATOM     19  C   LIG    1       -7.170   4.346   5.034  0.00  0.00    +0.130 C 
ATOM     20  C   LIG    1       -3.425   6.021   2.062  0.00  0.00    +0.150 C 
ATOM     21  C   LIG    1       -5.747   3.311   3.209  0.00  0.00    -0.010 A 
BRANCH  17  22
ATOM     22  C   LIG    1       -5.405   6.748   4.286  0.00  0.00    +0.220 C 
ATOM     23  C   LIG    1       -5.288   6.597   5.804  0.00  0.00    +0.050 C 
ATOM     24  C   LIG    1       -6.750   7.389   3.939  0.00  0.00    +0.050 C 
ENDBRANCH  17  22
ENDBRANCH  13  15
ENDBRANCH  12  13
ENDBRANCH   5  12
BRANCH   1  25
ATOM     25  C   LIG    1       -1.595  -1.501  -1.223  0.00  0.00    +0.060 C 
BRANCH  25  26
ATOM     26  C   LIG    1       -2.954  -2.177  -1.033  0.00  0.00    +0.000 C 
ATOM     27  C   LIG    1       -2.785  -3.695  -1.122  0.00  0.00    +0.030 C 
ENDBRANCH  25  26
ENDBRANCH   1  25
TORSDOF 8
