REMARK  Name = ZINCvU0000000CTZ.1
REMARK                            x       y       z     vdW  Elec       q    Type
REMARK                         _______ _______ _______ _____ _____    ______ ____
ROOT
ATOM      1  C   LIG    1       -7.971   4.195   2.768  0.00  0.00    +0.080 C 
ATOM      2  C   LIG    1       -6.794   5.164   2.899  0.00  0.00    +0.230 C 
ENDROOT
BRANCH   2   3
ATOM      3  C   LIG    1       -5.514   4.447   2.555  0.00  0.00    -0.270 A 
ATOM      4  C   LIG    1       -4.691   3.983   3.565  0.00  0.00    +0.070 A 
ATOM      5  C   LIG    1       -3.516   3.327   3.254  0.00  0.00    -0.050 A 
ATOM      6  C   LIG    1       -3.162   3.132   1.925  0.00  0.00    +0.310 A 
ATOM      7  C   LIG    1       -3.989   3.604   0.913  0.00  0.00    -0.150 A 
ATOM      8  C   LIG    1       -5.164   4.255   1.231  0.00  0.00    +0.030 A 
BRANCH   6   9
ATOM      9  N   LIG    1       -1.975   2.469   1.607  0.00  0.00    -1.080 NA
BRANCH   9  10
ATOM     10  S   LIG    1       -1.554   2.238   0.022  0.00  0.00    +2.610 S 
ATOM     11  O   LIG    1       -2.517   1.347  -0.523  0.00  0.00    -1.020 OA
ATOM     12  O   LIG    1       -1.297   3.528  -0.517  0.00  0.00    -1.020 OA
BRANCH  10  13
ATOM     13  C   LIG    1       -0.017   1.378   0.010  0.00  0.00    -0.620 A 
ATOM     14  C   LIG    1        1.171   2.086   0.002  0.00  0.00    +0.120 A 
ATOM     15  C   LIG    1        2.377   1.411  -0.014  0.00  0.00    -0.020 A 
ATOM     16  C   LIG    1        2.396   0.029  -0.021  0.00  0.00    +0.050 A 
ATOM     17  C   LIG    1        1.208  -0.679  -0.014  0.00  0.00    -0.020 A 
ATOM     18  C   LIG    1        0.002  -0.004   0.002  0.00  0.00    +0.120 A 
ENDBRANCH  10  13
ENDBRANCH   9  10
ENDBRANCH   6   9
ENDBRANCH   2   3
BRANCH   2  19
ATOM     19  N   LIG    1       -6.985   6.293   1.979  0.00  0.00    -0.510 N 
ATOM     20  H   LIG    1       -7.117   5.945   1.042  0.00  0.00    +0.420 HD
ATOM     21  H   LIG    1       -6.171   6.889   2.005  0.00  0.00    +0.430 HD
BRANCH  19  22
ATOM     22  C   LIG    1       -8.168   7.062   2.387  0.00  0.00    +0.260 C 
BRANCH  22  23
ATOM     23  C   LIG    1       -8.367   8.239   1.430  0.00  0.00    -0.040 C 
ATOM     24  C   LIG    1       -8.567   7.711   0.008  0.00  0.00    +0.060 C 
ATOM     25  C   LIG    1       -7.133   9.143   1.469  0.00  0.00    +0.070 C 
BRANCH  23  26
ATOM     26  C   LIG    1       -9.580   9.028   1.848  0.00  0.00    -0.110 A 
ATOM     27  C   LIG    1       -9.454  10.361   2.191  0.00  0.00    +0.070 A 
ATOM     28  C   LIG    1      -10.567  11.086   2.574  0.00  0.00    +0.040 A 
ATOM     29  C   LIG    1      -11.808  10.479   2.616  0.00  0.00    +0.070 A 
ATOM     30  C   LIG    1      -11.938   9.145   2.274  0.00  0.00    -0.070 A 
ATOM     31 CL   LIG    1      -13.496   8.382   2.327  0.00  0.00    -0.040 Cl
ATOM     32  C   LIG    1      -10.823   8.419   1.885  0.00  0.00    +0.110 A 
ATOM     33  F   LIG    1      -10.949   7.118   1.545  0.00  0.00    -0.120 F 
ENDBRANCH  23  26
ENDBRANCH  22  23
ENDBRANCH  19  22
ENDBRANCH   2  19
TORSDOF 8
