REMARK  Name = ZINCtV00000jZFtL.0
REMARK                            x       y       z     vdW  Elec       q    Type
REMARK                         _______ _______ _______ _____ _____    ______ ____
ROOT
ATOM      1  C   LIG    1        1.182   2.299   0.003  0.00  0.00    -0.190 A 
ATOM      2  C   LIG    1        0.906   3.641   0.012  0.00  0.00    +0.050 A 
ATOM      3  S   LIG    1       -0.775   3.919   0.029  0.00  0.00    +0.330 S 
ATOM      4  C   LIG    1       -1.142   2.204   0.019  0.00  0.00    -0.090 A 
ATOM      5  C   LIG    1       -0.018   1.478   0.010  0.00  0.00    -0.000 A 
ENDROOT
BRANCH   5   6
ATOM      6  C   LIG    1        0.002  -0.004   0.002  0.00  0.00    -0.040 A 
ATOM      7  C   LIG    1        0.773  -0.688  -0.937  0.00  0.00    +0.020 A 
ATOM      8  C   LIG    1        0.792  -2.068  -0.936  0.00  0.00    +0.000 A 
ATOM      9  C   LIG    1        0.039  -2.772  -0.014  0.00  0.00    +0.010 A 
ATOM     10  C   LIG    1       -0.732  -2.099   0.916  0.00  0.00    +0.010 A 
ATOM     11  C   LIG    1       -0.755  -0.719   0.929  0.00  0.00    +0.030 A 
ENDBRANCH   5   6
BRANCH   2  12
ATOM     12  N   LIG    1        1.866   4.639   0.009  0.00  0.00    -0.630 N 
ATOM     13  H   LIG    1        2.808   4.406  -0.000  0.00  0.00    +0.420 HD
ATOM     14  C   LIG    1        1.492   5.934   0.018  0.00  0.00    +0.560 C 
ATOM     15  O   LIG    1        0.312   6.226   0.030  0.00  0.00    -0.500 OA
BRANCH  14  16
ATOM     16  C   LIG    1        2.517   6.999   0.015  0.00  0.00    -0.150 A 
ATOM     17  C   LIG    1        3.873   6.667   0.007  0.00  0.00    +0.040 A 
ATOM     18  C   LIG    1        4.824   7.666  -0.001  0.00  0.00    +0.010 A 
ATOM     19  C   LIG    1        4.437   8.994   0.009  0.00  0.00    -0.030 A 
ATOM     20  C   LIG    1        3.094   9.330   0.022  0.00  0.00    +0.010 A 
ATOM     21  C   LIG    1        2.133   8.341   0.025  0.00  0.00    +0.090 A 
BRANCH  19  22
ATOM     22  C   LIG    1        5.481  10.080   0.006  0.00  0.00    -0.040 C 
ATOM     23  C   LIG    1        5.305  10.955  -1.237  0.00  0.00    +0.040 C 
ATOM     24  C   LIG    1        6.875   9.448  -0.009  0.00  0.00    +0.030 C 
ATOM     25  C   LIG    1        5.325  10.941   1.261  0.00  0.00    +0.040 C 
ENDBRANCH  19  22
ENDBRANCH  14  16
ENDBRANCH   2  12
BRANCH   1  26
ATOM     26  C   LIG    1        2.538   1.751  -0.011  0.00  0.00    +0.540 C 
ATOM     27  O   LIG    1        3.092   1.528  -1.071  0.00  0.00    -0.490 OA
BRANCH  26  28
ATOM     28  O   LIG    1        3.174   1.493   1.150  0.00  0.00    -0.350 OA
BRANCH  28  30
ATOM     29  C   LIG    1        5.072   0.725   2.467  0.00  0.00    +0.070 C 
ATOM     30  C   LIG    1        4.517   0.950   1.059  0.00  0.00    +0.200 C 
ENDBRANCH  28  30
ENDBRANCH  26  28
ENDBRANCH   1  26
TORSDOF 7
