REMARK  Name = ZINCtV000002soW0.0
REMARK                            x       y       z     vdW  Elec       q    Type
REMARK                         _______ _______ _______ _____ _____    ______ ____
ROOT
ATOM      1  C   LIG    1       -0.527   1.570   1.244  0.00  0.00    +0.260 C 
ENDROOT
BRANCH   1   2
ATOM      2  C   LIG    1       -0.628   3.069   1.365  0.00  0.00    +0.510 C 
ATOM      3  N   LIG    1        0.492   3.818   1.409  0.00  0.00    -0.630 N 
ATOM      4  H   LIG    1        1.359   3.402   1.286  0.00  0.00    +0.430 HD
ATOM      5  O   LIG    1       -1.716   3.601   1.423  0.00  0.00    -0.450 OA
BRANCH   3   6
ATOM      6  C   LIG    1        0.404   5.183   1.630  0.00  0.00    +0.330 A 
ATOM      7  N   LIG    1       -0.696   5.831   1.799  0.00  0.00    -0.460 NA
ATOM      8  C   LIG    1       -0.620   7.160   2.008  0.00  0.00    +0.100 A 
ATOM      9  C   LIG    1       -1.667   8.082   2.222  0.00  0.00    +0.110 A 
ATOM     10  C   LIG    1       -1.394   9.413   2.413  0.00  0.00    +0.020 A 
ATOM     11  C   LIG    1       -0.085   9.875   2.399  0.00  0.00    +0.120 A 
ATOM     12  C   LIG    1        0.954   8.992   2.192  0.00  0.00    +0.050 A 
ATOM     13  F   LIG    1        0.171  11.188   2.588  0.00  0.00    -0.130 F 
ATOM     14  C   LIG    1        0.694   7.638   1.996  0.00  0.00    -0.160 A 
ATOM     15  S   LIG    1        1.777   6.278   1.711  0.00  0.00    +0.090 S 
ENDBRANCH   3   6
ENDBRANCH   1   2
BRANCH   1  17
ATOM     16  C   LIG    1       -1.092   1.605  -1.190  0.00  0.00    +0.040 C 
ATOM     17  C   LIG    1       -0.036   1.204  -0.158  0.00  0.00    -0.020 C 
ATOM     18  C   LIG    1        0.206  -0.305  -0.235  0.00  0.00    +0.040 C 
ENDBRANCH   1  17
BRANCH   1  19
ATOM     19  N   LIG    1       -1.845   0.972   1.472  0.00  0.00    -0.710 N 
ATOM     20  H   LIG    1       -2.643   1.425   1.158  0.00  0.00    +0.420 HD
BRANCH  19  21
ATOM     21  C   LIG    1       -1.951  -0.251   2.140  0.00  0.00    +0.260 A 
ATOM     22  C   LIG    1       -0.822  -0.846   2.686  0.00  0.00    -0.050 A 
ATOM     23  C   LIG    1       -0.931  -2.055   3.346  0.00  0.00    +0.130 A 
ATOM     24  C   LIG    1       -2.162  -2.672   3.464  0.00  0.00    -0.230 A 
ATOM     25  C   LIG    1       -3.290  -2.083   2.921  0.00  0.00    +0.140 A 
ATOM     26  C   LIG    1       -3.189  -0.871   2.264  0.00  0.00    -0.120 A 
ATOM     27 CL   LIG    1       -4.606  -0.129   1.589  0.00  0.00    -0.050 Cl
BRANCH  24  28
ATOM     28  C   LIG    1       -2.277  -3.990   4.186  0.00  0.00    +0.520 C 
ATOM     29  F   LIG    1       -1.082  -4.704   4.044  0.00  0.00    -0.180 F 
ATOM     30  F   LIG    1       -3.330  -4.731   3.639  0.00  0.00    -0.180 F 
ATOM     31  F   LIG    1       -2.524  -3.759   5.543  0.00  0.00    -0.180 F 
ENDBRANCH  24  28
ENDBRANCH  19  21
ENDBRANCH   1  19
TORSDOF 6
