REMARK  Name = ZINCvU0000000Gul.0
REMARK                            x       y       z     vdW  Elec       q    Type
REMARK                         _______ _______ _______ _____ _____    ______ ____
ROOT
ATOM      1  C   LIG    1       -0.737   1.585   1.283  0.00  0.00    -0.020 C 
ATOM      2  C   LIG    1       -0.536   3.033   1.451  0.00  0.00    +0.000 C 
ATOM      3  C   LIG    1       -1.121   3.883   0.327  0.00  0.00    +0.020 C 
ATOM      4  C   LIG    1       -0.127   3.971  -0.804  0.00  0.00    +0.020 C 
ATOM      5  C   LIG    1       -0.382   2.844  -1.822  0.00  0.00    +0.250 C 
ATOM      6  N   LIG    1       -0.711   1.564  -1.164  0.00  0.00    -0.610 N 
ATOM      7  C   LIG    1       -1.703   0.810  -1.678  0.00  0.00    +0.510 C 
ATOM      8  O   LIG    1       -1.993  -0.246  -1.157  0.00  0.00    -0.530 OA
ATOM      9  C   LIG    1       -0.013   1.086   0.008  0.00  0.00    +0.290 C 
ENDROOT
BRANCH   1  12
ATOM     10  N   LIG    1       -0.824  -0.167   4.176  0.00  0.00    -0.460 N 
ATOM     11  C   LIG    1       -0.828   1.272   3.833  0.00  0.00    +0.200 C 
ATOM     12  C   LIG    1       -0.176   0.851   2.503  0.00  0.00    +0.010 C 
ATOM     13  C   LIG    1       -0.813  -0.530   2.742  0.00  0.00    +0.200 C 
BRANCH  10  18
ATOM     14  C   LIG    1       -3.226  -1.438   6.657  0.00  0.00    -0.040 A 
ATOM     15  C   LIG    1       -4.421  -1.282   5.965  0.00  0.00    +0.020 A 
ATOM     16  C   LIG    1       -4.417  -0.759   4.686  0.00  0.00    +0.100 A 
ATOM     17  C   LIG    1       -3.226  -0.388   4.092  0.00  0.00    +0.000 A 
ATOM     18  C   LIG    1       -2.027  -0.542   4.778  0.00  0.00    +0.130 A 
ATOM     19  C   LIG    1       -2.027  -1.072   6.060  0.00  0.00    +0.010 A 
BRANCH  19  20
ATOM     20  N   LIG    1       -0.751  -1.243   6.792  0.00  0.00    +0.030 N 
ATOM     21  O   LIG    1       -0.126  -2.284   6.691  0.00  0.00    -0.130 OA
ATOM     22  O   LIG    1       -0.327  -0.343   7.495  0.00  0.00    -0.140 OA
ENDBRANCH  19  20
BRANCH  14  24
ATOM     23  C   LIG    1       -4.992  -2.420   8.594  0.00  0.00    +0.150 C 
ATOM     24  S   LIG    1       -3.232  -2.106   8.288  0.00  0.00    -0.080 S 
ENDBRANCH  14  24
ENDBRANCH  10  18
ENDBRANCH   1  12
BRANCH   7  25
ATOM     25  C   LIG    1       -2.451   1.280  -2.899  0.00  0.00    +0.050 C 
BRANCH  25  26
ATOM     26  C   LIG    1       -3.517   0.247  -3.272  0.00  0.00    -0.050 C 
ATOM     27  C   LIG    1       -2.847  -1.092  -3.644  0.00  0.00    +0.030 C 
ATOM     28  C   LIG    1       -3.713  -1.639  -4.807  0.00  0.00    +0.000 C 
ATOM     29  C   LIG    1       -4.062  -0.358  -5.605  0.00  0.00    +0.000 C 
ATOM     30  C   LIG    1       -4.482   0.044  -2.103  0.00  0.00    +0.020 C 
ATOM     31  C   LIG    1       -4.289   0.714  -4.519  0.00  0.00    +0.010 C 
ENDBRANCH  25  26
ENDBRANCH   7  25
TORSDOF 6
