REMARK  Name = ZINCrD000000BM7r.1
REMARK                            x       y       z     vdW  Elec       q    Type
REMARK                         _______ _______ _______ _____ _____    ______ ____
ROOT
ATOM      1  O   LIG    1       -0.820   1.913  -0.107  0.00  0.00    -0.580 OA
ATOM      2  C   LIG    1        0.225   1.300  -0.001  0.00  0.00    +0.710 C 
ATOM      3  N   LIG    1        1.393   1.967   0.075  0.00  0.00    -0.630 N 
ATOM      4  C   LIG    1        2.674   1.246   0.097  0.00  0.00    +0.280 C 
ATOM      5  C   LIG    1        3.588   1.851  -0.981  0.00  0.00    +0.170 C 
ATOM      6  N   LIG    1        3.689   3.302  -0.771  0.00  0.00    -0.530 NA
ATOM      7  C   LIG    1        2.383   3.955  -0.931  0.00  0.00    +0.170 C 
ATOM      8  C   LIG    1        1.421   3.436   0.143  0.00  0.00    +0.300 C 
ATOM      9  N   LIG    1        0.214  -0.047   0.036  0.00  0.00    -0.730 N 
ATOM     10  H   LIG    1        1.050  -0.538   0.045  0.00  0.00    +0.400 HD
ENDROOT
BRANCH   6  11
ATOM     11  C   LIG    1        4.688   3.895  -1.669  0.00  0.00    +0.160 C 
ATOM     12  C   LIG    1        4.694   3.279  -3.078  0.00  0.00    -0.020 C 
ATOM     13  C   LIG    1        6.230   3.365  -3.023  0.00  0.00    +0.010 C 
ATOM     14  C   LIG    1        6.100   3.312  -1.491  0.00  0.00    +0.020 C 
ENDBRANCH   6  11
BRANCH   9  15
ATOM     15  C   LIG    1       -1.060  -0.770   0.062  0.00  0.00    +0.360 C 
BRANCH  15  16
ATOM     16  C   LIG    1       -1.565  -0.948  -1.347  0.00  0.00    +0.310 A 
ATOM     17  N   LIG    1       -0.724  -1.334  -2.285  0.00  0.00    -0.510 NA
ATOM     18  C   LIG    1       -1.132  -1.507  -3.532  0.00  0.00    +0.320 A 
ATOM     19  C   LIG    1       -2.460  -1.265  -3.846  0.00  0.00    -0.080 A 
ATOM     20  C   LIG    1       -3.313  -0.855  -2.834  0.00  0.00    +0.320 A 
ATOM     21  N   LIG    1       -2.834  -0.709  -1.609  0.00  0.00    -0.500 NA
ENDBRANCH  15  16
BRANCH  15  22
ATOM     22  C   LIG    1       -0.856  -2.141   0.708  0.00  0.00    +0.040 C 
BRANCH  22  23
ATOM     23  C   LIG    1       -0.417  -1.960   2.162  0.00  0.00    -0.010 C 
ATOM     24  C   LIG    1       -0.070  -3.323   2.764  0.00  0.00    +0.010 C 
ATOM     25  C   LIG    1        0.368  -3.141   4.219  0.00  0.00    +0.000 C 
ATOM     26  C   LIG    1       -0.770  -2.505   5.019  0.00  0.00    +0.000 C 
ATOM     27  C   LIG    1       -1.117  -1.142   4.417  0.00  0.00    +0.000 C 
ATOM     28  C   LIG    1       -1.555  -1.323   2.963  0.00  0.00    +0.000 C 
ENDBRANCH  22  23
ENDBRANCH  15  22
ENDBRANCH   9  15
TORSDOF 5
