REMARK  Name = ZINCpe000000W4U0.0
REMARK                            x       y       z     vdW  Elec       q    Type
REMARK                         _______ _______ _______ _____ _____    ______ ____
ROOT
ATOM      1  N   LIG    1        2.355   3.889  -0.001  0.00  0.00    -0.670 N 
ATOM      2  H   LIG    1        3.201   3.420   0.070  0.00  0.00    +0.410 HD
ATOM      3  C   LIG    1        2.336   5.233  -0.095  0.00  0.00    +0.530 C 
ATOM      4  O   LIG    1        1.278   5.827  -0.082  0.00  0.00    -0.500 OA
ENDROOT
BRANCH   1  10
ATOM      5  C   LIG    1        1.094   1.914   0.588  0.00  0.00    -0.120 A 
ATOM      6  C   LIG    1       -0.092   1.207   0.583  0.00  0.00    +0.060 A 
ATOM      7  C   LIG    1       -1.217   1.745  -0.015  0.00  0.00    +0.000 A 
ATOM      8  C   LIG    1       -1.161   2.997  -0.599  0.00  0.00    +0.030 A 
ATOM      9  C   LIG    1        0.022   3.710  -0.598  0.00  0.00    +0.020 A 
ATOM     10  C   LIG    1        1.155   3.170  -0.004  0.00  0.00    +0.150 A 
BRANCH   5  11
ATOM     11  C   LIG    1        2.321   1.325   1.234  0.00  0.00    +0.220 C 
BRANCH  11  13
ATOM     12  C   LIG    1        3.108  -0.613   2.406  0.00  0.00    +0.200 C 
ATOM     13  O   LIG    1        2.007   0.037   1.767  0.00  0.00    -0.380 OA
ENDBRANCH  11  13
ENDBRANCH   5  11
ENDBRANCH   1  10
BRANCH   3  14
ATOM     14  C   LIG    1        3.628   5.999  -0.217  0.00  0.00    +0.010 C 
ATOM     15  C   LIG    1        4.489   5.838   1.057  0.00  0.00    +0.080 C 
ATOM     16  C   LIG    1        5.131   7.196   1.243  0.00  0.00    +0.520 C 
ATOM     17  N   LIG    1        4.488   8.117   0.505  0.00  0.00    -0.610 N 
ATOM     18  O   LIG    1        6.087   7.420   1.955  0.00  0.00    -0.510 OA
ATOM     19  C   LIG    1        3.369   7.521  -0.234  0.00  0.00    +0.300 C 
BRANCH  17  20
ATOM     20  C   LIG    1        4.857   9.534   0.446  0.00  0.00    +0.280 C 
ATOM     21  C   LIG    1        4.770  10.160   1.848  0.00  0.00    +0.070 C 
ATOM     22  C   LIG    1        5.478  11.529   1.823  0.00  0.00    -0.310 C 
ATOM     23  S   LIG    1        6.746  11.385   0.512  0.00  0.00    +2.400 S 
ATOM     24  O   LIG    1        8.038  11.394   1.104  0.00  0.00    -0.930 OA
ATOM     25  O   LIG    1        6.441  12.290  -0.539  0.00  0.00    -0.930 OA
ATOM     26  C   LIG    1        6.331   9.680  -0.014  0.00  0.00    -0.320 C 
ENDBRANCH  17  20
ENDBRANCH   3  14
TORSDOF 5
