REMARK  Name = ZINCrH000004ohH2.0
REMARK                            x       y       z     vdW  Elec       q    Type
REMARK                         _______ _______ _______ _____ _____    ______ ____
ROOT
ATOM      1  N   LIG    1        3.135  -0.105  -2.418  0.00  0.00    -0.740 N 
ATOM      2  H   LIG    1        2.403  -0.467  -1.894  0.00  0.00    +0.400 HD
ATOM      3  C   LIG    1        3.805   0.979  -1.980  0.00  0.00    +0.710 C 
ATOM      4  N   LIG    1        3.525   1.500  -0.768  0.00  0.00    -0.620 N 
ATOM      5  C   LIG    1        4.342   2.582  -0.286  0.00  0.00    +0.360 C 
ATOM      6  C   LIG    1        5.328   2.197   0.772  0.00  0.00    -0.130 A 
ATOM      7  C   LIG    1        6.545   2.875   0.746  0.00  0.00    +0.050 A 
ATOM      8  C   LIG    1        7.536   2.604   1.662  0.00  0.00    -0.010 A 
ATOM      9  C   LIG    1        7.318   1.647   2.636  0.00  0.00    +0.050 A 
ATOM     10  C   LIG    1        6.121   0.974   2.672  0.00  0.00    -0.030 A 
ATOM     11  C   LIG    1        5.104   1.237   1.738  0.00  0.00    +0.180 A 
ATOM     12  N   LIG    1        3.963   0.486   1.891  0.00  0.00    -0.650 N 
ATOM     13  H   LIG    1        3.924   0.069   2.766  0.00  0.00    +0.400 HD
ATOM     14  C   LIG    1        2.921   0.190   1.170  0.00  0.00    +0.520 C 
ATOM     15  O   LIG    1        2.297  -0.798   1.496  0.00  0.00    -0.530 OA
ATOM     16  C   LIG    1        2.414   0.941  -0.018  0.00  0.00    +0.250 C 
ATOM     17  C   LIG    1        1.498   2.073   0.451  0.00  0.00    +0.070 C 
ATOM     18  O   LIG    1        4.662   1.487  -2.676  0.00  0.00    -0.570 OA
ENDROOT
BRANCH   1  20
ATOM     19  C   LIG    1        2.811  -0.018  -4.840  0.00  0.00    +0.040 C 
ATOM     20  C   LIG    1        3.511  -0.736  -3.685  0.00  0.00    +0.300 C 
BRANCH  20  21
ATOM     21  C   LIG    1        3.095  -2.184  -3.668  0.00  0.00    -0.090 A 
ATOM     22  C   LIG    1        1.882  -2.549  -3.114  0.00  0.00    +0.010 A 
ATOM     23  C   LIG    1        1.503  -3.878  -3.100  0.00  0.00    +0.020 A 
ATOM     24  C   LIG    1        2.333  -4.846  -3.638  0.00  0.00    -0.090 A 
ATOM     25  C   LIG    1        2.153  -6.345  -3.744  0.00  0.00    +0.080 C 
ATOM     26  C   LIG    1        3.565  -6.903  -4.022  0.00  0.00    +0.030 C 
ATOM     27  C   LIG    1        4.264  -5.710  -4.708  0.00  0.00    +0.080 C 
ATOM     28  C   LIG    1        3.547  -4.481  -4.192  0.00  0.00    -0.090 A 
ATOM     29  C   LIG    1        3.922  -3.148  -4.211  0.00  0.00    +0.030 A 
ENDBRANCH  20  21
ENDBRANCH   1  20
TORSDOF 2
