REMARK  Name = ZINCqH0000050xZp.0
REMARK                            x       y       z     vdW  Elec       q    Type
REMARK                         _______ _______ _______ _____ _____    ______ ____
ROOT
ATOM      1  O   LIG    1       -4.086   1.192  -1.558  0.00  0.00    -0.330 OA
ENDROOT
BRANCH   1   2
ATOM      2  C   LIG    1       -2.918   0.530  -1.677  0.00  0.00    +0.510 C 
ATOM      3  O   LIG    1       -2.720  -0.474  -1.022  0.00  0.00    -0.500 OA
BRANCH   2   4
ATOM      4  C   LIG    1       -1.881   1.024  -2.601  0.00  0.00    -0.120 A 
ATOM      5  C   LIG    1       -0.669   0.337  -2.724  0.00  0.00    +0.100 A 
ATOM      6  C   LIG    1        0.289   0.792  -3.585  0.00  0.00    +0.030 A 
ATOM      7  C   LIG    1        0.060   1.947  -4.339  0.00  0.00    +0.030 A 
ATOM      8  C   LIG    1       -1.149   2.637  -4.212  0.00  0.00    +0.030 A 
ATOM      9  C   LIG    1       -2.107   2.183  -3.351  0.00  0.00    +0.100 A 
BRANCH   7  10
ATOM     10  C   LIG    1        1.095   2.438  -5.269  0.00  0.00    -0.020 A 
ATOM     11  C   LIG    1        1.014   3.536  -6.066  0.00  0.00    +0.190 A 
ATOM     12  N   LIG    1        2.165   3.626  -6.747  0.00  0.00    -0.490 NA
ATOM     13  C   LIG    1        2.936   2.631  -6.407  0.00  0.00    +0.450 A 
ATOM     14  O   LIG    1        2.305   1.879  -5.496  0.00  0.00    -0.200 OA
ENDBRANCH   7  10
ENDBRANCH   2   4
ENDBRANCH   1   2
BRANCH   1  15
ATOM     15  C   LIG    1       -5.061   0.648  -0.629  0.00  0.00    +0.270 C 
BRANCH  15  18
ATOM     16  N   LIG    1       -7.338   1.200   0.161  0.00  0.00    -0.670 N 
ATOM     17  H   LIG    1       -7.318   0.389   0.692  0.00  0.00    +0.410 HD
ATOM     18  C   LIG    1       -6.294   1.514  -0.631  0.00  0.00    +0.510 C 
ATOM     19  O   LIG    1       -6.346   2.493  -1.344  0.00  0.00    -0.490 OA
BRANCH  16  27
ATOM     20  C   LIG    1       -6.907   3.959   0.710  0.00  0.00    +0.090 C 
ATOM     21  C   LIG    1       -8.287   3.398   0.482  0.00  0.00    -0.070 A 
ATOM     22  C   LIG    1       -9.388   4.231   0.532  0.00  0.00    +0.020 A 
ATOM     23  C   LIG    1      -10.655   3.716   0.328  0.00  0.00    +0.020 A 
ATOM     24  C   LIG    1      -10.824   2.369   0.069  0.00  0.00    +0.020 A 
ATOM     25  C   LIG    1       -9.726   1.532   0.012  0.00  0.00    -0.090 A 
ATOM     26  C   LIG    1       -9.911   0.063  -0.270  0.00  0.00    +0.080 C 
ATOM     27  C   LIG    1       -8.452   2.046   0.217  0.00  0.00    +0.130 A 
ENDBRANCH  16  27
ENDBRANCH  15  18
ENDBRANCH   1  15
TORSDOF 6
