REMARK  Name = ZINCqH0000000xZP.0
REMARK                            x       y       z     vdW  Elec       q    Type
REMARK                         _______ _______ _______ _____ _____    ______ ____
ROOT
ATOM      1  C   LIG    1       -1.306   2.261  -0.031  0.00  0.00    +0.510 C 
ATOM      2  N   LIG    1       -2.356   1.431  -0.196  0.00  0.00    -0.690 N 
ATOM      3  H   LIG    1       -2.245   0.477  -0.062  0.00  0.00    +0.410 HD
ATOM      4  O   LIG    1       -1.464   3.461  -0.108  0.00  0.00    -0.510 OA
ENDROOT
BRANCH   1   7
ATOM      5  N   LIG    1        1.101   2.532   0.405  0.00  0.00    -0.640 N 
ATOM      6  H   LIG    1        0.990   3.486   0.274  0.00  0.00    +0.430 HD
ATOM      7  C   LIG    1        0.051   1.702   0.246  0.00  0.00    +0.510 C 
ATOM      8  O   LIG    1        0.209   0.501   0.322  0.00  0.00    -0.500 OA
BRANCH   5  13
ATOM      9  C   LIG    1        4.755   2.099   0.645  0.00  0.00    -0.150 A 
ATOM     10  C   LIG    1        4.826   0.975   1.476  0.00  0.00    +0.060 A 
ATOM     11  C   LIG    1        3.668   0.385   1.938  0.00  0.00    +0.030 A 
ATOM     12  C   LIG    1        2.435   0.903   1.589  0.00  0.00    +0.050 A 
ATOM     13  C   LIG    1        2.351   2.016   0.759  0.00  0.00    +0.130 A 
ATOM     14  C   LIG    1        3.507   2.618   0.288  0.00  0.00    +0.060 A 
BRANCH   9  16
ATOM     15  C   LIG    1        7.331   2.168   0.537  0.00  0.00    +0.080 C 
ATOM     16  C   LIG    1        5.988   2.731   0.150  0.00  0.00    +0.400 C 
ATOM     17  O   LIG    1        5.923   3.704  -0.570  0.00  0.00    -0.450 OA
ENDBRANCH   9  16
ENDBRANCH   5  13
ENDBRANCH   1   7
BRANCH   2  18
ATOM     18  C   LIG    1       -3.663   1.970  -0.577  0.00  0.00    +0.290 C 
BRANCH  18  19
ATOM     19  C   LIG    1       -4.435   0.925  -1.340  0.00  0.00    -0.090 A 
ATOM     20  C   LIG    1       -4.382  -0.399  -0.946  0.00  0.00    +0.010 A 
ATOM     21  C   LIG    1       -5.093  -1.357  -1.643  0.00  0.00    +0.020 A 
ATOM     22  C   LIG    1       -5.851  -0.993  -2.741  0.00  0.00    +0.000 A 
ATOM     23  C   LIG    1       -5.900   0.330  -3.138  0.00  0.00    +0.020 A 
ATOM     24  C   LIG    1       -5.192   1.289  -2.438  0.00  0.00    +0.030 A 
ENDBRANCH  18  19
BRANCH  18  25
ATOM     25  C   LIG    1       -4.441   2.360   0.682  0.00  0.00    +0.020 C 
BRANCH  25  26
ATOM     26  C   LIG    1       -5.747   3.049   0.282  0.00  0.00    -0.010 C 
ATOM     27  C   LIG    1       -5.432   4.366  -0.430  0.00  0.00    +0.020 C 
ATOM     28  C   LIG    1       -6.578   3.333   1.535  0.00  0.00    +0.010 C 
ENDBRANCH  25  26
ENDBRANCH  18  25
ENDBRANCH   2  18
TORSDOF 7
