REMARK  Name = ZINCrH000004vA7N.0
REMARK                            x       y       z     vdW  Elec       q    Type
REMARK                         _______ _______ _______ _____ _____    ______ ____
ROOT
ATOM      1  O   LIG    1        0.028   8.380   2.791  0.00  0.00    -0.520 OA
ATOM      2  C   LIG    1        0.287   8.521   1.611  0.00  0.00    +0.590 C 
ATOM      3  N   LIG    1        0.427   7.439   0.819  0.00  0.00    -0.610 N 
ATOM      4  C   LIG    1        0.631   7.466  -0.638  0.00  0.00    +0.260 C 
ATOM      5  C   LIG    1        0.713   5.999  -1.118  0.00  0.00    +0.090 C 
ATOM      6  C   LIG    1        0.019   5.230   0.018  0.00  0.00    -0.070 C 
ATOM      7  C   LIG    1       -1.466   5.160  -0.180  0.00  0.00    +0.540 C 
ATOM      8  N   LIG    1       -1.788   3.851  -0.210  0.00  0.00    -0.660 N 
ATOM      9  H   LIG    1       -2.691   3.518  -0.328  0.00  0.00    +0.420 HD
ATOM     10  C   LIG    1       -0.668   3.031  -0.053  0.00  0.00    +0.150 A 
ATOM     11  C   LIG    1       -0.552   1.643  -0.033  0.00  0.00    -0.010 A 
ATOM     12  C   LIG    1        0.682   1.052   0.146  0.00  0.00    +0.050 A 
ATOM     13  C   LIG    1        1.814   1.831   0.294  0.00  0.00    -0.010 A 
ATOM     14  C   LIG    1        1.710   3.211   0.268  0.00  0.00    +0.070 A 
ATOM     15  O   LIG    1       -2.228   6.098  -0.290  0.00  0.00    -0.480 OA
ATOM     16  C   LIG    1        0.481   3.806   0.095  0.00  0.00    -0.130 A 
ATOM     17  C   LIG    1        0.400   6.033   1.269  0.00  0.00    +0.320 C 
ENDROOT
BRANCH   2  18
ATOM     18  C   LIG    1        0.447   9.872   1.048  0.00  0.00    -0.130 A 
ATOM     19  C   LIG    1        1.514  10.167   0.209  0.00  0.00    +0.090 A 
ATOM     20  C   LIG    1        1.662  11.438  -0.326  0.00  0.00    -0.020 A 
ATOM     21  C   LIG    1        0.775  12.448  -0.041  0.00  0.00    +0.140 A 
ATOM     22  C   LIG    1       -0.324  12.216   0.808  0.00  0.00    -0.090 A 
ATOM     23  C   LIG    1       -1.240  13.236   1.111  0.00  0.00    +0.040 A 
ATOM     24  C   LIG    1       -2.292  12.974   1.936  0.00  0.00    +0.020 A 
ATOM     25  C   LIG    1       -2.473  11.708   2.486  0.00  0.00    +0.030 A 
ATOM     26  C   LIG    1       -1.602  10.695   2.212  0.00  0.00    +0.040 A 
ATOM     27  F   LIG    1        0.960  13.674  -0.580  0.00  0.00    -0.130 F 
ATOM     28  C   LIG    1       -0.511  10.929   1.368  0.00  0.00    +0.010 A 
ENDBRANCH   2  18
TORSDOF 1
