REMARK  Name = ZINCrH000004joFC.0
REMARK                            x       y       z     vdW  Elec       q    Type
REMARK                         _______ _______ _______ _____ _____    ______ ____
ROOT
ATOM      1  C   LIG    1       -0.013   1.086   0.008  0.00  0.00    +0.000 C 
ATOM      2  C   LIG    1        1.423   1.615  -0.003  0.00  0.00    +0.100 C 
ENDROOT
BRANCH   1   3
ATOM      3  C   LIG    1       -0.742   1.585  -1.213  0.00  0.00    +0.420 C 
ATOM      4  O   LIG    1       -1.419   2.589  -1.147  0.00  0.00    -0.430 OA
BRANCH   3   5
ATOM      5  C   LIG    1       -0.632   0.856  -2.483  0.00  0.00    -0.160 A 
ATOM      6  C   LIG    1        0.150  -0.303  -2.562  0.00  0.00    +0.090 A 
ATOM      7  C   LIG    1        0.252  -0.987  -3.753  0.00  0.00    +0.030 A 
ATOM      8  C   LIG    1       -0.418  -0.530  -4.878  0.00  0.00    +0.120 A 
ATOM      9  O   LIG    1       -0.324  -1.200  -6.056  0.00  0.00    -0.300 OA
ATOM     10  C   LIG    1       -1.477  -1.179  -6.901  0.00  0.00    +0.310 C 
ATOM     11  C   LIG    1       -2.007   0.229  -7.003  0.00  0.00    +0.490 C 
ATOM     12  N   LIG    1       -1.868   1.073  -5.958  0.00  0.00    -0.660 N 
ATOM     13  H   LIG    1       -2.225   1.974  -6.002  0.00  0.00    +0.420 HD
ATOM     14  O   LIG    1       -2.554   0.602  -8.019  0.00  0.00    -0.500 OA
ATOM     15  C   LIG    1       -1.200   0.627  -4.808  0.00  0.00    +0.080 A 
ATOM     16  C   LIG    1       -1.313   1.315  -3.618  0.00  0.00    +0.090 A 
ENDBRANCH   3   5
ENDBRANCH   1   3
BRANCH   1  17
ATOM     17  S   LIG    1       -0.860   1.669   1.497  0.00  0.00    +0.040 S 
BRANCH  17  26
ATOM     18  N   LIG    1       -0.132   0.928   4.078  0.00  0.00    -0.470 N 
ATOM     19  C   LIG    1        0.816   0.132   4.700  0.00  0.00    +0.060 A 
ATOM     20  C   LIG    1        1.096  -0.174   6.022  0.00  0.00    +0.010 A 
ATOM     21  C   LIG    1        2.139  -1.026   6.324  0.00  0.00    +0.030 A 
ATOM     22  C   LIG    1        2.910  -1.578   5.313  0.00  0.00    +0.010 A 
ATOM     23  C   LIG    1        2.647  -1.285   3.994  0.00  0.00    +0.060 A 
ATOM     24  C   LIG    1        1.594  -0.425   3.671  0.00  0.00    +0.060 A 
ATOM     25  N   LIG    1        1.095   0.039   2.495  0.00  0.00    -0.490 NA
ATOM     26  C   LIG    1        0.084   0.839   2.732  0.00  0.00    +0.250 A 
BRANCH  18  28
ATOM     27  C   LIG    1       -2.435   0.866   4.900  0.00  0.00    +0.040 C 
ATOM     28  C   LIG    1       -1.174   1.717   4.740  0.00  0.00    +0.300 C 
ENDBRANCH  18  28
ENDBRANCH  17  26
ENDBRANCH   1  17
TORSDOF 5
