REMARK  Name = ZINCrD000000CNHA.0
REMARK                            x       y       z     vdW  Elec       q    Type
REMARK                         _______ _______ _______ _____ _____    ______ ____
ROOT
ATOM      1  C   LIG    1       -4.946   3.700   0.063  0.00  0.00    +0.570 C 
ATOM      2  N   LIG    1       -6.048   3.084   0.537  0.00  0.00    -0.610 N 
ATOM      3  C   LIG    1       -5.978   1.704   1.035  0.00  0.00    +0.280 C 
ATOM      4  C   LIG    1       -7.030   0.862   0.316  0.00  0.00    +0.040 C 
ATOM      5  C   LIG    1       -8.403   1.520   0.474  0.00  0.00    -0.030 C 
ATOM      6  C   LIG    1       -8.380   2.912  -0.161  0.00  0.00    +0.040 C 
ATOM      7  C   LIG    1       -7.342   3.780   0.559  0.00  0.00    +0.280 C 
ATOM      8  O   LIG    1       -3.905   3.081  -0.048  0.00  0.00    -0.530 OA
ENDROOT
BRANCH   1  15
ATOM      9  O   LIG    1       -4.836  10.708  -2.932  0.00  0.00    -0.520 OA
ATOM     10  C   LIG    1       -4.797   9.532  -2.639  0.00  0.00    +0.520 C 
ATOM     11  C   LIG    1       -4.342   8.526  -3.662  0.00  0.00    +0.080 C 
ATOM     12  C   LIG    1       -3.561   7.404  -2.975  0.00  0.00    +0.110 C 
ATOM     13  C   LIG    1       -4.337   6.909  -1.783  0.00  0.00    -0.130 A 
ATOM     14  C   LIG    1       -4.282   5.580  -1.428  0.00  0.00    +0.120 A 
ATOM     15  C   LIG    1       -5.003   5.123  -0.321  0.00  0.00    -0.150 A 
ATOM     16  C   LIG    1       -5.778   6.019   0.421  0.00  0.00    +0.080 A 
ATOM     17  C   LIG    1       -5.829   7.346   0.061  0.00  0.00    -0.020 A 
ATOM     18  C   LIG    1       -5.105   7.799  -1.040  0.00  0.00    +0.190 A 
ATOM     19  N   LIG    1       -5.162   9.143  -1.404  0.00  0.00    -0.660 N 
ATOM     20  H   LIG    1       -5.463   9.803  -0.761  0.00  0.00    +0.410 HD
ENDBRANCH   1  15
BRANCH   5  21
ATOM     21  C   LIG    1       -9.447   0.674  -0.209  0.00  0.00    +0.400 C 
ATOM     22  O   LIG    1       -9.715   0.867  -1.376  0.00  0.00    -0.450 OA
BRANCH  21  23
ATOM     23  C   LIG    1      -10.140  -0.386   0.540  0.00  0.00    -0.170 A 
ATOM     24  C   LIG    1       -9.829  -0.616   1.884  0.00  0.00    +0.060 A 
ATOM     25  C   LIG    1      -10.486  -1.608   2.580  0.00  0.00    +0.000 A 
ATOM     26  C   LIG    1      -11.445  -2.383   1.949  0.00  0.00    +0.040 A 
ATOM     27  C   LIG    1      -11.754  -2.165   0.618  0.00  0.00    +0.000 A 
ATOM     28  C   LIG    1      -11.109  -1.173  -0.090  0.00  0.00    +0.070 A 
ENDBRANCH  21  23
ENDBRANCH   5  21
TORSDOF 3
