REMARK  Name = ZINCrD000000DfrB.0
REMARK                            x       y       z     vdW  Elec       q    Type
REMARK                         _______ _______ _______ _____ _____    ______ ____
ROOT
ATOM      1  C   LIG    1       -2.651   3.882  -3.204  0.00  0.00    +0.380 C 
ENDROOT
BRANCH   1   2
ATOM      2  C   LIG    1       -1.998   4.308  -4.493  0.00  0.00    -0.160 A 
ATOM      3  C   LIG    1       -1.040   5.305  -4.484  0.00  0.00    +0.080 A 
ATOM      4  C   LIG    1       -0.435   5.694  -5.664  0.00  0.00    -0.080 A 
ATOM      5  C   LIG    1       -0.797   5.090  -6.860  0.00  0.00    +0.150 A 
ATOM      6  C   LIG    1       -1.763   4.094  -6.866  0.00  0.00    -0.010 A 
ATOM      7  C   LIG    1       -2.361   3.705  -5.683  0.00  0.00    +0.100 A 
BRANCH   5   8
ATOM      8  O   LIG    1       -0.208   5.475  -8.022  0.00  0.00    -0.310 OA
BRANCH   8   9
ATOM      9  C   LIG    1        0.778   6.506  -7.940  0.00  0.00    +0.260 C 
BRANCH   9  10
ATOM     10  C   LIG    1        1.317   6.797  -9.317  0.00  0.00    -0.050 A 
ATOM     11  C   LIG    1        2.421   6.116  -9.805  0.00  0.00    -0.010 A 
ATOM     12  C   LIG    1        2.884   6.407 -11.074  0.00  0.00    +0.260 A 
ATOM     13  N   LIG    1        2.295   7.326 -11.814  0.00  0.00    -0.480 NA
ATOM     14  C   LIG    1        1.245   7.997 -11.380  0.00  0.00    +0.260 A 
ATOM     15  C   LIG    1        0.723   7.756 -10.123  0.00  0.00    -0.010 A 
ENDBRANCH   9  10
ENDBRANCH   8   9
ENDBRANCH   5   8
ENDBRANCH   1   2
BRANCH   1  18
ATOM     16  C   LIG    1       -0.742   1.585  -1.213  0.00  0.00    -0.010 A 
ATOM     17  C   LIG    1       -1.379   2.772  -1.347  0.00  0.00    +0.160 A 
ATOM     18  N   LIG    1       -1.881   2.790  -2.603  0.00  0.00    -0.290 N 
ATOM     19  N   LIG    1       -1.571   1.681  -3.178  0.00  0.00    -0.080 NA
ATOM     20  N   LIG    1       -0.891   0.940  -2.375  0.00  0.00    -0.270 NA
BRANCH  16  26
ATOM     21  C   LIG    1        1.423   1.615  -0.003  0.00  0.00    +0.180 C 
ATOM     22  C   LIG    1        2.163   1.109   1.237  0.00  0.00    -0.010 C 
ATOM     23  C   LIG    1        1.446   1.602   2.495  0.00  0.00    +0.010 C 
ATOM     24  C   LIG    1        0.011   1.072   2.506  0.00  0.00    +0.010 C 
ATOM     25  C   LIG    1       -0.729   1.579   1.267  0.00  0.00    +0.020 C 
ATOM     26  C   LIG    1       -0.013   1.086   0.008  0.00  0.00    +0.110 C 
BRANCH  21  27
ATOM     27  O   LIG    1        1.403   3.044   0.005  0.00  0.00    -0.560 OA
ATOM     28  H   LIG    1        2.281   3.450  -0.001  0.00  0.00    +0.380 HD
ENDBRANCH  21  27
ENDBRANCH  16  26
ENDBRANCH   1  18
TORSDOF 7
