REMARK  Name = ZINCpk00001AZj1X.0
REMARK                            x       y       z     vdW  Elec       q    Type
REMARK                         _______ _______ _______ _____ _____    ______ ____
ROOT
ATOM      1  C   LIG    1        3.581  -0.336  -7.351  0.00  0.00    +0.090 C 
ATOM      2  C   LIG    1        4.865  -0.036  -6.622  0.00  0.00    +0.530 C 
ATOM      3  N   LIG    1        4.903   0.947  -5.700  0.00  0.00    -0.640 N 
ATOM      4  C   LIG    1        3.940   1.969  -5.239  0.00  0.00    +0.290 C 
ATOM      5  C   LIG    1        4.749   1.981  -3.946  0.00  0.00    -0.090 C 
ATOM      6  C   LIG    1        4.958   3.353  -3.290  0.00  0.00    +0.030 C 
ATOM      7  C   LIG    1        3.795   3.467  -2.280  0.00  0.00    +0.180 C 
ATOM      8  C   LIG    1        3.331   2.030  -1.976  0.00  0.00    +0.140 C 
ATOM      9  C   LIG    1        4.227   1.088  -2.812  0.00  0.00    +0.080 C 
ATOM     10  C   LIG    1        5.925   1.432  -4.748  0.00  0.00    +0.250 C 
ATOM     11  O   LIG    1        5.865  -0.678  -6.865  0.00  0.00    -0.540 OA
ENDROOT
BRANCH   8  12
ATOM     12  N   LIG    1        3.495   1.741  -0.545  0.00  0.00    -0.520 NA
ATOM     13  C   LIG    1        2.679   2.649   0.273  0.00  0.00    +0.230 C 
ATOM     14  C   LIG    1        1.222   2.607  -0.207  0.00  0.00    +0.250 C 
ATOM     15  N   LIG    1        0.812   1.204  -0.306  0.00  0.00    -0.460 N 
ATOM     16  C   LIG    1       -0.445   0.690  -0.391  0.00  0.00    +0.120 A 
ATOM     17  C   LIG    1       -0.310  -0.651  -0.456  0.00  0.00    -0.000 A 
ATOM     18  N   LIG    1        1.001  -0.941  -0.412  0.00  0.00    -0.480 NA
ATOM     19  C   LIG    1       -1.434  -1.649  -0.560  0.00  0.00    +0.140 C 
ATOM     20  C   LIG    1        1.680   0.163  -0.324  0.00  0.00    +0.170 A 
ATOM     21  C   LIG    1        3.179   0.332  -0.252  0.00  0.00    +0.360 C 
ENDBRANCH   8  12
BRANCH  10  22
ATOM     22  C   LIG    1        6.689   0.313  -4.038  0.00  0.00    -0.020 C 
ATOM     23  C   LIG    1        7.271   0.845  -2.727  0.00  0.00    +0.030 C 
ATOM     24  C   LIG    1        7.825  -0.179  -4.937  0.00  0.00    +0.030 C 
ENDBRANCH  10  22
BRANCH   7  25
ATOM     25  O   LIG    1        2.721   4.217  -2.851  0.00  0.00    -0.570 OA
ATOM     26  H   LIG    1        2.951   5.131  -3.065  0.00  0.00    +0.380 HD
ENDBRANCH   7  25
TORSDOF 3
