REMARK  Name = ZINCpk00000Fdx2r.1
REMARK                            x       y       z     vdW  Elec       q    Type
REMARK                         _______ _______ _______ _____ _____    ______ ____
ROOT
ATOM      1  C   LIG    1       -3.515   6.437   0.344  0.00  0.00    +0.290 C 
ATOM      2  C   LIG    1       -2.153   5.740   0.282  0.00  0.00    +0.170 C 
ATOM      3  N   LIG    1       -2.354   4.304   0.037  0.00  0.00    -0.530 NA
ATOM      4  C   LIG    1       -3.089   4.088  -1.218  0.00  0.00    +0.150 C 
ATOM      5  C   LIG    1       -4.441   4.802  -1.142  0.00  0.00    +0.250 C 
ATOM      6  O   LIG    1       -4.227   6.190  -0.872  0.00  0.00    -0.370 OA
ENDROOT
BRANCH   1  10
ATOM      7  C   LIG    1       -3.330  10.961   2.482  0.00  0.00    +0.200 C 
ATOM      8  C   LIG    1       -3.237   9.868   1.449  0.00  0.00    +0.290 A 
ATOM      9  N   LIG    1       -3.506   8.602   1.644  0.00  0.00    -0.530 NA
ATOM     10  C   LIG    1       -3.313   7.921   0.516  0.00  0.00    +0.230 A 
ATOM     11  N   LIG    1       -2.925   8.748  -0.419  0.00  0.00    -0.290 NA
ATOM     12  N   LIG    1       -2.869  10.024   0.166  0.00  0.00    -0.480 N 
ATOM     13  H   LIG    1       -2.615  10.852  -0.269  0.00  0.00    +0.440 HD
ENDBRANCH   1  10
BRANCH   3  14
ATOM     14  C   LIG    1       -1.072   3.587   0.027  0.00  0.00    +0.210 C 
BRANCH  14  15
ATOM     15  C   LIG    1       -1.331   2.079   0.020  0.00  0.00    +0.070 C 
BRANCH  15  16
ATOM     16  C   LIG    1       -0.016   1.344   0.009  0.00  0.00    +0.530 C 
ATOM     17  N   LIG    1        0.002  -0.004   0.002  0.00  0.00    -0.550 N 
ATOM     18  C   LIG    1        1.214  -0.828  -0.014  0.00  0.00    +0.270 C 
ATOM     19  C   LIG    1        0.714  -2.281  -0.016  0.00  0.00    +0.090 C 
ATOM     20  C   LIG    1       -0.794  -2.165  -0.001  0.00  0.00    -0.130 A 
ATOM     21  C   LIG    1       -1.777  -3.135   0.004  0.00  0.00    +0.060 A 
ATOM     22  C   LIG    1       -3.111  -2.772   0.033  0.00  0.00    -0.010 A 
ATOM     23  C   LIG    1       -3.459  -1.434   0.045  0.00  0.00    +0.040 A 
ATOM     24  C   LIG    1       -2.481  -0.462   0.036  0.00  0.00    -0.020 A 
ATOM     25  C   LIG    1       -1.133  -0.821   0.015  0.00  0.00    +0.140 A 
ATOM     26  O   LIG    1        1.026   1.964   0.003  0.00  0.00    -0.520 OA
ENDBRANCH  15  16
ENDBRANCH  14  15
ENDBRANCH   3  14
TORSDOF 4
