REMARK  Name = ZINCpk00000Fdx2r.0
REMARK                            x       y       z     vdW  Elec       q    Type
REMARK                         _______ _______ _______ _____ _____    ______ ____
ROOT
ATOM      1  C   LIG    1        0.639  -4.441  -1.174  0.00  0.00    +0.290 C 
ATOM      2  C   LIG    1       -0.420  -3.336  -1.170  0.00  0.00    +0.190 C 
ATOM      3  N   LIG    1       -1.303  -3.514  -0.008  0.00  0.00    -0.530 NA
ATOM      4  C   LIG    1       -0.532  -3.478   1.243  0.00  0.00    +0.160 C 
ATOM      5  C   LIG    1        0.528  -4.582   1.215  0.00  0.00    +0.250 C 
ATOM      6  O   LIG    1        1.357  -4.410   0.062  0.00  0.00    -0.390 OA
ENDROOT
BRANCH   1  11
ATOM      7  C   LIG    1        4.822  -3.740  -3.918  0.00  0.00    +0.200 C 
ATOM      8  C   LIG    1        3.387  -3.918  -3.493  0.00  0.00    +0.180 A 
ATOM      9  N   LIG    1        2.342  -3.914  -4.276  0.00  0.00    -0.290 NA
ATOM     10  N   LIG    1        1.278  -4.093  -3.577  0.00  0.00    -0.280 NA
ATOM     11  C   LIG    1        1.595  -4.219  -2.317  0.00  0.00    +0.180 A 
ATOM     12  N   LIG    1        2.942  -4.107  -2.227  0.00  0.00    -0.560 N 
ATOM     13  H   LIG    1        3.479  -4.154  -1.421  0.00  0.00    +0.430 HD
ENDBRANCH   1  11
BRANCH   3  14
ATOM     14  C   LIG    1       -2.371  -2.505   0.002  0.00  0.00    +0.250 C 
BRANCH  14  15
ATOM     15  C   LIG    1       -1.750  -1.107   0.006  0.00  0.00    +0.010 C 
BRANCH  15  16
ATOM     16  C   LIG    1       -2.845  -0.071   0.016  0.00  0.00    +0.530 C 
ATOM     17  N   LIG    1       -2.533   1.240   0.021  0.00  0.00    -0.550 N 
ATOM     18  C   LIG    1       -3.506   2.335   0.032  0.00  0.00    +0.280 C 
ATOM     19  C   LIG    1       -2.665   3.622   0.044  0.00  0.00    +0.090 C 
ATOM     20  C   LIG    1       -1.232   3.140   0.029  0.00  0.00    -0.130 A 
ATOM     21  C   LIG    1       -0.041   3.840   0.022  0.00  0.00    +0.060 A 
ATOM     22  C   LIG    1        1.164   3.161   0.007  0.00  0.00    -0.010 A 
ATOM     23  C   LIG    1        1.174   1.778   0.000  0.00  0.00    +0.040 A 
ATOM     24  C   LIG    1       -0.013   1.076   0.008  0.00  0.00    -0.030 A 
ATOM     25  C   LIG    1       -1.232   1.754   0.017  0.00  0.00    +0.140 A 
ATOM     26  O   LIG    1       -4.007  -0.418   0.019  0.00  0.00    -0.510 OA
ENDBRANCH  15  16
ENDBRANCH  14  15
ENDBRANCH   3  14
TORSDOF 4
