REMARK  Name = ZINCrD0000075RXN.0
REMARK                            x       y       z     vdW  Elec       q    Type
REMARK                         _______ _______ _______ _____ _____    ______ ____
ROOT
ATOM      1  O   LIG    1        7.479   3.037  -0.152  0.00  0.00    -0.480 OA
ATOM      2  C   LIG    1        8.157   2.036  -0.167  0.00  0.00    +0.490 C 
ENDROOT
BRANCH   2   3
ATOM      3  C   LIG    1        9.654   2.142  -0.301  0.00  0.00    +0.000 C 
ATOM      4  C   LIG    1       10.428   2.737   0.876  0.00  0.00    +0.100 C 
ATOM      5  C   LIG    1       10.256   3.544  -0.413  0.00  0.00    +0.060 C 
BRANCH   5   6
ATOM      6  C   LIG    1       11.466   3.714  -1.295  0.00  0.00    -0.030 A 
ATOM      7  C   LIG    1       12.624   3.012  -1.021  0.00  0.00    +0.020 A 
ATOM      8  C   LIG    1       13.733   3.164  -1.833  0.00  0.00    +0.070 A 
ATOM      9  C   LIG    1       13.685   4.026  -2.913  0.00  0.00    -0.180 A 
ATOM     10  C   LIG    1       12.528   4.731  -3.184  0.00  0.00    +0.070 A 
ATOM     11  C   LIG    1       11.418   4.576  -2.375  0.00  0.00    +0.030 A 
BRANCH   9  12
ATOM     12  C   LIG    1       14.896   4.196  -3.795  0.00  0.00    +0.510 C 
ATOM     13  F   LIG    1       14.485   4.503  -5.097  0.00  0.00    -0.180 F 
ATOM     14  F   LIG    1       15.634   3.007  -3.808  0.00  0.00    -0.180 F 
ATOM     15  F   LIG    1       15.691   5.234  -3.300  0.00  0.00    -0.180 F 
ENDBRANCH   9  12
ENDBRANCH   5   6
ENDBRANCH   2   3
BRANCH   2  16
ATOM     16  O   LIG    1        7.575   0.830  -0.064  0.00  0.00    -0.280 OA
BRANCH  16  17
ATOM     17  C   LIG    1        6.216   0.798  -0.067  0.00  0.00    +0.090 A 
ATOM     18  C   LIG    1        5.518   1.112  -1.224  0.00  0.00    +0.040 A 
ATOM     19  C   LIG    1        4.138   1.080  -1.228  0.00  0.00    +0.070 A 
ATOM     20  C   LIG    1        3.449   0.733  -0.074  0.00  0.00    +0.130 A 
ATOM     21  C   LIG    1        4.148   0.424   1.085  0.00  0.00    +0.050 A 
ATOM     22  C   LIG    1        5.528   0.451   1.087  0.00  0.00    +0.060 A 
BRANCH  20  23
ATOM     23  N   LIG    1        2.046   0.700  -0.077  0.00  0.00    -0.330 N 
ATOM     24  C   LIG    1        1.231   0.385   0.952  0.00  0.00    +0.470 A 
ATOM     25  N   LIG    1        0.001   0.480   0.517  0.00  0.00    -0.330 NA
ATOM     26  N   LIG    1       -0.016   0.833  -0.718  0.00  0.00    -0.030 NA
ATOM     27  N   LIG    1        1.188   0.987  -1.153  0.00  0.00    -0.070 NA
ENDBRANCH  20  23
ENDBRANCH  16  17
ENDBRANCH   2  16
TORSDOF 6
