REMARK  Name = ZINCpk00000y6up0.0
REMARK                            x       y       z     vdW  Elec       q    Type
REMARK                         _______ _______ _______ _____ _____    ______ ____
ROOT
ATOM      1  C   LIG    1        1.157   3.596  -0.001  0.00  0.00    +0.220 C 
ATOM      2  C   LIG    1        0.742   4.098   1.398  0.00  0.00    +0.050 C 
ATOM      3  C   LIG    1       -0.164   5.316   1.077  0.00  0.00    +0.170 C 
ATOM      4  C   LIG    1       -0.879   4.843  -0.213  0.00  0.00    +0.170 C 
ATOM      5  N   LIG    1        0.148   4.086  -0.959  0.00  0.00    -0.490 NA
ENDROOT
BRANCH   1  10
ATOM      6  C   LIG    1        0.119  -0.016   0.390  0.00  0.00    +0.130 A 
ATOM      7  C   LIG    1        1.258  -0.677  -0.047  0.00  0.00    -0.080 A 
ATOM      8  C   LIG    1        2.357   0.046  -0.466  0.00  0.00    +0.060 A 
ATOM      9  C   LIG    1        2.324   1.428  -0.451  0.00  0.00    -0.010 A 
ATOM     10  C   LIG    1        1.190   2.090  -0.017  0.00  0.00    -0.060 A 
ATOM     11  C   LIG    1        0.088   1.371   0.404  0.00  0.00    -0.020 A 
BRANCH   6  13
ATOM     12  C   LIG    1       -0.861  -2.150   0.761  0.00  0.00    +0.250 C 
ATOM     13  O   LIG    1       -0.964  -0.725   0.803  0.00  0.00    -0.320 OA
ENDBRANCH   6  13
ENDBRANCH   1  10
BRANCH   3  14
ATOM     14  O   LIG    1       -1.104   5.546   2.128  0.00  0.00    -0.560 OA
ATOM     15  H   LIG    1       -1.754   6.235   1.932  0.00  0.00    +0.380 HD
ENDBRANCH   3  14
BRANCH   5  16
ATOM     16  C   LIG    1       -0.455   2.972  -1.703  0.00  0.00    +0.220 C 
BRANCH  16  17
ATOM     17  C   LIG    1       -1.177   3.509  -2.912  0.00  0.00    +0.520 C 
ATOM     18  N   LIG    1       -1.810   2.663  -3.749  0.00  0.00    -0.650 N 
ATOM     19  H   LIG    1       -1.801   1.710  -3.573  0.00  0.00    +0.410 HD
ATOM     20  O   LIG    1       -1.188   4.702  -3.132  0.00  0.00    -0.480 OA
BRANCH  18  21
ATOM     21  C   LIG    1       -2.478   3.160  -4.868  0.00  0.00    +0.310 A 
ATOM     22  C   LIG    1       -2.571   4.468  -5.235  0.00  0.00    -0.110 A 
ATOM     23  C   LIG    1       -3.323   4.530  -6.411  0.00  0.00    +0.090 A 
ATOM     24  N   LIG    1       -3.671   3.313  -6.741  0.00  0.00    -0.290 NA
ATOM     25  C   LIG    1       -3.675   5.784  -7.168  0.00  0.00    +0.160 C 
ATOM     26  N   LIG    1       -3.147   2.429  -5.789  0.00  0.00    -0.390 N 
ATOM     27  C   LIG    1       -3.299   0.972  -5.789  0.00  0.00    +0.350 C 
ENDBRANCH  18  21
ENDBRANCH  16  17
ENDBRANCH   5  16
TORSDOF 6
