REMARK  Name = ZINCvU0000000AQg.0
REMARK                            x       y       z     vdW  Elec       q    Type
REMARK                         _______ _______ _______ _____ _____    ______ ____
ROOT
ATOM      1  C   LIG    1       -4.058  -0.541   0.160  0.00  0.00    +0.540 C 
ATOM      2  N   LIG    1       -5.137   0.138   0.596  0.00  0.00    -0.660 N 
ATOM      3  H   LIG    1       -5.044   1.056   0.894  0.00  0.00    +0.420 HD
ATOM      4  O   LIG    1       -4.158  -1.714  -0.134  0.00  0.00    -0.500 OA
ENDROOT
BRANCH   2   5
ATOM      5  C   LIG    1       -6.391  -0.482   0.620  0.00  0.00    +0.150 A 
ATOM      6  C   LIG    1       -7.537   0.256   0.353  0.00  0.00    -0.010 A 
ATOM      7  C   LIG    1       -8.773  -0.359   0.371  0.00  0.00    +0.050 A 
ATOM      8  C   LIG    1       -8.872  -1.706   0.667  0.00  0.00    -0.100 A 
ATOM      9  C   LIG    1       -7.734  -2.443   0.939  0.00  0.00    +0.040 A 
ATOM     10  C   LIG    1       -6.494  -1.834   0.917  0.00  0.00    +0.020 A 
BRANCH   8  11
ATOM     11  C   LIG    1      -10.223  -2.374   0.693  0.00  0.00    +0.200 C 
BRANCH  11  12
ATOM     12  C   LIG    1      -10.801  -2.284   2.081  0.00  0.00    +0.100 A 
ATOM     13  N   LIG    1      -11.532  -1.319   2.496  0.00  0.00    -0.460 NA
ATOM     14  C   LIG    1      -11.984  -1.372   3.763  0.00  0.00    +0.080 A 
ATOM     15  C   LIG    1      -12.798  -0.462   4.467  0.00  0.00    +0.070 A 
ATOM     16  C   LIG    1      -13.142  -0.703   5.763  0.00  0.00    +0.030 A 
ATOM     17  C   LIG    1      -12.699  -1.845   6.414  0.00  0.00    +0.040 A 
ATOM     18  C   LIG    1      -11.904  -2.752   5.751  0.00  0.00    +0.060 A 
ATOM     19  C   LIG    1      -11.542  -2.522   4.425  0.00  0.00    -0.180 A 
ATOM     20  S   LIG    1      -10.558  -3.453   3.300  0.00  0.00    +0.100 S 
ENDBRANCH  11  12
ENDBRANCH   8  11
ENDBRANCH   2   5
BRANCH   1  22
ATOM     21  C   LIG    1       -2.696   0.966  -1.262  0.00  0.00    +0.080 C 
ATOM     22  C   LIG    1       -2.728   0.156   0.035  0.00  0.00    +0.020 C 
BRANCH  22  23
ATOM     23  S   LIG    1       -1.401  -1.075   0.011  0.00  0.00    +0.080 S 
BRANCH  23  24
ATOM     24  C   LIG    1        0.003  -0.011   0.015  0.00  0.00    +0.140 A 
ATOM     25  N   LIG    1       -0.012   1.301   0.030  0.00  0.00    -0.290 NA
ATOM     26  N   LIG    1        1.192   1.752   0.028  0.00  0.00    -0.280 NA
ATOM     27  C   LIG    1        2.040   0.763   0.010  0.00  0.00    +0.220 A 
ATOM     28  N   LIG    1        1.313  -0.396   0.001  0.00  0.00    -0.460 N 
ATOM     29  C   LIG    1        1.833  -1.766  -0.019  0.00  0.00    +0.350 C 
BRANCH  27  30
ATOM     30  C   LIG    1        3.543   0.874   0.001  0.00  0.00    +0.040 C 
ATOM     31  C   LIG    1        4.149   2.262   0.217  0.00  0.00    +0.070 C 
ATOM     32  C   LIG    1        4.189   1.617  -1.170  0.00  0.00    +0.060 C 
ENDBRANCH  27  30
ENDBRANCH  23  24
ENDBRANCH  22  23
ENDBRANCH   1  22
TORSDOF 7
