REMARK  Name = ZINCkj000005j7t7.0
REMARK                            x       y       z     vdW  Elec       q    Type
REMARK                         _______ _______ _______ _____ _____    ______ ____
ROOT
ATOM      1  C   LIG    1       -0.153   1.329   0.202  0.00  0.00    +0.180 C 
ATOM      2  C   LIG    1       -1.500   1.738  -0.400  0.00  0.00    +0.140 C 
ATOM      3  N   LIG    1       -1.585   1.241  -1.781  0.00  0.00    -0.510 NA
ATOM      4  C   LIG    1       -0.485   1.778  -2.596  0.00  0.00    +0.160 C 
ATOM      5  C   LIG    1        0.851   1.369  -1.972  0.00  0.00    +0.250 C 
ATOM      6  O   LIG    1        0.904   1.833  -0.620  0.00  0.00    -0.390 OA
ENDROOT
BRANCH   1   8
ATOM      7  C   LIG    1        1.368   1.607   2.164  0.00  0.00    +0.100 C 
ATOM      8  C   LIG    1       -0.026   1.910   1.611  0.00  0.00    +0.190 C 
BRANCH   8   9
ATOM      9  N   LIG    1       -0.228   3.364   1.562  0.00  0.00    -0.640 N 
ATOM     10  H   LIG    1        0.469   3.780   0.962  0.00  0.00    +0.440 HD
ATOM     11  H   LIG    1       -0.144   3.747   2.491  0.00  0.00    +0.440 HD
ATOM     12  H   LIG    1       -1.148   3.564   1.197  0.00  0.00    +0.430 HD
ENDBRANCH   8   9
ENDBRANCH   1   8
BRANCH   3  13
ATOM     13  C   LIG    1       -2.888   1.563  -2.377  0.00  0.00    +0.280 C 
BRANCH  13  14
ATOM     14  C   LIG    1       -3.103   3.055  -2.340  0.00  0.00    -0.130 A 
ATOM     15  C   LIG    1       -3.719   3.634  -1.249  0.00  0.00    +0.000 A 
ATOM     16  C   LIG    1       -3.917   5.002  -1.215  0.00  0.00    +0.010 A 
ATOM     17  C   LIG    1       -3.498   5.784  -2.273  0.00  0.00    +0.020 A 
ATOM     18  C   LIG    1       -2.880   5.204  -3.370  0.00  0.00    -0.110 A 
ATOM     19  C   LIG    1       -2.443   6.090  -4.508  0.00  0.00    +0.270 C 
ATOM     20  O   LIG    1       -1.520   5.397  -5.348  0.00  0.00    -0.370 OA
ATOM     21  C   LIG    1       -1.999   4.117  -5.775  0.00  0.00    +0.220 C 
ATOM     22  C   LIG    1       -2.001   3.173  -4.571  0.00  0.00    +0.050 C 
ATOM     23  C   LIG    1       -2.675   3.840  -3.399  0.00  0.00    -0.060 A 
ENDBRANCH  13  14
ENDBRANCH   3  13
TORSDOF 4
