REMARK  Name = ZINCfA000001nUIa.1
REMARK                            x       y       z     vdW  Elec       q    Type
REMARK                         _______ _______ _______ _____ _____    ______ ____
ROOT
ATOM      1  N   LIG    1       -1.793   3.825  -1.345  0.00  0.00    -0.380 N 
ATOM      2  H   LIG    1       -2.464   4.407  -0.865  0.00  0.00    +0.420 HD
ENDROOT
BRANCH   1   4
ATOM      3  C   LIG    1       -3.392   3.825  -3.199  0.00  0.00    +0.070 C 
ATOM      4  C   LIG    1       -2.492   2.966  -2.309  0.00  0.00    +0.160 C 
ATOM      5  C   LIG    1       -1.465   2.234  -3.177  0.00  0.00    +0.090 C 
ENDBRANCH   1   4
BRANCH   1   6
ATOM      6  C   LIG    1       -1.083   2.989  -0.368  0.00  0.00    +0.290 C 
BRANCH   6   7
ATOM      7  C   LIG    1       -2.099   2.232   0.490  0.00  0.00    -0.080 C 
ATOM      8  C   LIG    1       -2.213   2.627   1.964  0.00  0.00    +0.060 C 
ATOM      9  C   LIG    1       -1.554   1.303   1.576  0.00  0.00    +0.000 C 
ATOM     10  C   LIG    1       -0.035   1.200   1.721  0.00  0.00    +0.070 C 
ENDBRANCH   6   7
ENDBRANCH   1   6
BRANCH   1  11
ATOM     11  C   LIG    1       -0.828   4.675  -2.055  0.00  0.00    +0.370 C 
BRANCH  11  12
ATOM     12  C   LIG    1       -1.569   5.647  -2.937  0.00  0.00    -0.320 A 
ATOM     13  C   LIG    1       -2.386   6.620  -2.523  0.00  0.00    +0.270 A 
ATOM     14  N   LIG    1       -2.915   7.338  -3.493  0.00  0.00    -0.470 NA
ATOM     15  C   LIG    1       -2.590   7.026  -4.702  0.00  0.00    +0.270 A 
ATOM     16  S   LIG    1       -1.504   5.706  -4.697  0.00  0.00    +0.190 S 
ENDBRANCH  11  12
ENDBRANCH   1  11
TORSDOF 5
