REMARK  Name = ZINCfA000001nUIa.0
REMARK                            x       y       z     vdW  Elec       q    Type
REMARK                         _______ _______ _______ _____ _____    ______ ____
ROOT
ATOM      1  N   LIG    1       -2.122   0.942  -3.164  0.00  0.00    -0.380 N 
ATOM      2  H   LIG    1       -2.232   1.773  -3.726  0.00  0.00    +0.420 HD
ENDROOT
BRANCH   1   4
ATOM      3  C   LIG    1        0.235   1.542  -2.884  0.00  0.00    +0.090 C 
ATOM      4  C   LIG    1       -0.747   0.443  -3.293  0.00  0.00    +0.150 C 
ATOM      5  C   LIG    1       -0.558  -0.774  -2.384  0.00  0.00    +0.100 C 
ENDBRANCH   1   4
BRANCH   1   6
ATOM      6  C   LIG    1       -2.397   1.262  -1.757  0.00  0.00    +0.290 C 
BRANCH   6   7
ATOM      7  C   LIG    1       -1.571   2.481  -1.341  0.00  0.00    -0.070 C 
ATOM      8  C   LIG    1       -0.864   2.425   0.015  0.00  0.00    +0.060 C 
ATOM      9  C   LIG    1       -2.091   3.320  -0.171  0.00  0.00    -0.010 C 
ATOM     10  C   LIG    1       -3.396   2.877   0.493  0.00  0.00    +0.060 C 
ENDBRANCH   6   7
ENDBRANCH   1   6
BRANCH   1  11
ATOM     11  C   LIG    1       -3.062  -0.089  -3.625  0.00  0.00    +0.370 C 
BRANCH  11  12
ATOM     12  C   LIG    1       -2.926  -0.263  -5.116  0.00  0.00    -0.330 A 
ATOM     13  C   LIG    1       -2.188  -1.190  -5.734  0.00  0.00    +0.280 A 
ATOM     14  N   LIG    1       -2.234  -1.136  -7.051  0.00  0.00    -0.470 NA
ATOM     15  C   LIG    1       -2.969  -0.214  -7.576  0.00  0.00    +0.280 A 
ATOM     16  S   LIG    1       -3.716   0.714  -6.350  0.00  0.00    +0.180 S 
ENDBRANCH  11  12
ENDBRANCH   1  11
TORSDOF 5
