REMARK  Name = ZINCtV000002AWmP.0
REMARK                            x       y       z     vdW  Elec       q    Type
REMARK                         _______ _______ _______ _____ _____    ______ ____
ROOT
ATOM      1  C   LIG    1        0.090  -6.306  -1.476  0.00  0.00    -0.070 C 
ATOM      2  C   LIG    1       -1.142  -6.831  -0.737  0.00  0.00    +0.040 C 
ATOM      3  C   LIG    1       -1.122  -6.328   0.708  0.00  0.00    +0.000 C 
ATOM      4  C   LIG    1        0.143  -6.830   1.406  0.00  0.00    +0.030 C 
ATOM      5  C   LIG    1        1.376  -6.306   0.666  0.00  0.00    +0.000 C 
ATOM      6  C   LIG    1        1.362  -4.776   0.674  0.00  0.00    +0.040 C 
ATOM      7  C   LIG    1        0.097  -4.274  -0.024  0.00  0.00    -0.010 C 
ATOM      8  C   LIG    1       -1.136  -4.798   0.716  0.00  0.00    +0.040 C 
ATOM      9  C   LIG    1        0.077  -4.777  -1.468  0.00  0.00    +0.060 C 
ATOM     10  C   LIG    1        1.356  -6.809  -0.778  0.00  0.00    +0.040 C 
ENDROOT
BRANCH   7  11
ATOM     11  C   LIG    1        0.084  -2.767  -0.016  0.00  0.00    -0.080 A 
ATOM     12  C   LIG    1        0.098  -2.081   1.184  0.00  0.00    +0.010 A 
ATOM     13  C   LIG    1        0.085  -0.699   1.191  0.00  0.00    +0.000 A 
ATOM     14  C   LIG    1        0.059  -0.002  -0.002  0.00  0.00    -0.090 A 
ATOM     15  C   LIG    1        0.039  -0.687  -1.203  0.00  0.00    +0.000 A 
ATOM     16  C   LIG    1        0.044   1.505   0.005  0.00  0.00    +0.090 C 
ATOM     17  C   LIG    1        0.057  -2.070  -1.210  0.00  0.00    +0.010 A 
ENDBRANCH   7  11
BRANCH   1  20
ATOM     18  N   LIG    1        0.079  -8.126  -3.152  0.00  0.00    -0.660 N 
ATOM     19  H   LIG    1        0.162  -8.758  -2.422  0.00  0.00    +0.420 HD
ATOM     20  C   LIG    1        0.071  -6.802  -2.899  0.00  0.00    +0.520 C 
ATOM     21  O   LIG    1        0.049  -6.009  -3.817  0.00  0.00    -0.520 OA
BRANCH  18  28
ATOM     22  C   LIG    1       -0.715  -9.773  -4.739  0.00  0.00    +0.110 A 
ATOM     23  C   LIG    1       -0.827 -10.223  -6.044  0.00  0.00    -0.040 A 
ATOM     24  C   LIG    1       -0.255  -9.502  -7.076  0.00  0.00    +0.060 A 
ATOM     25  C   LIG    1        0.426  -8.328  -6.810  0.00  0.00    -0.050 A 
ATOM     26  C   LIG    1        0.538  -7.869  -5.510  0.00  0.00    +0.080 A 
ATOM     27 CL   LIG    1        1.142  -7.428  -8.111  0.00  0.00    -0.060 Cl
ATOM     28  C   LIG    1       -0.034  -8.588  -4.470  0.00  0.00    +0.130 A 
BRANCH  22  30
ATOM     29  C   LIG    1       -1.955 -11.690  -4.072  0.00  0.00    +0.250 C 
ATOM     30  O   LIG    1       -1.272 -10.484  -3.723  0.00  0.00    -0.320 OA
ENDBRANCH  22  30
ENDBRANCH  18  28
ENDBRANCH   1  20
TORSDOF 4
