REMARK  Name = ZINCnE000001Cmlj.0
REMARK                            x       y       z     vdW  Elec       q    Type
REMARK                         _______ _______ _______ _____ _____    ______ ____
ROOT
ATOM      1  C   LIG    1       -3.192  -0.175   3.344  0.00  0.00    +0.210 A 
ATOM      2  N   LIG    1       -2.613  -0.359   2.182  0.00  0.00    -0.460 NA
ATOM      3  C   LIG    1       -2.939   0.715   1.441  0.00  0.00    +0.170 A 
ATOM      4  N   LIG    1       -3.692   1.479   2.173  0.00  0.00    -0.380 NA
ATOM      5  O   LIG    1       -3.849   0.986   3.271  0.00  0.00    +0.090 OA
ENDROOT
BRANCH   1   6
ATOM      6  C   LIG    1       -3.132  -1.099   4.533  0.00  0.00    +0.240 C 
BRANCH   6   7
ATOM      7  S   LIG    1       -1.720  -0.648   5.579  0.00  0.00    +0.000 S 
BRANCH   7  12
ATOM      8  N   LIG    1       -1.273  -3.966  10.108  0.00  0.00    -0.630 NA
ATOM      9  C   LIG    1       -1.569  -3.328   9.001  0.00  0.00    +0.340 A 
ATOM     10  N   LIG    1       -2.600  -3.579   8.142  0.00  0.00    -0.510 NA
ATOM     11  N   LIG    1       -2.691  -2.756   7.042  0.00  0.00    -0.240 NA
ATOM     12  C   LIG    1       -1.812  -1.816   6.894  0.00  0.00    -0.080 A 
ATOM     13  S   LIG    1       -0.715  -1.950   8.280  0.00  0.00    -0.090 S 
BRANCH   8  14
ATOM     14  C   LIG    1       -2.099  -5.094  10.546  0.00  0.00    +0.210 C 
BRANCH  14  16
ATOM     15  C   LIG    1       -1.174  -7.099  11.588  0.00  0.00    -0.040 C 
ATOM     16  C   LIG    1       -1.280  -6.359  10.512  0.00  0.00    -0.010 C 
ENDBRANCH  14  16
ENDBRANCH   8  14
ENDBRANCH   7  12
ENDBRANCH   6   7
ENDBRANCH   1   6
BRANCH   3  17
ATOM     17  C   LIG    1       -2.514   0.980   0.019  0.00  0.00    +0.220 C 
BRANCH  17  18
ATOM     18  C   LIG    1       -1.219   1.751   0.017  0.00  0.00    -0.090 A 
ATOM     19  C   LIG    1       -0.013   1.076   0.008  0.00  0.00    +0.030 A 
ATOM     20  C   LIG    1        1.175   1.783   0.000  0.00  0.00    +0.000 A 
ATOM     21  C   LIG    1        1.156   3.165   0.008  0.00  0.00    +0.000 A 
ATOM     22  C   LIG    1       -0.050   3.840   0.022  0.00  0.00    +0.000 A 
ATOM     23  C   LIG    1       -1.238   3.133   0.030  0.00  0.00    +0.010 A 
ENDBRANCH  17  18
ENDBRANCH   3  17
TORSDOF 7
