REMARK  Name = ZINCrH000004orO6.0
REMARK                            x       y       z     vdW  Elec       q    Type
REMARK                         _______ _______ _______ _____ _____    ______ ____
ROOT
ATOM      1  C   LIG    1       -0.940   9.639  -0.707  0.00  0.00    +0.520 C 
ATOM      2  N   LIG    1       -1.923  10.561  -0.740  0.00  0.00    -0.720 N 
ATOM      3  H   LIG    1       -1.757  11.459  -0.414  0.00  0.00    +0.400 HD
ATOM      4  O   LIG    1       -1.148   8.516  -1.114  0.00  0.00    -0.500 OA
ENDROOT
BRANCH   2   5
ATOM      5  C   LIG    1       -3.243  10.205  -1.268  0.00  0.00    +0.250 C 
ATOM      6  C   LIG    1       -3.242  10.363  -2.790  0.00  0.00    +0.000 C 
ATOM      7  C   LIG    1       -4.612   9.957  -3.342  0.00  0.00    +0.280 C 
ATOM      8  N   LIG    1       -5.649  10.739  -2.655  0.00  0.00    -0.610 N 
ATOM      9  C   LIG    1       -5.683  10.730  -1.187  0.00  0.00    +0.300 C 
ATOM     10  C   LIG    1       -6.552  11.450  -3.359  0.00  0.00    +0.590 C 
ATOM     11  O   LIG    1       -7.330  12.186  -2.783  0.00  0.00    -0.530 OA
ATOM     12  C   LIG    1       -4.301  11.127  -0.659  0.00  0.00    +0.030 C 
BRANCH  10  13
ATOM     13  C   LIG    1       -6.596  11.337  -4.828  0.00  0.00    -0.230 A 
ATOM     14  C   LIG    1       -6.367  10.220  -5.576  0.00  0.00    +0.230 A 
ATOM     15  O   LIG    1       -6.509  10.539  -6.866  0.00  0.00    -0.170 OA
ATOM     16  C   LIG    1       -6.817  11.838  -7.007  0.00  0.00    +0.180 A 
ATOM     17  C   LIG    1       -6.890  12.406  -5.793  0.00  0.00    -0.010 A 
ENDBRANCH  10  13
ENDBRANCH   2   5
BRANCH   1  19
ATOM     18  C   LIG    1        0.299  10.332   1.327  0.00  0.00    +0.060 C 
ATOM     19  C   LIG    1        0.417  10.005  -0.163  0.00  0.00    +0.160 C 
BRANCH  19  20
ATOM     20  O   LIG    1        1.313   8.906  -0.340  0.00  0.00    -0.270 OA
BRANCH  20  21
ATOM     21  C   LIG    1        2.642   9.190  -0.355  0.00  0.00    +0.150 A 
ATOM     22  C   LIG    1        3.078  10.490  -0.145  0.00  0.00    -0.060 A 
ATOM     23  C   LIG    1        4.429  10.776  -0.161  0.00  0.00    +0.080 A 
ATOM     24  C   LIG    1        5.349   9.769  -0.386  0.00  0.00    +0.010 A 
ATOM     25  C   LIG    1        4.918   8.470  -0.596  0.00  0.00    +0.010 A 
ATOM     26 CL   LIG    1        6.076   7.208  -0.878  0.00  0.00    -0.040 Cl
ATOM     27  C   LIG    1        3.566   8.180  -0.586  0.00  0.00    -0.070 A 
ATOM     28 CL   LIG    1        3.025   6.552  -0.856  0.00  0.00    -0.030 Cl
ENDBRANCH  20  21
ENDBRANCH  19  20
ENDBRANCH   1  19
TORSDOF 5
