REMARK  Name = ZINCqH0000007jLY.0
REMARK                            x       y       z     vdW  Elec       q    Type
REMARK                         _______ _______ _______ _____ _____    ______ ____
ROOT
ATOM      1  N   LIG    1        0.406  -2.738   0.052  0.00  0.00    -0.720 N 
ATOM      2  H   LIG    1       -0.028  -2.307   0.805  0.00  0.00    +0.420 HD
ENDROOT
BRANCH   1   8
ATOM      3  C   LIG    1        0.593  -0.602  -1.068  0.00  0.00    +0.050 A 
ATOM      4  C   LIG    1        1.001   0.150  -2.157  0.00  0.00    -0.010 A 
ATOM      5  C   LIG    1        1.620  -0.464  -3.230  0.00  0.00    +0.000 A 
ATOM      6  C   LIG    1        1.835  -1.835  -3.219  0.00  0.00    +0.160 A 
ATOM      7  C   LIG    1        1.428  -2.593  -2.130  0.00  0.00    -0.070 A 
ATOM      8  C   LIG    1        0.812  -1.978  -1.051  0.00  0.00    +0.220 A 
BRANCH   6   9
ATOM      9  N   LIG    1        2.462  -2.455  -4.308  0.00  0.00    -0.670 N 
ATOM     10  H   LIG    1        2.212  -3.357  -4.563  0.00  0.00    +0.410 HD
ATOM     11  C   LIG    1        3.413  -1.798  -5.001  0.00  0.00    +0.510 C 
ATOM     12  O   LIG    1        3.794  -0.709  -4.625  0.00  0.00    -0.520 OA
ATOM     13  C   LIG    1        4.004  -2.416  -6.242  0.00  0.00    +0.110 C 
ENDBRANCH   6   9
BRANCH   3  15
ATOM     14  C   LIG    1       -0.202   1.419  -0.096  0.00  0.00    +0.230 C 
ATOM     15  O   LIG    1       -0.016   0.004  -0.013  0.00  0.00    -0.320 OA
ENDBRANCH   3  15
ENDBRANCH   1   8
BRANCH   1  16
ATOM     16  C   LIG    1        0.637  -4.185   0.069  0.00  0.00    +0.250 C 
ATOM     17  C   LIG    1       -0.510  -4.893  -0.655  0.00  0.00    +0.050 C 
BRANCH  16  18
ATOM     18  C   LIG    1        0.703  -4.666   1.496  0.00  0.00    +0.500 C 
ATOM     19  N   LIG    1        0.909  -5.972   1.758  0.00  0.00    -0.650 N 
ATOM     20  H   LIG    1        1.015  -6.602   1.028  0.00  0.00    +0.420 HD
ATOM     21  O   LIG    1        0.571  -3.878   2.408  0.00  0.00    -0.450 OA
BRANCH  19  22
ATOM     22  C   LIG    1        0.971  -6.417   3.078  0.00  0.00    +0.380 A 
ATOM     23  N   LIG    1        0.831  -5.551   4.069  0.00  0.00    -0.450 NA
ATOM     24  C   LIG    1        0.876  -5.931   5.332  0.00  0.00    +0.340 A 
ATOM     25  C   LIG    1        1.085  -7.255   5.667  0.00  0.00    -0.110 A 
ATOM     26  C   LIG    1        1.242  -8.195   4.657  0.00  0.00    +0.130 A 
ATOM     27 CL   LIG    1        1.149  -7.739   7.333  0.00  0.00    -0.040 Cl
ATOM     28  C   LIG    1        1.184  -7.767   3.341  0.00  0.00    -0.120 A 
ATOM     29 CL   LIG    1        1.375  -8.898   2.038  0.00  0.00    -0.040 Cl
ENDBRANCH  19  22
ENDBRANCH  16  18
ENDBRANCH   1  16
TORSDOF 6
