REMARK  Name = ZINCrD00000739Fx.0
REMARK                            x       y       z     vdW  Elec       q    Type
REMARK                         _______ _______ _______ _____ _____    ______ ____
ROOT
ATOM      1  C   LIG    1       -1.506   2.230  -0.357  0.00  0.00    +0.010 C 
ATOM      2  C   LIG    1       -1.821   3.241  -1.463  0.00  0.00    +0.030 C 
ATOM      3  C   LIG    1       -3.202   3.852  -1.206  0.00  0.00    +0.050 C 
ATOM      4  C   LIG    1       -4.246   2.734  -1.149  0.00  0.00    +0.190 C 
ATOM      5  N   LIG    1       -3.900   1.794  -0.075  0.00  0.00    -0.490 N 
ATOM      6  C   LIG    1       -2.599   1.159  -0.324  0.00  0.00    +0.230 C 
ENDROOT
BRANCH   5   7
ATOM      7  C   LIG    1       -4.896   0.839   0.091  0.00  0.00    +0.350 A 
ATOM      8  N   LIG    1       -5.183   0.011  -0.901  0.00  0.00    -0.510 NA
ATOM      9  C   LIG    1       -6.122  -0.910  -0.784  0.00  0.00    +0.310 A 
ATOM     10  C   LIG    1       -6.842  -1.042   0.386  0.00  0.00    -0.030 A 
ATOM     11  C   LIG    1       -6.571  -0.193   1.451  0.00  0.00    +0.130 A 
ATOM     12  C   LIG    1       -5.579   0.758   1.301  0.00  0.00    -0.210 A 
BRANCH  12  13
ATOM     13  C   LIG    1       -5.245   1.698   2.430  0.00  0.00    +0.530 C 
ATOM     14  F   LIG    1       -5.455   3.018   2.016  0.00  0.00    -0.170 F 
ATOM     15  F   LIG    1       -3.905   1.531   2.795  0.00  0.00    -0.170 F 
ATOM     16  F   LIG    1       -6.066   1.418   3.528  0.00  0.00    -0.180 F 
ENDBRANCH  12  13
ENDBRANCH   5   7
BRANCH   1  19
ATOM     17  N   LIG    1        0.939   2.336  -0.718  0.00  0.00    -0.720 N 
ATOM     18  H   LIG    1        0.884   3.296  -0.596  0.00  0.00    +0.400 HD
ATOM     19  C   LIG    1       -0.174   1.581  -0.634  0.00  0.00    +0.520 C 
ATOM     20  O   LIG    1       -0.105   0.380  -0.786  0.00  0.00    -0.540 OA
BRANCH  17  26
ATOM     21  C   LIG    1        3.171   2.727  -1.639  0.00  0.00    +0.150 C 
ATOM     22  C   LIG    1        4.521   2.069  -1.927  0.00  0.00    +0.010 C 
ATOM     23  C   LIG    1        5.135   1.570  -0.617  0.00  0.00    +0.010 C 
ATOM     24  C   LIG    1        4.197   0.549   0.030  0.00  0.00    +0.020 C 
ATOM     25  C   LIG    1        2.846   1.207   0.317  0.00  0.00    +0.020 C 
ATOM     26  C   LIG    1        2.233   1.705  -0.993  0.00  0.00    +0.250 C 
BRANCH  21  28
ATOM     27  C   LIG    1        2.959   4.533  -3.201  0.00  0.00    +0.200 C 
ATOM     28  O   LIG    1        2.598   3.192  -2.863  0.00  0.00    -0.380 OA
ENDBRANCH  21  28
ENDBRANCH  17  26
ENDBRANCH   1  19
TORSDOF 5
