REMARK  Name = ZINCrD0000075dbX.0
REMARK                            x       y       z     vdW  Elec       q    Type
REMARK                         _______ _______ _______ _____ _____    ______ ____
ROOT
ATOM      1  N   LIG    1        4.111  -0.948  -1.424  0.00  0.00    -0.730 N 
ATOM      2  H   LIG    1        3.557  -0.630  -2.154  0.00  0.00    +0.400 HD
ATOM      3  C   LIG    1        5.258  -1.606  -1.685  0.00  0.00    +0.520 C 
ATOM      4  O   LIG    1        5.950  -2.003  -0.771  0.00  0.00    -0.530 OA
ENDROOT
BRANCH   3   5
ATOM      5  C   LIG    1        5.680  -1.848  -3.111  0.00  0.00    -0.010 C 
ATOM      6  C   LIG    1        5.852  -0.506  -3.827  0.00  0.00    +0.050 C 
ATOM      7  C   LIG    1        6.028  -0.747  -5.331  0.00  0.00    +0.130 C 
ATOM      8  C   LIG    1        7.094  -1.796  -5.524  0.00  0.00    +0.090 A 
ATOM      9  C   LIG    1        7.533  -2.625  -4.542  0.00  0.00    -0.190 A 
ATOM     10  C   LIG    1        8.515  -3.451  -5.084  0.00  0.00    -0.000 A 
ATOM     11  N   LIG    1        8.663  -3.133  -6.346  0.00  0.00    -0.230 NA
ATOM     12  N   LIG    1        7.774  -2.089  -6.644  0.00  0.00    -0.440 N 
ATOM     13  H   LIG    1        7.668  -1.657  -7.506  0.00  0.00    +0.450 HD
ATOM     14  C   LIG    1        7.010  -2.612  -3.127  0.00  0.00    +0.140 C 
BRANCH  10  15
ATOM     15  C   LIG    1        9.275  -4.523  -4.346  0.00  0.00    +0.550 C 
ATOM     16  F   LIG    1        9.395  -4.166  -2.999  0.00  0.00    -0.160 F 
ATOM     17  F   LIG    1       10.549  -4.661  -4.907  0.00  0.00    -0.170 F 
ATOM     18  F   LIG    1        8.586  -5.737  -4.448  0.00  0.00    -0.170 F 
ENDBRANCH  10  15
ENDBRANCH   3   5
BRANCH   1  19
ATOM     19  C   LIG    1        3.700  -0.712  -0.037  0.00  0.00    +0.320 C 
BRANCH  19  27
ATOM     20  C   LIG    1        1.839   4.548   0.008  0.00  0.00    +0.310 C 
ATOM     21  N   LIG    1        0.870   3.449   0.011  0.00  0.00    -0.490 N 
ATOM     22  C   LIG    1       -0.490   3.599   0.025  0.00  0.00    +0.220 A 
ATOM     23  C   LIG    1       -1.084   2.396   0.019  0.00  0.00    -0.060 A 
ATOM     24  C   LIG    1       -0.017   1.392   0.010  0.00  0.00    -0.100 A 
ATOM     25  C   LIG    1        0.002  -0.004   0.002  0.00  0.00    +0.050 A 
ATOM     26  C   LIG    1        1.197  -0.666  -0.013  0.00  0.00    -0.010 A 
ATOM     27  C   LIG    1        2.393   0.038  -0.021  0.00  0.00    -0.090 A 
ATOM     28  C   LIG    1        2.398   1.416  -0.013  0.00  0.00    +0.010 A 
ATOM     29  C   LIG    1        1.193   2.110   0.002  0.00  0.00    +0.090 A 
ENDBRANCH  19  27
ENDBRANCH   1  19
TORSDOF 4
