REMARK  Name = ZINCtV000002Oof6.0
REMARK                            x       y       z     vdW  Elec       q    Type
REMARK                         _______ _______ _______ _____ _____    ______ ____
ROOT
ATOM      1  C   LIG    1        4.817   1.062  -0.251  0.00  0.00    -0.280 A 
ATOM      2  C   LIG    1        4.992  -0.307  -0.268  0.00  0.00    +0.300 A 
ATOM      3  N   LIG    1        6.307  -0.554  -0.403  0.00  0.00    -0.300 N 
ATOM      4  N   LIG    1        7.008   0.654  -0.465  0.00  0.00    -0.270 NA
ATOM      5  C   LIG    1        6.155   1.652  -0.378  0.00  0.00    +0.220 A 
ENDROOT
BRANCH   3   6
ATOM      6  C   LIG    1        6.887  -1.827  -0.464  0.00  0.00    +0.140 A 
ATOM      7  C   LIG    1        6.087  -2.960  -0.385  0.00  0.00    -0.010 A 
ATOM      8  C   LIG    1        6.661  -4.215  -0.452  0.00  0.00    +0.050 A 
ATOM      9  C   LIG    1        8.031  -4.343  -0.585  0.00  0.00    +0.010 A 
ATOM     10  C   LIG    1        8.831  -3.217  -0.658  0.00  0.00    +0.050 A 
ATOM     11  C   LIG    1        8.262  -1.960  -0.598  0.00  0.00    +0.030 A 
ENDBRANCH   3   6
BRANCH   5  12
ATOM     12  C   LIG    1        6.481   3.092  -0.404  0.00  0.00    -0.150 A 
ATOM     13  C   LIG    1        7.590   3.648   0.126  0.00  0.00    +0.040 A 
ATOM     14  C   LIG    1        7.675   5.017  -0.023  0.00  0.00    -0.010 A 
ATOM     15  C   LIG    1        6.649   5.581  -0.668  0.00  0.00    -0.060 A 
ATOM     16  S   LIG    1        5.489   4.345  -1.136  0.00  0.00    +0.240 S 
ENDBRANCH   5  12
BRANCH   1  18
ATOM     17  O   LIG    1        3.532   3.002  -0.117  0.00  0.00    -0.500 OA
ATOM     18  C   LIG    1        3.542   1.786  -0.124  0.00  0.00    +0.590 C 
ATOM     19  N   LIG    1        2.386   1.101  -0.015  0.00  0.00    -0.670 N 
ATOM     20  H   LIG    1        2.400   0.133   0.046  0.00  0.00    +0.410 HD
BRANCH  19  21
ATOM     21  C   LIG    1        1.168   1.786   0.010  0.00  0.00    +0.160 A 
ATOM     22  C   LIG    1        0.059   1.226  -0.584  0.00  0.00    -0.010 A 
ATOM     23  C   LIG    1       -1.162   1.920  -0.562  0.00  0.00    -0.030 A 
ATOM     24  C   LIG    1       -2.317   1.379  -1.153  0.00  0.00    +0.020 A 
ATOM     25  C   LIG    1       -3.486   2.076  -1.108  0.00  0.00    +0.010 A 
ATOM     26  C   LIG    1       -3.557   3.317  -0.479  0.00  0.00    +0.000 A 
ATOM     27  C   LIG    1       -2.460   3.870   0.107  0.00  0.00    +0.030 A 
ATOM     28  C   LIG    1       -1.235   3.181   0.082  0.00  0.00    -0.060 A 
ATOM     29  C   LIG    1       -0.083   3.723   0.678  0.00  0.00    +0.040 A 
ATOM     30  C   LIG    1        1.088   3.035   0.639  0.00  0.00    +0.030 A 
ENDBRANCH  19  21
ENDBRANCH   1  18
TORSDOF 4
