REMARK  Name = ZINCqH0000031IvX.0
REMARK                            x       y       z     vdW  Elec       q    Type
REMARK                         _______ _______ _______ _____ _____    ______ ____
ROOT
ATOM      1  C   LIG    1        2.861   4.162  -1.499  0.00  0.00    +0.060 C 
ENDROOT
BRANCH   1   2
ATOM      2  C   LIG    1        2.450   3.942  -0.042  0.00  0.00    +0.320 C 
ATOM      3  C   LIG    1        1.169   3.149   0.007  0.00  0.00    -0.110 A 
ATOM      4  C   LIG    1        1.193   1.772   0.008  0.00  0.00    +0.030 A 
ATOM      5  C   LIG    1        0.006   1.059   0.016  0.00  0.00    +0.010 A 
ATOM      6  C   LIG    1       -1.208   1.723   0.018  0.00  0.00    +0.020 A 
ATOM      7  C   LIG    1       -1.246   3.103   0.031  0.00  0.00    +0.020 A 
ATOM      8  C   LIG    1       -0.054   3.825   0.032  0.00  0.00    -0.030 A 
ATOM      9  C   LIG    1       -0.065   5.300   0.082  0.00  0.00    -0.040 C 
ATOM     10  C   LIG    1        1.070   5.955   0.351  0.00  0.00    +0.240 C 
ATOM     11  N   LIG    1        2.233   5.240   0.608  0.00  0.00    -0.560 N 
ATOM     12  C   LIG    1        3.160   5.736   1.452  0.00  0.00    +0.510 C 
ATOM     13  O   LIG    1        4.175   5.111   1.674  0.00  0.00    -0.480 OA
ATOM     14  C   LIG    1        2.934   7.069   2.118  0.00  0.00    +0.100 C 
ENDBRANCH   1   2
BRANCH   1  17
ATOM     15  N   LIG    1        4.767   5.143  -2.733  0.00  0.00    -0.680 N 
ATOM     16  H   LIG    1        4.343   4.857  -3.557  0.00  0.00    +0.410 HD
ATOM     17  C   LIG    1        4.202   4.847  -1.546  0.00  0.00    +0.500 C 
ATOM     18  O   LIG    1        4.774   5.131  -0.515  0.00  0.00    -0.480 OA
BRANCH  15  22
ATOM     19  C   LIG    1        8.331   7.285  -2.865  0.00  0.00    -0.190 A 
ATOM     20  C   LIG    1        8.100   6.369  -1.831  0.00  0.00    +0.100 A 
ATOM     21  C   LIG    1        6.924   5.665  -1.792  0.00  0.00    +0.020 A 
ATOM     22  C   LIG    1        5.961   5.860  -2.777  0.00  0.00    +0.180 A 
ATOM     23  C   LIG    1        6.188   6.766  -3.810  0.00  0.00    -0.030 A 
ATOM     24  C   LIG    1        7.359   7.478  -3.854  0.00  0.00    +0.090 A 
BRANCH  19  26
ATOM     25  C   LIG    1        9.836   9.025  -4.025  0.00  0.00    +0.070 C 
ATOM     26  C   LIG    1        9.590   8.040  -2.912  0.00  0.00    +0.390 C 
ATOM     27  O   LIG    1       10.431   7.871  -2.054  0.00  0.00    -0.460 OA
ENDBRANCH  19  26
ENDBRANCH  15  22
ENDBRANCH   1  17
TORSDOF 4
