REMARK  Name = ZINCvU0000000AUq.0
REMARK                            x       y       z     vdW  Elec       q    Type
REMARK                         _______ _______ _______ _____ _____    ______ ____
ROOT
ATOM      1  N   LIG    1        7.992  -0.423  -0.076  0.00  0.00    -0.660 N 
ATOM      2  H   LIG    1        8.461  -1.269  -0.004  0.00  0.00    +0.420 HD
ATOM      3  C   LIG    1        8.688   0.727  -0.178  0.00  0.00    +0.510 C 
ATOM      4  O   LIG    1        8.106   1.791  -0.167  0.00  0.00    -0.510 OA
ENDROOT
BRANCH   1  17
ATOM      5  C   LIG    1        5.879  -1.433   0.530  0.00  0.00    +0.090 A 
ATOM      6  C   LIG    1        4.498  -1.411   0.534  0.00  0.00    +0.000 A 
ATOM      7  C   LIG    1        3.822  -0.351  -0.065  0.00  0.00    -0.100 A 
ATOM      8  C   LIG    1        4.534   0.692  -0.672  0.00  0.00    +0.080 A 
ATOM      9  O   LIG    1        3.648   1.583  -1.172  0.00  0.00    -0.200 OA
ATOM     10  C   LIG    1        2.374   1.200  -0.936  0.00  0.00    +0.090 A 
ATOM     11  C   LIG    1        1.150   1.778  -1.252  0.00  0.00    +0.030 A 
ATOM     12  C   LIG    1       -0.024   1.158  -0.881  0.00  0.00    +0.060 A 
ATOM     13  C   LIG    1        0.001  -0.044  -0.192  0.00  0.00    -0.010 A 
ATOM     14  C   LIG    1        1.205  -0.633   0.130  0.00  0.00    +0.070 A 
ATOM     15  C   LIG    1        5.923   0.659  -0.670  0.00  0.00    +0.070 A 
ATOM     16  C   LIG    1        2.396  -0.016  -0.239  0.00  0.00    -0.120 A 
ATOM     17  C   LIG    1        6.592  -0.396  -0.073  0.00  0.00    +0.160 A 
BRANCH   5  19
ATOM     18  C   LIG    1        5.751  -3.493   1.714  0.00  0.00    +0.250 C 
ATOM     19  O   LIG    1        6.544  -2.466   1.115  0.00  0.00    -0.320 OA
ENDBRANCH   5  19
ENDBRANCH   1  17
BRANCH   3  20
ATOM     20  C   LIG    1       10.189   0.690  -0.306  0.00  0.00    +0.060 C 
BRANCH  20  21
ATOM     21  C   LIG    1       10.727   2.119  -0.405  0.00  0.00    +0.070 C 
BRANCH  21  22
ATOM     22  C   LIG    1       12.252   2.082  -0.535  0.00  0.00    +0.200 C 
BRANCH  22  23
ATOM     23  O   LIG    1       12.754   3.416  -0.627  0.00  0.00    -0.310 OA
BRANCH  23  24
ATOM     24  C   LIG    1       14.098   3.561  -0.748  0.00  0.00    +0.170 A 
ATOM     25  C   LIG    1       14.917   2.437  -0.772  0.00  0.00    -0.090 A 
ATOM     26  C   LIG    1       16.275   2.578  -0.900  0.00  0.00    +0.110 A 
ATOM     27  C   LIG    1       16.838   3.857  -0.995  0.00  0.00    -0.220 A 
ATOM     28  C   LIG    1       16.009   4.985  -0.965  0.00  0.00    +0.120 A 
ATOM     29  C   LIG    1       14.652   4.833  -0.843  0.00  0.00    -0.030 A 
BRANCH  27  30
ATOM     30  C   LIG    1       18.292   4.013  -1.125  0.00  0.00    +0.400 C 
ATOM     31  O   LIG    1       18.778   5.122  -1.207  0.00  0.00    -0.460 OA
ATOM     32  C   LIG    1       19.181   2.797  -1.157  0.00  0.00    +0.070 C 
ENDBRANCH  27  30
ENDBRANCH  23  24
ENDBRANCH  22  23
ENDBRANCH  21  22
ENDBRANCH  20  21
ENDBRANCH   3  20
TORSDOF 8
