REMARK  Name = ZINCpe000000VWRw.0
REMARK                            x       y       z     vdW  Elec       q    Type
REMARK                         _______ _______ _______ _____ _____    ______ ____
ROOT
ATOM      1  C   LIG    1        2.237   6.175  -1.846  0.00  0.00    +0.590 C 
ATOM      2  N   LIG    1        0.944   6.037  -1.494  0.00  0.00    -0.590 N 
ATOM      3  C   LIG    1       -0.114   6.503  -2.394  0.00  0.00    +0.310 C 
ATOM      4  O   LIG    1        3.111   5.698  -1.149  0.00  0.00    -0.520 OA
ENDROOT
BRANCH   1   7
ATOM      5  N   LIG    1        1.919   8.180  -4.842  0.00  0.00    -0.330 N 
ATOM      6  N   LIG    1        1.660   7.527  -3.767  0.00  0.00    -0.150 NA
ATOM      7  C   LIG    1        2.593   6.907  -3.081  0.00  0.00    +0.010 A 
ATOM      8  C   LIG    1        3.938   6.932  -3.523  0.00  0.00    +0.130 A 
ATOM      9  C   LIG    1        4.229   7.617  -4.666  0.00  0.00    -0.020 A 
ATOM     10  C   LIG    1        3.167   8.260  -5.340  0.00  0.00    +0.480 A 
ATOM     11  O   LIG    1        3.379   8.885  -6.366  0.00  0.00    -0.520 OA
BRANCH   5  12
ATOM     12  C   LIG    1        0.825   8.851  -5.549  0.00  0.00    +0.350 C 
BRANCH  12  13
ATOM     13  C   LIG    1        0.212   7.890  -6.569  0.00  0.00    +0.180 C 
BRANCH  13  15
ATOM     14  C   LIG    1       -1.003   5.832  -6.751  0.00  0.00    +0.210 C 
ATOM     15  O   LIG    1       -0.397   6.793  -5.885  0.00  0.00    -0.390 OA
ENDBRANCH  13  15
ENDBRANCH  12  13
ENDBRANCH   5  12
ENDBRANCH   1   7
BRANCH   2  16
ATOM     16  C   LIG    1        0.596   5.421  -0.211  0.00  0.00    +0.360 C 
BRANCH  16  17
ATOM     17  C   LIG    1        0.443   3.933  -0.393  0.00  0.00    -0.100 A 
ATOM     18  C   LIG    1       -0.790   3.402  -0.721  0.00  0.00    +0.050 A 
ATOM     19  C   LIG    1       -0.934   2.038  -0.894  0.00  0.00    +0.040 A 
ATOM     20  C   LIG    1        0.156   1.199  -0.730  0.00  0.00    +0.040 A 
ATOM     21  O   LIG    1        0.280  -0.156  -0.839  0.00  0.00    -0.310 OA
ATOM     22  C   LIG    1        1.514  -0.484  -0.173  0.00  0.00    +0.430 C 
ATOM     23  O   LIG    1        2.301   0.715  -0.302  0.00  0.00    -0.310 OA
ATOM     24  C   LIG    1        1.399   1.735  -0.400  0.00  0.00    +0.030 A 
ATOM     25  C   LIG    1        1.537   3.103  -0.233  0.00  0.00    +0.070 A 
ENDBRANCH  16  17
ENDBRANCH   2  16
TORSDOF 6
