REMARK  Name = ZINCnE000001Qm6t.0
REMARK                            x       y       z     vdW  Elec       q    Type
REMARK                         _______ _______ _______ _____ _____    ______ ____
ROOT
ATOM      1  N   LIG    1        3.606   1.695  -0.081  0.00  0.00    -0.600 N 
ATOM      2  C   LIG    1        2.469   0.982  -0.212  0.00  0.00    +0.570 C 
ATOM      3  O   LIG    1        2.522  -0.221  -0.375  0.00  0.00    -0.540 OA
ATOM      4  C   LIG    1        3.542   3.126   0.227  0.00  0.00    +0.290 C 
ENDROOT
BRANCH   2   5
ATOM      5  C   LIG    1        1.159   1.664  -0.157  0.00  0.00    -0.160 A 
ATOM      6  C   LIG    1        0.942   2.693   0.761  0.00  0.00    +0.040 A 
ATOM      7  C   LIG    1       -0.285   3.322   0.811  0.00  0.00    +0.000 A 
ATOM      8  C   LIG    1       -1.296   2.942  -0.054  0.00  0.00    +0.010 A 
ATOM      9  C   LIG    1       -1.088   1.923  -0.966  0.00  0.00    +0.000 A 
ATOM     10  C   LIG    1        0.132   1.282  -1.022  0.00  0.00    +0.060 A 
BRANCH   8  11
ATOM     11  C   LIG    1       -2.631   3.638   0.002  0.00  0.00    -0.020 C 
BRANCH  11  12
ATOM     12  C   LIG    1       -3.530   2.923   0.977  0.00  0.00    +0.500 C 
ATOM     13  O   LIG    1       -4.664   3.327   1.171  0.00  0.00    -0.700 OA
ATOM     14  O   LIG    1       -3.124   1.939   1.571  0.00  0.00    -0.690 OA
ENDBRANCH  11  12
ENDBRANCH   8  11
ENDBRANCH   2   5
BRANCH   1  15
ATOM     15  C   LIG    1        4.905   1.038  -0.247  0.00  0.00    +0.290 C 
ATOM     16  C   LIG    1        5.604   1.597  -1.488  0.00  0.00    +0.030 C 
BRANCH  15  23
ATOM     17  C   LIG    1        4.413  -0.418   2.200  0.00  0.00    +0.080 C 
ATOM     18  C   LIG    1        5.522   0.601   2.139  0.00  0.00    -0.060 A 
ATOM     19  C   LIG    1        6.304   0.838   3.254  0.00  0.00    +0.000 A 
ATOM     20  C   LIG    1        7.322   1.773   3.198  0.00  0.00    +0.010 A 
ATOM     21  C   LIG    1        7.556   2.470   2.028  0.00  0.00    -0.010 A 
ATOM     22  C   LIG    1        6.778   2.228   0.911  0.00  0.00    +0.020 A 
ATOM     23  C   LIG    1        5.757   1.298   0.969  0.00  0.00    -0.100 A 
ENDBRANCH  15  23
ENDBRANCH   1  15
TORSDOF 5
