REMARK  Name = ZINCkj000005jfjl.0
REMARK                            x       y       z     vdW  Elec       q    Type
REMARK                         _______ _______ _______ _____ _____    ______ ____
ROOT
ATOM      1  C   LIG    1       -1.808   0.672  -1.271  0.00  0.00    +0.040 C 
ATOM      2  C   LIG    1       -0.518   1.495  -1.318  0.00  0.00    -0.040 C 
ATOM      3  C   LIG    1        0.360   1.137  -0.117  0.00  0.00    +0.050 C 
ATOM      4  C   LIG    1       -0.407   1.414   1.178  0.00  0.00    +0.030 C 
ATOM      5  C   LIG    1       -0.749   2.905   1.256  0.00  0.00    +0.320 C 
ATOM      6  N   LIG    1       -1.469   3.290   0.034  0.00  0.00    -0.990 NA
ATOM      7  C   LIG    1       -0.861   2.987  -1.269  0.00  0.00    +0.250 C 
ENDROOT
BRANCH   6   8
ATOM      8  S   LIG    1       -2.937   4.050   0.124  0.00  0.00    +2.680 S 
ATOM      9  O   LIG    1       -3.053   4.838  -1.053  0.00  0.00    -0.960 OA
ATOM     10  O   LIG    1       -3.028   4.592   1.435  0.00  0.00    -0.920 OA
BRANCH   8  11
ATOM     11  C   LIG    1       -4.178   2.804   0.013  0.00  0.00    -0.670 A 
ATOM     12  C   LIG    1       -4.678   2.439  -1.224  0.00  0.00    +0.100 A 
ATOM     13  C   LIG    1       -5.646   1.461  -1.318  0.00  0.00    +0.060 A 
ATOM     14  C   LIG    1       -6.128   0.845  -0.161  0.00  0.00    +0.050 A 
ATOM     15  C   LIG    1       -5.622   1.222   1.085  0.00  0.00    +0.070 A 
ATOM     16  C   LIG    1       -4.650   2.199   1.164  0.00  0.00    +0.150 A 
BRANCH  14  17
ATOM     17  C   LIG    1       -7.136  -0.168  -0.251  0.00  0.00    +0.230 C 
ATOM     18  N   LIG    1       -7.935  -0.972  -0.323  0.00  0.00    -0.370 NA
ENDBRANCH  14  17
ENDBRANCH   8  11
ENDBRANCH   6   8
BRANCH   7  19
ATOM     19  C   LIG    1       -1.848   3.324  -2.389  0.00  0.00    +0.250 C 
BRANCH  19  20
ATOM     20  N   LIG    1       -1.301   2.872  -3.675  0.00  0.00    -0.630 N 
ATOM     21  H   LIG    1       -1.903   3.181  -4.424  0.00  0.00    +0.450 HD
ATOM     22  H   LIG    1       -1.247   1.864  -3.682  0.00  0.00    +0.430 HD
ATOM     23  H   LIG    1       -0.378   3.259  -3.804  0.00  0.00    +0.440 HD
ENDBRANCH  19  20
ENDBRANCH   7  19
TORSDOF 5
