REMARK  Name = ZINCvU00000004HV.0
REMARK                            x       y       z     vdW  Elec       q    Type
REMARK                         _______ _______ _______ _____ _____    ______ ____
ROOT
ATOM      1  C   LIG    1        2.527   1.111   0.095  0.00  0.00    -0.260 A 
ATOM      2  C   LIG    1        3.730   1.821   0.193  0.00  0.00    +0.140 A 
ATOM      3  C   LIG    1        4.981   1.057   0.286  0.00  0.00    -0.140 A 
ATOM      4  C   LIG    1        6.212   1.715   0.386  0.00  0.00    +0.100 A 
ATOM      5  C   LIG    1        7.366   0.989   0.471  0.00  0.00    -0.010 A 
ATOM      6  C   LIG    1        7.327  -0.399   0.460  0.00  0.00    +0.090 A 
ATOM      7  C   LIG    1        6.126  -1.068   0.362  0.00  0.00    -0.030 A 
ATOM      8  C   LIG    1        4.937  -0.349   0.274  0.00  0.00    +0.200 A 
ATOM      9  N   LIG    1        3.731  -1.013   0.175  0.00  0.00    -0.630 N 
ATOM     10  H   LIG    1        3.726  -1.983   0.168  0.00  0.00    +0.420 HD
ATOM     11  C   LIG    1        2.564  -0.352   0.094  0.00  0.00    +0.560 A 
ATOM     12  O   LIG    1        1.523  -0.980   0.014  0.00  0.00    -0.520 OA
ENDROOT
BRANCH   2  13
ATOM     13  C   LIG    1        3.741   3.297   0.204  0.00  0.00    -0.070 A 
ATOM     14  C   LIG    1        4.346   4.002  -0.840  0.00  0.00    +0.030 A 
ATOM     15  C   LIG    1        4.348   5.381  -0.826  0.00  0.00    +0.010 A 
ATOM     16  C   LIG    1        3.763   6.066   0.224  0.00  0.00    +0.020 A 
ATOM     17  C   LIG    1        3.167   5.375   1.265  0.00  0.00    +0.010 A 
ATOM     18  C   LIG    1        3.153   3.996   1.261  0.00  0.00    +0.060 A 
ENDBRANCH   2  13
BRANCH   1  20
ATOM     19  O   LIG    1        1.231   3.037  -0.124  0.00  0.00    -0.440 OA
ATOM     20  C   LIG    1        1.246   1.825   0.000  0.00  0.00    +0.440 C 
BRANCH  20  21
ATOM     21  C   LIG    1       -0.014   1.080   0.055  0.00  0.00    -0.040 C 
ATOM     22  C   LIG    1       -1.185   1.719  -0.147  0.00  0.00    +0.100 C 
BRANCH  22  23
ATOM     23  C   LIG    1       -2.450   0.969  -0.098  0.00  0.00    -0.050 A 
ATOM     24  C   LIG    1       -3.652   1.630  -0.306  0.00  0.00    +0.090 A 
ATOM     25  C   LIG    1       -4.855   0.908  -0.258  0.00  0.00    +0.080 A 
ATOM     26  N   LIG    1       -6.030   1.517  -0.455  0.00  0.00    -0.420 NA
ATOM     27  C   LIG    1       -7.141   0.819  -0.406  0.00  0.00    +0.260 A 
ATOM     28  C   LIG    1       -7.109  -0.554  -0.149  0.00  0.00    +0.260 A 
ATOM     29  N   LIG    1       -5.968  -1.174   0.048  0.00  0.00    -0.430 NA
ATOM     30  C   LIG    1       -4.822  -0.486   0.002  0.00  0.00    +0.080 A 
ATOM     31  C   LIG    1       -3.586  -1.128   0.209  0.00  0.00    +0.060 A 
ATOM     32  C   LIG    1       -2.433  -0.417   0.154  0.00  0.00    +0.070 A 
ENDBRANCH  22  23
ENDBRANCH  20  21
ENDBRANCH   1  20
TORSDOF 4
