REMARK  Name = ZINCrD0000072heN.0
REMARK                            x       y       z     vdW  Elec       q    Type
REMARK                         _______ _______ _______ _____ _____    ______ ____
ROOT
ATOM      1  C   LIG    1        0.163   4.451  -5.134  0.00  0.00    +0.550 C 
ATOM      2  O   LIG    1       -1.010   4.449  -5.453  0.00  0.00    -0.520 OA
ENDROOT
BRANCH   1   3
ATOM      3  C   LIG    1        1.145   5.186  -5.946  0.00  0.00    -0.210 A 
ATOM      4  C   LIG    1        0.896   5.911  -7.080  0.00  0.00    +0.140 A 
ATOM      5  N   LIG    1        2.068   6.429  -7.519  0.00  0.00    -0.370 N 
ATOM      6  C   LIG    1        3.088   6.055  -6.688  0.00  0.00    +0.020 A 
ATOM      7  C   LIG    1        4.537   6.437  -6.852  0.00  0.00    +0.140 C 
ATOM      8  C   LIG    1       -0.451   6.100  -7.728  0.00  0.00    +0.160 C 
ATOM      9  C   LIG    1        2.588   5.295  -5.699  0.00  0.00    +0.030 A 
BRANCH   5  10
ATOM     10  C   LIG    1        2.214   7.230  -8.656  0.00  0.00    +0.220 A 
ATOM     11  N   LIG    1        1.748   6.985  -9.852  0.00  0.00    -0.350 NA
ATOM     12  O   LIG    1        2.038   7.865 -10.629  0.00  0.00    +0.120 OA
ATOM     13  C   LIG    1        2.751   8.835 -10.037  0.00  0.00    -0.010 A 
ATOM     14  C   LIG    1        3.285  10.085 -10.688  0.00  0.00    +0.210 C 
ATOM     15  C   LIG    1        2.892   8.474  -8.741  0.00  0.00    -0.050 A 
ENDBRANCH   5  10
ENDBRANCH   1   3
BRANCH   1  16
ATOM     16  O   LIG    1        0.564   3.779  -4.037  0.00  0.00    -0.320 OA
BRANCH  16  17
ATOM     17  C   LIG    1       -0.459   3.076  -3.284  0.00  0.00    +0.250 C 
BRANCH  17  24
ATOM     18  C   LIG    1       -0.015   1.095  -0.030  0.00  0.00    +0.220 C 
ATOM     19  C   LIG    1       -0.853   1.543   1.172  0.00  0.00    +0.020 C 
ATOM     20  C   LIG    1       -2.321   1.169   0.929  0.00  0.00    +0.020 C 
ATOM     21  C   LIG    1       -2.835   1.891  -0.318  0.00  0.00    +0.010 C 
ATOM     22  C   LIG    1       -2.017   1.447  -1.534  0.00  0.00    +0.270 C 
ATOM     23  N   LIG    1       -0.592   1.670  -1.253  0.00  0.00    -0.610 N 
ATOM     24  C   LIG    1        0.171   2.389  -2.100  0.00  0.00    +0.520 C 
ATOM     25  O   LIG    1        1.365   2.482  -1.910  0.00  0.00    -0.510 OA
BRANCH  18  27
ATOM     26  C   LIG    1        2.009   1.018   1.433  0.00  0.00    +0.000 C 
ATOM     27  C   LIG    1        1.424   1.585   0.138  0.00  0.00    +0.040 C 
ENDBRANCH  18  27
ENDBRANCH  17  24
ENDBRANCH  16  17
ENDBRANCH   1  16
TORSDOF 6
