REMARK  Name = ZINCkj000005jVHX.0
REMARK                            x       y       z     vdW  Elec       q    Type
REMARK                         _______ _______ _______ _____ _____    ______ ____
ROOT
ATOM      1  C   LIG    1        0.013   5.232   0.444  0.00  0.00    -0.040 A 
ATOM      2  C   LIG    1        1.164   5.741   0.974  0.00  0.00    +0.000 A 
ATOM      3  C   LIG    1        1.319   7.189   1.099  0.00  0.00    +0.530 A 
ATOM      4  N   LIG    1        0.346   8.026   0.699  0.00  0.00    -0.630 N 
ATOM      5  H   LIG    1        0.474   8.983   0.792  0.00  0.00    +0.420 HD
ATOM      6  C   LIG    1       -0.831   7.552   0.159  0.00  0.00    +0.190 A 
ATOM      7  C   LIG    1       -1.827   8.435  -0.249  0.00  0.00    -0.020 A 
ATOM      8  C   LIG    1       -2.998   7.948  -0.787  0.00  0.00    +0.090 A 
ATOM      9  C   LIG    1       -3.196   6.581  -0.928  0.00  0.00    +0.000 A 
ATOM     10  C   LIG    1       -2.232   5.696  -0.534  0.00  0.00    +0.070 A 
ATOM     11  O   LIG    1        2.345   7.644   1.571  0.00  0.00    -0.510 OA
ATOM     12  C   LIG    1       -1.034   6.168   0.008  0.00  0.00    -0.120 A 
ENDROOT
BRANCH   1  22
ATOM     13  C   LIG    1        0.010   1.088   0.002  0.00  0.00    +0.100 C 
ATOM     14  C   LIG    1       -0.678   1.573   1.280  0.00  0.00    +0.230 C 
ATOM     15  C   LIG    1        0.032   0.981   2.502  0.00  0.00    +0.270 C 
ATOM     16  N   LIG    1       -0.543   1.554   3.726  0.00  0.00    -0.500 N 
ATOM     17  C   LIG    1       -0.276   2.998   3.774  0.00  0.00    +0.270 C 
ATOM     18  C   LIG    1       -1.001   3.689   2.615  0.00  0.00    +0.310 C 
ATOM     19  H   LIG    1       -0.128   1.110   4.531  0.00  0.00    +0.440 HD
ATOM     20  H   LIG    1       -1.539   1.397   3.733  0.00  0.00    +0.430 HD
ATOM     21  N   LIG    1       -0.602   3.040   1.356  0.00  0.00    -0.630 N 
ATOM     22  C   LIG    1       -0.174   3.767   0.305  0.00  0.00    +0.580 C 
ATOM     23  O   LIG    1        0.059   3.223  -0.756  0.00  0.00    -0.480 OA
ENDBRANCH   1  22
TORSDOF 1
