REMARK  Name = ZINCrH00000No4yq.0
REMARK                            x       y       z     vdW  Elec       q    Type
REMARK                         _______ _______ _______ _____ _____    ______ ____
ROOT
ATOM      1  N   LIG    1        1.059   1.886  -0.275  0.00  0.00    -0.600 N 
ATOM      2  C   LIG    1       -0.040   1.148  -0.022  0.00  0.00    +0.600 C 
ATOM      3  O   LIG    1        0.066  -0.040   0.216  0.00  0.00    -0.520 OA
ENDROOT
BRANCH   2   4
ATOM      4  C   LIG    1       -1.372   1.780  -0.039  0.00  0.00    -0.280 A 
ATOM      5  C   LIG    1       -2.588   1.128   0.003  0.00  0.00    +0.340 A 
ATOM      6  N   LIG    1       -3.550   2.070  -0.030  0.00  0.00    -0.310 N 
ATOM      7  N   LIG    1       -2.938   3.326  -0.102  0.00  0.00    -0.260 NA
ATOM      8  C   LIG    1       -1.643   3.165  -0.108  0.00  0.00    +0.260 A 
BRANCH   6   9
ATOM      9  C   LIG    1       -4.928   1.832  -0.001  0.00  0.00    +0.190 A 
ATOM     10  C   LIG    1       -5.429   0.533   0.067  0.00  0.00    -0.040 A 
ATOM     11  C   LIG    1       -6.795   0.341   0.097  0.00  0.00    +0.300 A 
ATOM     12  N   LIG    1       -7.623   1.368   0.053  0.00  0.00    -0.490 NA
ATOM     13  C   LIG    1       -7.188   2.611  -0.016  0.00  0.00    +0.300 A 
ATOM     14  C   LIG    1       -5.837   2.888  -0.046  0.00  0.00    -0.020 A 
ENDBRANCH   6   9
ENDBRANCH   2   4
BRANCH   1  15
ATOM     15  C   LIG    1        2.390   1.292  -0.127  0.00  0.00    +0.310 C 
BRANCH  15  20
ATOM     16  C   LIG    1        2.511  -2.357  -3.511  0.00  0.00    +0.000 C 
ATOM     17  C   LIG    1        2.903  -1.432  -2.669  0.00  0.00    -0.120 C 
ATOM     18  C   LIG    1        4.327  -0.967  -2.446  0.00  0.00    +0.040 C 
ATOM     19  C   LIG    1        4.273   0.136  -1.369  0.00  0.00    +0.020 C 
ATOM     20  C   LIG    1        2.819   0.663  -1.454  0.00  0.00    -0.030 C 
ATOM     21  C   LIG    1        2.014  -0.629  -1.736  0.00  0.00    +0.070 C 
ENDBRANCH  15  20
ENDBRANCH   1  15
BRANCH   1  22
ATOM     22  C   LIG    1        0.922   3.282  -0.699  0.00  0.00    +0.400 C 
BRANCH  22  23
ATOM     23  C   LIG    1        1.099   4.188   0.492  0.00  0.00    +0.000 A 
ATOM     24  N   LIG    1        2.226   4.677   0.887  0.00  0.00    -0.450 NA
ATOM     25  C   LIG    1        2.203   5.455   1.950  0.00  0.00    +0.210 A 
ATOM     26  C   LIG    1        0.990   5.633   2.482  0.00  0.00    -0.080 A 
ATOM     27  S   LIG    1       -0.166   4.723   1.510  0.00  0.00    +0.140 S 
ENDBRANCH  22  23
ENDBRANCH   1  22
TORSDOF 6
