REMARK  Name = ZINCpk0000055Eub.0
REMARK                            x       y       z     vdW  Elec       q    Type
REMARK                         _______ _______ _______ _____ _____    ______ ____
ROOT
ATOM      1  C   LIG    1       -3.626   2.095   0.031  0.00  0.00    +0.240 C 
ENDROOT
BRANCH   1   2
ATOM      2  N   LIG    1       -3.489   3.010   1.166  0.00  0.00    -0.730 N 
ATOM      3  H   LIG    1       -2.983   2.740   1.949  0.00  0.00    +0.400 HD
ATOM      4  C   LIG    1       -4.067   4.227   1.124  0.00  0.00    +0.520 C 
ATOM      5  O   LIG    1       -4.699   4.565   0.146  0.00  0.00    -0.520 OA
BRANCH   4   6
ATOM      6  C   LIG    1       -3.926   5.169   2.293  0.00  0.00    +0.120 C 
BRANCH   6   7
ATOM      7  C   LIG    1       -4.659   6.452   1.995  0.00  0.00    -0.100 A 
ATOM      8  C   LIG    1       -3.976   7.533   1.473  0.00  0.00    +0.060 A 
ATOM      9  C   LIG    1       -4.649   8.708   1.195  0.00  0.00    -0.040 A 
ATOM     10  C   LIG    1       -6.004   8.809   1.449  0.00  0.00    +0.040 A 
ATOM     11  C   LIG    1       -6.691   7.732   1.976  0.00  0.00    -0.080 A 
ATOM     12  C   LIG    1       -6.019   6.550   2.251  0.00  0.00    +0.140 A 
BRANCH  12  13
ATOM     13  O   LIG    1       -6.692   5.489   2.770  0.00  0.00    -0.310 OA
ATOM     14  C   LIG    1       -8.091   5.662   3.007  0.00  0.00    +0.250 C 
ENDBRANCH  12  13
ENDBRANCH   6   7
ENDBRANCH   4   6
ENDBRANCH   1   2
BRANCH   1  16
ATOM     15  C   LIG    1       -6.117   2.282   0.044  0.00  0.00    +0.030 C 
ATOM     16  C   LIG    1       -4.936   1.316   0.158  0.00  0.00    +0.010 C 
ENDBRANCH   1  16
BRANCH   1  17
ATOM     17  C   LIG    1       -2.449   1.117   0.020  0.00  0.00    +0.270 C 
BRANCH  17  18
ATOM     18  N   LIG    1       -1.191   1.867   0.018  0.00  0.00    -0.730 N 
ATOM     19  H   LIG    1       -1.204   2.837   0.023  0.00  0.00    +0.400 HD
ATOM     20  C   LIG    1       -0.014   1.209   0.009  0.00  0.00    +0.520 C 
ATOM     21  O   LIG    1        0.002  -0.004   0.002  0.00  0.00    -0.530 OA
BRANCH  20  22
ATOM     22  C   LIG    1        1.280   1.980   0.001  0.00  0.00    +0.000 C 
ATOM     23  C   LIG    1        1.375   2.840  -1.277  0.00  0.00    +0.040 C 
ATOM     24  C   LIG    1        2.873   2.774  -1.668  0.00  0.00    +0.020 C 
ATOM     25  C   LIG    1        3.251   1.310  -1.331  0.00  0.00    +0.000 C 
ATOM     26  C   LIG    1        2.473   1.008  -0.034  0.00  0.00    +0.190 C 
BRANCH  26  27
ATOM     27  O   LIG    1        3.312   1.223   1.103  0.00  0.00    -0.570 OA
ATOM     28  H   LIG    1        4.083   0.640   1.138  0.00  0.00    +0.380 HD
ENDBRANCH  26  27
ENDBRANCH  20  22
ENDBRANCH  17  18
ENDBRANCH   1  17
TORSDOF 9
