REMARK  Name = ZINCvU0000000BoS.0
REMARK                            x       y       z     vdW  Elec       q    Type
REMARK                         _______ _______ _______ _____ _____    ______ ____
ROOT
ATOM      1  C   LIG    1        0.136  -4.152   2.378  0.00  0.00    +0.440 C 
ATOM      2  C   LIG    1        0.234  -4.850   3.562  0.00  0.00    -0.310 C 
ATOM      3  C   LIG    1        0.245  -4.152   4.852  0.00  0.00    +0.580 C 
ATOM      4  N   LIG    1        0.336  -4.839   6.002  0.00  0.00    -0.510 N 
ATOM      5  C   LIG    1        0.432  -6.178   6.046  0.00  0.00    +0.570 C 
ATOM      6  C   LIG    1        0.436  -6.979   4.815  0.00  0.00    -0.170 A 
ATOM      7  C   LIG    1        0.535  -8.370   4.853  0.00  0.00    +0.110 A 
ATOM      8  C   LIG    1        0.536  -9.086   3.675  0.00  0.00    -0.020 A 
ATOM      9  C   LIG    1        0.439  -8.439   2.452  0.00  0.00    +0.070 A 
ATOM     10  C   LIG    1        0.341  -7.063   2.392  0.00  0.00    -0.020 A 
ATOM     11  O   LIG    1        0.516  -6.737   7.123  0.00  0.00    -0.490 OA
ATOM     12  O   LIG    1        0.166  -2.937   4.881  0.00  0.00    -0.520 OA
ATOM     13  C   LIG    1        0.338  -6.324   3.569  0.00  0.00    +0.050 A 
ENDROOT
BRANCH   4  14
ATOM     14  C   LIG    1        0.336  -4.128   7.209  0.00  0.00    +0.120 A 
ATOM     15  C   LIG    1       -0.800  -3.437   7.610  0.00  0.00    +0.080 A 
ATOM     16  C   LIG    1       -0.797  -2.737   8.800  0.00  0.00    +0.040 A 
ATOM     17  C   LIG    1        0.336  -2.723   9.593  0.00  0.00    +0.090 A 
ATOM     18  C   LIG    1        1.469  -3.411   9.197  0.00  0.00    -0.170 A 
ATOM     19  C   LIG    1        1.470  -4.117   8.011  0.00  0.00    +0.100 A 
BRANCH  18  20
ATOM     20  C   LIG    1        2.701  -3.394  10.064  0.00  0.00    +0.510 C 
ATOM     21  F   LIG    1        3.768  -2.841   9.347  0.00  0.00    -0.180 F 
ATOM     22  F   LIG    1        3.022  -4.701  10.444  0.00  0.00    -0.170 F 
ATOM     23  F   LIG    1        2.457  -2.623  11.206  0.00  0.00    -0.170 F 
ENDBRANCH  18  20
ENDBRANCH   4  14
BRANCH   1  24
ATOM     24  N   LIG    1        0.181  -2.793   2.385  0.00  0.00    -0.610 N 
ATOM     25  H   LIG    1        0.203  -2.312   3.227  0.00  0.00    +0.430 HD
BRANCH  24  31
ATOM     26  C   LIG    1        0.304   1.499  -0.007  0.00  0.00    +0.100 C 
ATOM     27  C   LIG    1        0.255  -0.007  -0.011  0.00  0.00    -0.050 A 
ATOM     28  C   LIG    1        0.219  -0.693  -1.211  0.00  0.00    -0.010 A 
ATOM     29  C   LIG    1        0.179  -2.076  -1.220  0.00  0.00    +0.050 A 
ATOM     30  C   LIG    1        0.164  -2.775  -0.029  0.00  0.00    -0.040 A 
ATOM     31  C   LIG    1        0.195  -2.088   1.178  0.00  0.00    +0.150 A 
ATOM     32  C   LIG    1        0.241  -0.700   1.183  0.00  0.00    -0.020 A 
ENDBRANCH  24  31
ENDBRANCH   1  24
TORSDOF 4
