REMARK  Name = ZINCpe000000Tnkl.0
REMARK                            x       y       z     vdW  Elec       q    Type
REMARK                         _______ _______ _______ _____ _____    ______ ____
ROOT
ATOM      1  N   LIG    1       -4.915   0.714   0.029  0.00  0.00    -0.410 N 
ATOM      2  C   LIG    1       -5.584   0.262  -1.049  0.00  0.00    +0.500 A 
ATOM      3  N   LIG    1       -6.502  -0.592  -0.673  0.00  0.00    -0.500 NA
ATOM      4  C   LIG    1       -6.472  -0.733   0.655  0.00  0.00    +0.320 A 
ATOM      5  N   LIG    1       -7.202  -1.488   1.558  0.00  0.00    -0.510 N 
ATOM      6  C   LIG    1       -8.271  -2.368   1.079  0.00  0.00    +0.340 C 
ATOM      7  C   LIG    1       -6.931  -1.415   2.875  0.00  0.00    +0.710 A 
ATOM      8  O   LIG    1       -7.582  -2.086   3.652  0.00  0.00    -0.530 OA
ATOM      9  N   LIG    1       -5.958  -0.620   3.352  0.00  0.00    -0.550 N 
ATOM     10  C   LIG    1       -5.703  -0.577   4.794  0.00  0.00    +0.350 C 
ATOM     11  C   LIG    1       -5.212   0.139   2.522  0.00  0.00    +0.590 A 
ATOM     12  O   LIG    1       -4.333   0.856   2.966  0.00  0.00    -0.510 OA
ATOM     13  C   LIG    1       -5.459   0.089   1.133  0.00  0.00    -0.150 A 
ENDROOT
BRANCH   1  14
ATOM     14  C   LIG    1       -3.814   1.681   0.029  0.00  0.00    +0.320 C 
BRANCH  14  15
ATOM     15  C   LIG    1       -2.479   0.934   0.019  0.00  0.00    +0.040 C 
BRANCH  15  16
ATOM     16  C   LIG    1       -1.330   1.944   0.019  0.00  0.00    +0.060 C 
BRANCH  16  18
ATOM     17  N   LIG    1        1.143   1.898   0.001  0.00  0.00    -0.610 N 
ATOM     18  C   LIG    1       -0.014   1.209   0.009  0.00  0.00    +0.520 C 
ATOM     19  O   LIG    1        0.002  -0.004   0.002  0.00  0.00    -0.540 OA
ATOM     20  C   LIG    1        1.124   3.363   0.009  0.00  0.00    +0.280 C 
BRANCH  17  21
ATOM     21  C   LIG    1        2.422   1.183  -0.015  0.00  0.00    +0.230 C 
ATOM     22  C   LIG    1        3.231   1.557   1.229  0.00  0.00    +0.030 C 
BRANCH  21  23
ATOM     23  C   LIG    1        3.207   1.570  -1.269  0.00  0.00    +0.020 C 
BRANCH  23  25
ATOM     24  C   LIG    1        3.242   1.472  -3.766  0.00  0.00    +0.000 C 
ATOM     25  C   LIG    1        2.456   1.085  -2.511  0.00  0.00    +0.000 C 
ENDBRANCH  23  25
ENDBRANCH  21  23
ENDBRANCH  17  21
ENDBRANCH  16  18
ENDBRANCH  15  16
ENDBRANCH  14  15
ENDBRANCH   1  14
TORSDOF 7
