REMARK  Name = ZINC650000003Wd6.0
REMARK                            x       y       z     vdW  Elec       q    Type
REMARK                         _______ _______ _______ _____ _____    ______ ____
ROOT
ATOM      1  C   LIG    1       -0.013   1.086   0.008  0.00  0.00    +0.040 C 
ATOM      2  C   LIG    1       -0.729   1.579   1.267  0.00  0.00    -0.020 C 
ATOM      3  C   LIG    1       -0.655   3.120   1.360  0.00  0.00    +0.180 C 
ATOM      4  N   LIG    1       -0.453   3.370   2.812  0.00  0.00    -0.530 NA
ATOM      5  H   LIG    1       -0.041   4.278   2.969  0.00  0.00    +0.350 HD
ATOM      6  N   LIG    1        0.456   2.298   3.240  0.00  0.00    -0.530 NA
ATOM      7  H   LIG    1        0.418   2.170   4.240  0.00  0.00    +0.350 HD
ATOM      8  C   LIG    1       -0.000   1.080   2.531  0.00  0.00    +0.180 C 
ENDROOT
TORSDOF 0
