REMARK  Name = ZINCvU0000000CZd.0
REMARK                            x       y       z     vdW  Elec       q    Type
REMARK                         _______ _______ _______ _____ _____    ______ ____
ROOT
ATOM      1  C   LIG    1       -2.574   7.785   1.250  0.00  0.00    +0.520 C 
ATOM      2  N   LIG    1       -3.235   8.422   0.264  0.00  0.00    -0.610 N 
ATOM      3  C   LIG    1       -2.965   9.837  -0.026  0.00  0.00    +0.270 C 
ATOM      4  C   LIG    1       -2.628   9.979  -1.514  0.00  0.00    +0.010 C 
ATOM      5  C   LIG    1       -3.758   9.372  -2.349  0.00  0.00    +0.020 C 
ATOM      6  C   LIG    1       -3.890   7.882  -2.024  0.00  0.00    +0.040 C 
ATOM      7  C   LIG    1       -4.240   7.715  -0.542  0.00  0.00    +0.310 C 
ATOM      8  O   LIG    1       -2.734   6.594   1.416  0.00  0.00    -0.500 OA
ENDROOT
BRANCH   7   9
ATOM      9  C   LIG    1       -4.237   6.252  -0.184  0.00  0.00    +0.240 A 
ATOM     10  N   LIG    1       -3.274   5.412  -0.440  0.00  0.00    -0.440 NA
ATOM     11  C   LIG    1       -3.615   4.192   0.024  0.00  0.00    +0.050 A 
ATOM     12  C   LIG    1       -4.848   4.293   0.585  0.00  0.00    +0.140 A 
ATOM     13  N   LIG    1       -5.232   5.598   0.455  0.00  0.00    -0.560 N 
ATOM     14  H   LIG    1       -6.068   5.984   0.761  0.00  0.00    +0.420 HD
BRANCH  11  15
ATOM     15  C   LIG    1       -2.793   2.960  -0.068  0.00  0.00    +0.040 A 
ATOM     16  C   LIG    1       -1.541   2.998  -0.679  0.00  0.00    +0.020 A 
ATOM     17  C   LIG    1       -0.780   1.850  -0.762  0.00  0.00    +0.040 A 
ATOM     18  C   LIG    1       -1.257   0.661  -0.241  0.00  0.00    -0.030 A 
ATOM     19  C   LIG    1       -2.501   0.616   0.368  0.00  0.00    +0.100 A 
ATOM     20  F   LIG    1       -2.962  -0.548   0.876  0.00  0.00    -0.140 F 
ATOM     21  C   LIG    1       -3.273   1.759   0.452  0.00  0.00    -0.020 A 
ENDBRANCH  11  15
ENDBRANCH   7   9
BRANCH   1  22
ATOM     22  C   LIG    1       -1.636   8.551   2.146  0.00  0.00    -0.010 C 
ATOM     23  C   LIG    1       -2.408   9.085   3.355  0.00  0.00    +0.050 C 
BRANCH  22  24
ATOM     24  C   LIG    1       -0.516   7.625   2.624  0.00  0.00    +0.090 C 
BRANCH  24  28
ATOM     25  C   LIG    1        2.331   9.877   4.879  0.00  0.00    +0.120 A 
ATOM     26  C   LIG    1        1.252   9.284   5.517  0.00  0.00    -0.020 A 
ATOM     27  C   LIG    1        0.333   8.557   4.786  0.00  0.00    +0.060 A 
ATOM     28  C   LIG    1        0.488   8.419   3.419  0.00  0.00    -0.120 A 
ATOM     29  C   LIG    1        1.566   9.004   2.781  0.00  0.00    +0.040 A 
ATOM     30  C   LIG    1        2.485   9.738   3.507  0.00  0.00    -0.080 A 
BRANCH  25  32
ATOM     31  C   LIG    1        4.322  11.176   4.872  0.00  0.00    +0.250 C 
ATOM     32  O   LIG    1        3.236  10.594   5.596  0.00  0.00    -0.320 OA
ENDBRANCH  25  32
ENDBRANCH  24  28
ENDBRANCH  22  24
ENDBRANCH   1  22
TORSDOF 6
