REMARK  Name = ZINCpe00000bflUa.0
REMARK                            x       y       z     vdW  Elec       q    Type
REMARK                         _______ _______ _______ _____ _____    ______ ____
ROOT
ATOM      1  N   LIG    1        6.165   2.451   1.115  0.00  0.00    -0.730 N 
ATOM      2  H   LIG    1        6.547   3.290   0.813  0.00  0.00    +0.410 HD
ATOM      3  C   LIG    1        4.827   2.289   1.137  0.00  0.00    +0.570 C 
ATOM      4  O   LIG    1        4.348   1.238   1.514  0.00  0.00    -0.530 OA
ENDROOT
BRANCH   3   5
ATOM      5  C   LIG    1        3.942   3.390   0.701  0.00  0.00    -0.140 A 
ATOM      6  C   LIG    1        4.488   4.599   0.266  0.00  0.00    +0.050 A 
ATOM      7  C   LIG    1        3.656   5.622  -0.139  0.00  0.00    +0.020 A 
ATOM      8  C   LIG    1        2.284   5.453  -0.115  0.00  0.00    +0.050 A 
ATOM      9  C   LIG    1        1.736   4.257   0.315  0.00  0.00    -0.070 A 
ATOM     10  C   LIG    1        2.556   3.228   0.728  0.00  0.00    +0.100 A 
BRANCH   9  11
ATOM     11  C   LIG    1        0.239   4.082   0.338  0.00  0.00    +0.030 C 
ATOM     12  C   LIG    1       -0.611   5.175  -0.313  0.00  0.00    +0.090 C 
ATOM     13  C   LIG    1       -0.572   5.042   1.211  0.00  0.00    +0.200 C 
ATOM     14  F   LIG    1        0.134   6.016   1.926  0.00  0.00    -0.150 F 
ATOM     15  F   LIG    1       -1.710   4.534   1.845  0.00  0.00    -0.160 F 
ENDBRANCH   9  11
ENDBRANCH   3   5
BRANCH   1  16
ATOM     16  C   LIG    1        7.042   1.360   1.546  0.00  0.00    +0.320 C 
BRANCH  16  21
ATOM     17  C   LIG    1       12.535   1.426   2.795  0.00  0.00    +0.110 C 
ATOM     18  C   LIG    1       11.489   2.503   2.668  0.00  0.00    +0.540 C 
ATOM     19  N   LIG    1       10.216   2.176   2.369  0.00  0.00    -0.650 N 
ATOM     20  C   LIG    1        8.970   2.941   2.172  0.00  0.00    +0.330 C 
ATOM     21  C   LIG    1        8.501   1.755   1.310  0.00  0.00    -0.150 C 
ATOM     22  C   LIG    1        9.510   0.907   2.106  0.00  0.00    +0.330 C 
ATOM     23  O   LIG    1       11.792   3.666   2.835  0.00  0.00    -0.530 OA
BRANCH  21  24
ATOM     24  C   LIG    1        8.842   1.894  -0.151  0.00  0.00    +0.550 C 
ATOM     25  O   LIG    1        9.142   2.979  -0.604  0.00  0.00    -0.520 OA
ATOM     26  N   LIG    1        8.815   0.813  -0.956  0.00  0.00    -0.850 N 
ATOM     27  H   LIG    1        8.964   0.914  -1.909  0.00  0.00    +0.410 HD
ATOM     28  H   LIG    1        8.647  -0.066  -0.582  0.00  0.00    +0.400 HD
ENDBRANCH  21  24
ENDBRANCH  16  21
ENDBRANCH   1  16
TORSDOF 5
