REMARK  Name = ZINCrH000004snO3.0
REMARK                            x       y       z     vdW  Elec       q    Type
REMARK                         _______ _______ _______ _____ _____    ______ ____
ROOT
ATOM      1  C   LIG    1        0.002  -0.004   0.002  0.00  0.00    +0.620 C 
ATOM      2  N   LIG    1       -0.016   1.344   0.009  0.00  0.00    -0.710 N 
ATOM      3  H   LIG    1        0.817   1.840   0.004  0.00  0.00    +0.400 HD
ATOM      4  O   LIG    1       -1.044  -0.627   0.009  0.00  0.00    -0.510 OA
ENDROOT
BRANCH   1   7
ATOM      5  C   LIG    1        0.363  -3.112  -0.017  0.00  0.00    +0.190 C 
ATOM      6  C   LIG    1        1.456  -2.074  -0.023  0.00  0.00    +0.100 A 
ATOM      7  C   LIG    1        1.281  -0.720  -0.014  0.00  0.00    -0.130 A 
ATOM      8  O   LIG    1        2.516  -0.164  -0.029  0.00  0.00    -0.180 OA
ATOM      9  C   LIG    1        3.411  -1.164  -0.037  0.00  0.00    +0.270 A 
ATOM     10  N   LIG    1        2.767  -2.313  -0.037  0.00  0.00    -0.480 NA
BRANCH   9  11
ATOM     11  C   LIG    1        4.879  -1.003  -0.052  0.00  0.00    -0.030 A 
ATOM     12  C   LIG    1        5.444   0.274  -0.057  0.00  0.00    +0.050 A 
ATOM     13  C   LIG    1        6.816   0.417  -0.066  0.00  0.00    +0.010 A 
ATOM     14  C   LIG    1        7.632  -0.700  -0.080  0.00  0.00    +0.040 A 
ATOM     15  C   LIG    1        7.078  -1.968  -0.079  0.00  0.00    +0.020 A 
ATOM     16  C   LIG    1        5.708  -2.127  -0.066  0.00  0.00    +0.080 A 
ENDBRANCH   9  11
ENDBRANCH   1   7
BRANCH   2  17
ATOM     17  C   LIG    1       -1.295   2.059   0.019  0.00  0.00    +0.240 C 
ATOM     18  C   LIG    1       -1.765   2.297   1.473  0.00  0.00    +0.050 C 
ATOM     19  C   LIG    1       -1.288   3.743   1.758  0.00  0.00    +0.190 C 
ATOM     20  N   LIG    1       -1.509   4.436   0.463  0.00  0.00    -0.450 N 
ATOM     21  C   LIG    1       -1.125   3.465  -0.584  0.00  0.00    +0.220 C 
BRANCH  20  22
ATOM     22  C   LIG    1       -0.740   5.591   0.379  0.00  0.00    +0.310 A 
ATOM     23  N   LIG    1        0.191   5.693  -0.557  0.00  0.00    -0.510 NA
ATOM     24  C   LIG    1        0.939   6.774  -0.676  0.00  0.00    +0.300 A 
ATOM     25  C   LIG    1        0.783   7.840   0.186  0.00  0.00    -0.030 A 
ATOM     26  C   LIG    1       -0.179   7.773   1.186  0.00  0.00    +0.100 A 
ATOM     27  C   LIG    1       -0.952   6.629   1.282  0.00  0.00    -0.100 A 
ATOM     28 CL   LIG    1       -2.168   6.490   2.513  0.00  0.00    -0.040 Cl
ENDBRANCH  20  22
ENDBRANCH   2  17
TORSDOF 4
