REMARK  Name = ZINCrH00000tj0Oa.0
REMARK                            x       y       z     vdW  Elec       q    Type
REMARK                         _______ _______ _______ _____ _____    ______ ____
ROOT
ATOM      1  C   LIG    1       -1.528  -0.496   1.528  0.00  0.00    -0.270 C 
ATOM      2  C   LIG    1       -2.826  -0.261   1.817  0.00  0.00    +0.250 C 
ATOM      3  N   LIG    1       -3.784  -0.297   0.842  0.00  0.00    -0.500 N 
ATOM      4  C   LIG    1       -3.523  -0.562  -0.445  0.00  0.00    +0.700 C 
ATOM      5  N   LIG    1       -2.275  -0.818  -0.886  0.00  0.00    -0.600 N 
ATOM      6  C   LIG    1       -2.024  -1.103  -2.301  0.00  0.00    +0.350 C 
ATOM      7  O   LIG    1       -4.441  -0.572  -1.241  0.00  0.00    -0.540 OA
ATOM      8  C   LIG    1       -3.226   0.046   3.237  0.00  0.00    +0.160 C 
ATOM      9  C   LIG    1       -1.171  -0.802   0.088  0.00  0.00    +0.370 C 
ENDROOT
BRANCH   3  10
ATOM     10  C   LIG    1       -5.112  -0.044   1.208  0.00  0.00    +0.130 A 
ATOM     11  C   LIG    1       -5.611   1.251   1.165  0.00  0.00    +0.100 A 
ATOM     12  C   LIG    1       -6.921   1.497   1.527  0.00  0.00    +0.060 A 
ATOM     13  C   LIG    1       -7.735   0.456   1.933  0.00  0.00    +0.120 A 
ATOM     14  C   LIG    1       -7.241  -0.835   1.977  0.00  0.00    -0.030 A 
ATOM     15  C   LIG    1       -5.933  -1.088   1.612  0.00  0.00    +0.120 A 
BRANCH  14  16
ATOM     16  N   LIG    1       -8.116  -1.947   2.412  0.00  0.00    +0.030 N 
ATOM     17  O   LIG    1       -7.681  -3.084   2.452  0.00  0.00    -0.150 OA
ATOM     18  O   LIG    1       -9.270  -1.724   2.731  0.00  0.00    -0.150 OA
ENDBRANCH  14  16
ENDBRANCH   3  10
BRANCH   9  19
ATOM     19  C   LIG    1       -0.164   0.222  -0.368  0.00  0.00    -0.210 A 
ATOM     20  C   LIG    1        1.161   0.077  -0.309  0.00  0.00    +0.050 A 
ATOM     21  C   LIG    1        1.888   1.154  -0.787  0.00  0.00    +0.000 A 
ATOM     22  C   LIG    1        1.153   2.174  -1.234  0.00  0.00    -0.050 A 
ATOM     23  S   LIG    1       -0.555   1.791  -1.059  0.00  0.00    +0.100 S 
ENDBRANCH   9  19
BRANCH   1  24
ATOM     24  C   LIG    1       -0.536  -0.460   2.536  0.00  0.00    +0.540 C 
ATOM     25  O   LIG    1       -0.847  -0.212   3.686  0.00  0.00    -0.510 OA
BRANCH  24  27
ATOM     26  C   LIG    1        1.702  -0.646   3.290  0.00  0.00    +0.260 C 
ATOM     27  O   LIG    1        0.754  -0.700   2.222  0.00  0.00    -0.340 OA
ENDBRANCH  24  27
ENDBRANCH   1  24
TORSDOF 5
