REMARK  Name = ZINCpe00000MJKqu.0
REMARK                            x       y       z     vdW  Elec       q    Type
REMARK                         _______ _______ _______ _____ _____    ______ ____
ROOT
ATOM      1  C   LIG    1        1.421   1.618  -0.003  0.00  0.00    +0.340 C 
ATOM      2  C   LIG    1       -0.013   1.086   0.008  0.00  0.00    -0.010 C 
ATOM      3  C   LIG    1       -0.736   1.597  -1.244  0.00  0.00    +0.040 C 
ATOM      4  C   LIG    1       -0.104   0.936  -2.471  0.00  0.00    +0.090 C 
ATOM      5  C   LIG    1        1.391   1.058  -2.405  0.00  0.00    +0.520 C 
ATOM      6  O   LIG    1        2.027   0.888  -3.423  0.00  0.00    -0.540 OA
ATOM      7  N   LIG    1        2.057   1.344  -1.285  0.00  0.00    -0.590 N 
ATOM      8  C   LIG    1        3.520   1.385  -1.348  0.00  0.00    +0.290 C 
ENDROOT
BRANCH   1  14
ATOM      9  C   LIG    1        2.276   2.898   2.686  0.00  0.00    +0.320 C 
ATOM     10  N   LIG    1        2.572   1.527   2.263  0.00  0.00    -0.450 N 
ATOM     11  C   LIG    1        3.266   0.588   2.978  0.00  0.00    +0.140 A 
ATOM     12  C   LIG    1        3.309  -0.524   2.220  0.00  0.00    +0.140 A 
ATOM     13  N   LIG    1        2.655  -0.273   1.076  0.00  0.00    -0.470 NA
ATOM     14  C   LIG    1        2.208   0.953   1.096  0.00  0.00    +0.180 A 
ENDBRANCH   1  14
BRANCH   2  15
ATOM     15  C   LIG    1       -0.735   1.583   1.262  0.00  0.00    +0.290 C 
BRANCH  15  16
ATOM     16  N   LIG    1       -2.070   0.982   1.327  0.00  0.00    -0.690 N 
ATOM     17  H   LIG    1       -2.361   0.371   0.631  0.00  0.00    +0.420 HD
BRANCH  16  18
ATOM     18  C   LIG    1       -2.919   1.286   2.385  0.00  0.00    +0.420 A 
ATOM     19  N   LIG    1       -2.516   2.112   3.322  0.00  0.00    -0.340 NA
ATOM     20  N   LIG    1       -3.353   2.431   4.394  0.00  0.00    -0.270 N 
ATOM     21  C   LIG    1       -3.224   3.224   5.478  0.00  0.00    +0.410 A 
ATOM     22  N   LIG    1       -4.338   3.148   6.163  0.00  0.00    -0.260 NA
ATOM     23  N   LIG    1       -5.165   2.354   5.577  0.00  0.00    -0.250 NA
ATOM     24  C   LIG    1       -4.608   1.879   4.475  0.00  0.00    +0.120 A 
ATOM     25  C   LIG    1       -5.038   0.993   3.469  0.00  0.00    +0.190 A 
ATOM     26  C   LIG    1       -4.202   0.707   2.436  0.00  0.00    -0.020 A 
ENDBRANCH  16  18
ENDBRANCH  15  16
ENDBRANCH   2  15
TORSDOF 4
