REMARK  Name = ZINCqH0000007jr9.0
REMARK                            x       y       z     vdW  Elec       q    Type
REMARK                         _______ _______ _______ _____ _____    ______ ____
ROOT
ATOM      1  C   LIG    1        1.163   3.161  -0.010  0.00  0.00    +0.130 A 
ATOM      2  C   LIG    1        1.168   1.788  -0.192  0.00  0.00    -0.040 A 
ATOM      3  C   LIG    1       -0.021   1.083  -0.178  0.00  0.00    +0.070 A 
ATOM      4  C   LIG    1       -1.224   1.750   0.012  0.00  0.00    +0.110 A 
ATOM      5  C   LIG    1       -1.233   3.126   0.200  0.00  0.00    +0.050 A 
ATOM      6  C   LIG    1       -0.041   3.833   0.187  0.00  0.00    +0.120 A 
ENDROOT
BRANCH   6   7
ATOM      7  N   LIG    1       -0.048   5.223   0.371  0.00  0.00    -0.550 N 
ATOM      8  C   LIG    1        0.063   5.731   1.732  0.00  0.00    +0.270 C 
ATOM      9  C   LIG    1        0.508   7.194   1.722  0.00  0.00    +0.030 C 
ATOM     10  C   LIG    1       -0.399   7.977   0.765  0.00  0.00    +0.030 C 
ATOM     11  C   LIG    1       -0.127   7.497  -0.662  0.00  0.00    +0.070 C 
ATOM     12  C   LIG    1       -0.150   5.996  -0.711  0.00  0.00    +0.520 C 
ATOM     13  O   LIG    1       -0.272   5.458  -1.791  0.00  0.00    -0.540 OA
ENDBRANCH   6   7
BRANCH   4  14
ATOM     14  N   LIG    1       -2.427   1.035   0.019  0.00  0.00    -0.660 N 
ATOM     15  H   LIG    1       -3.236   1.443  -0.326  0.00  0.00    +0.410 HD
ATOM     16  C   LIG    1       -2.461  -0.222   0.506  0.00  0.00    +0.560 C 
ATOM     17  O   LIG    1       -1.471  -0.699   1.026  0.00  0.00    -0.500 OA
BRANCH  16  18
ATOM     18  C   LIG    1       -3.702  -1.019   0.407  0.00  0.00    -0.080 A 
ATOM     19  C   LIG    1       -4.841  -0.472  -0.184  0.00  0.00    +0.020 A 
ATOM     20  C   LIG    1       -5.997  -1.224  -0.278  0.00  0.00    +0.130 A 
ATOM     21  C   LIG    1       -6.029  -2.515   0.223  0.00  0.00    +0.000 A 
ATOM     22  C   LIG    1       -4.903  -3.061   0.816  0.00  0.00    +0.130 A 
ATOM     23  F   LIG    1       -4.941  -4.321   1.303  0.00  0.00    -0.120 F 
ATOM     24  F   LIG    1       -7.099  -0.697  -0.856  0.00  0.00    -0.120 F 
ATOM     25  C   LIG    1       -3.740  -2.321   0.910  0.00  0.00    +0.060 A 
ENDBRANCH  16  18
ENDBRANCH   4  14
BRANCH   1  27
ATOM     26  C   LIG    1        3.531   3.100  -0.232  0.00  0.00    +0.240 C 
ATOM     27  O   LIG    1        2.334   3.854  -0.024  0.00  0.00    -0.310 OA
ENDBRANCH   1  27
TORSDOF 4
