REMARK  Name = ZINCpk000000nATH.1
REMARK                            x       y       z     vdW  Elec       q    Type
REMARK                         _______ _______ _______ _____ _____    ______ ____
ROOT
ATOM      1  C   LIG    1        1.082   6.446  -3.203  0.00  0.00    +0.020 A 
ATOM      2  N   LIG    1        1.012   5.582  -2.215  0.00  0.00    -0.170 NA
ATOM      3  N   LIG    1       -0.098   5.280  -1.645  0.00  0.00    -0.340 N 
ATOM      4  C   LIG    1       -1.265   5.830  -2.030  0.00  0.00    +0.480 A 
ATOM      5  C   LIG    1       -1.277   6.774  -3.081  0.00  0.00    -0.010 A 
ATOM      6  O   LIG    1       -2.304   5.520  -1.471  0.00  0.00    -0.520 OA
ATOM      7  C   LIG    1       -0.090   7.083  -3.676  0.00  0.00    +0.120 A 
ENDROOT
BRANCH   1  13
ATOM      8  N   LIG    1        5.617   7.283  -1.393  0.00  0.00    -0.530 NA
ATOM      9  C   LIG    1        4.271   7.096  -0.836  0.00  0.00    +0.170 C 
ATOM     10  C   LIG    1        3.486   6.122  -1.721  0.00  0.00    +0.300 C 
ATOM     11  N   LIG    1        3.523   6.617  -3.106  0.00  0.00    -0.590 N 
ATOM     12  C   LIG    1        4.830   6.952  -3.691  0.00  0.00    +0.300 C 
ATOM     13  C   LIG    1        2.389   6.754  -3.822  0.00  0.00    +0.590 C 
ATOM     14  O   LIG    1        2.441   7.131  -4.976  0.00  0.00    -0.520 OA
ATOM     15  C   LIG    1        5.562   7.898  -2.725  0.00  0.00    +0.160 C 
BRANCH   8  17
ATOM     16  C   LIG    1        7.883   8.140  -1.036  0.00  0.00    +0.040 C 
ATOM     17  C   LIG    1        6.459   8.072  -0.483  0.00  0.00    +0.160 C 
ATOM     18  C   LIG    1        5.890   9.487  -0.362  0.00  0.00    -0.020 C 
ENDBRANCH   8  17
ENDBRANCH   1  13
BRANCH   3  19
ATOM     19  C   LIG    1       -0.096   4.306  -0.551  0.00  0.00    +0.380 C 
BRANCH  19  20
ATOM     20  C   LIG    1       -0.289   2.921  -1.111  0.00  0.00    -0.130 A 
ATOM     21  C   LIG    1        0.807   2.164  -1.478  0.00  0.00    +0.040 A 
ATOM     22  C   LIG    1        0.629   0.893  -1.992  0.00  0.00    +0.000 A 
ATOM     23  C   LIG    1       -0.645   0.379  -2.139  0.00  0.00    +0.020 A 
ATOM     24  C   LIG    1       -1.742   1.138  -1.777  0.00  0.00    +0.010 A 
ATOM     25  C   LIG    1       -1.564   2.407  -1.258  0.00  0.00    +0.040 A 
ENDBRANCH  19  20
ENDBRANCH   3  19
TORSDOF 4
