REMARK  Name = ZINCtV00000L6l6o.0
REMARK                            x       y       z     vdW  Elec       q    Type
REMARK                         _______ _______ _______ _____ _____    ______ ____
ROOT
ATOM      1  C   LIG    1        8.558   1.092   1.751  0.00  0.00    +0.080 A 
ATOM      2  C   LIG    1        9.259   0.119   1.050  0.00  0.00    +0.040 A 
ATOM      3  C   LIG    1       10.405   0.458   0.358  0.00  0.00    -0.050 A 
ATOM      4  C   LIG    1       10.863   1.769   0.373  0.00  0.00    +0.210 A 
ATOM      5  C   LIG    1       10.165   2.741   1.079  0.00  0.00    -0.040 A 
ATOM      6  C   LIG    1        9.016   2.403   1.766  0.00  0.00    +0.070 A 
ENDROOT
BRANCH   1   8
ATOM      7  C   LIG    1        6.368   1.621   2.517  0.00  0.00    +0.600 C 
ATOM      8  N   LIG    1        7.393   0.749   2.449  0.00  0.00    -0.660 N 
ATOM      9  H   LIG    1        7.324  -0.116   2.882  0.00  0.00    +0.410 HD
ATOM     10  O   LIG    1        6.485   2.736   2.045  0.00  0.00    -0.500 OA
BRANCH   7  13
ATOM     11  C   LIG    1        3.859   3.436   2.807  0.00  0.00    +0.140 C 
ATOM     12  C   LIG    1        4.012   2.017   3.289  0.00  0.00    -0.070 A 
ATOM     13  C   LIG    1        5.108   1.225   3.162  0.00  0.00    -0.050 A 
ATOM     14  O   LIG    1        4.866   0.019   3.718  0.00  0.00    -0.190 OA
ATOM     15  C   LIG    1        3.620  -0.033   4.226  0.00  0.00    +0.080 A 
ATOM     16  C   LIG    1        2.901  -1.023   4.886  0.00  0.00    +0.030 A 
ATOM     17  C   LIG    1        1.609  -0.775   5.297  0.00  0.00    +0.060 A 
ATOM     18  C   LIG    1        1.014   0.456   5.061  0.00  0.00    -0.010 A 
ATOM     19  C   LIG    1        1.701   1.445   4.414  0.00  0.00    +0.070 A 
ATOM     20  C   LIG    1        3.011   1.214   3.989  0.00  0.00    -0.150 A 
ENDBRANCH   7  13
ENDBRANCH   1   8
BRANCH   4  21
ATOM     21  N   LIG    1       12.027   2.112  -0.323  0.00  0.00    -0.580 N 
BRANCH  21  22
ATOM     22  C   LIG    1       12.537   3.409  -0.236  0.00  0.00    +0.150 A 
ATOM     23  C   LIG    1       11.960   4.436  -0.973  0.00  0.00    +0.000 A 
ATOM     24  C   LIG    1       12.464   5.718  -0.880  0.00  0.00    +0.020 A 
ATOM     25  C   LIG    1       13.549   5.979  -0.064  0.00  0.00    +0.000 A 
ATOM     26  C   LIG    1       14.129   4.959   0.668  0.00  0.00    +0.010 A 
ATOM     27  C   LIG    1       13.627   3.675   0.584  0.00  0.00    +0.000 A 
ENDBRANCH  21  22
BRANCH  21  28
ATOM     28  C   LIG    1       12.711   1.109  -1.145  0.00  0.00    +0.240 C 
ATOM     29  C   LIG    1       14.081   0.801  -0.537  0.00  0.00    +0.020 C 
ATOM     30  C   LIG    1       12.892   1.651  -2.564  0.00  0.00    +0.030 C 
ENDBRANCH  21  28
ENDBRANCH   4  21
TORSDOF 5
