REMARK  Name = ZINCrD0000073wB7.0
REMARK                            x       y       z     vdW  Elec       q    Type
REMARK                         _______ _______ _______ _____ _____    ______ ____
ROOT
ATOM      1  N   LIG    1        0.173  -0.223   2.702  0.00  0.00    -0.720 N 
ATOM      2  H   LIG    1       -0.188  -0.864   2.070  0.00  0.00    +0.400 HD
ATOM      3  C   LIG    1        0.012   1.098   2.488  0.00  0.00    +0.520 C 
ATOM      4  O   LIG    1        0.464   1.899   3.279  0.00  0.00    -0.530 OA
ENDROOT
BRANCH   3   5
ATOM      5  C   LIG    1       -0.729   1.579   1.267  0.00  0.00    +0.000 C 
ATOM      6  C   LIG    1       -0.764   3.110   1.262  0.00  0.00    +0.040 C 
ATOM      7  C   LIG    1       -1.466   3.591  -0.011  0.00  0.00    +0.040 C 
ATOM      8  C   LIG    1       -0.729   3.040  -1.234  0.00  0.00    +0.190 C 
ATOM      9  N   LIG    1       -0.723   1.572  -1.182  0.00  0.00    -0.460 N 
ATOM     10  C   LIG    1       -0.013   1.086   0.008  0.00  0.00    +0.220 C 
BRANCH   9  11
ATOM     11  C   LIG    1       -0.176   1.035  -2.343  0.00  0.00    +0.260 A 
ATOM     12  C   LIG    1       -0.707   1.371  -3.588  0.00  0.00    +0.040 A 
ATOM     13  C   LIG    1       -0.127   0.809  -4.714  0.00  0.00    +0.080 A 
ATOM     14  C   LIG    1        0.947  -0.054  -4.533  0.00  0.00    +0.090 A 
ATOM     15  N   LIG    1        1.385  -0.316  -3.317  0.00  0.00    -0.200 NA
ATOM     16 CL   LIG    1        1.712  -0.787  -5.908  0.00  0.00    -0.000 Cl
ATOM     17  N   LIG    1        0.855   0.206  -2.271  0.00  0.00    -0.260 NA
ENDBRANCH   9  11
ENDBRANCH   3   5
BRANCH   1  18
ATOM     18  C   LIG    1        0.893  -0.691   3.889  0.00  0.00    +0.290 C 
ATOM     19  C   LIG    1        2.396  -0.704   3.602  0.00  0.00    +0.040 C 
BRANCH  18  23
ATOM     20  C   LIG    1       -0.403  -4.644   4.874  0.00  0.00    +0.100 A 
ATOM     21  C   LIG    1       -0.217  -4.283   3.548  0.00  0.00    -0.040 A 
ATOM     22  C   LIG    1        0.197  -3.003   3.232  0.00  0.00    +0.050 A 
ATOM     23  C   LIG    1        0.436  -2.084   4.237  0.00  0.00    -0.100 A 
ATOM     24  C   LIG    1        0.252  -2.440   5.561  0.00  0.00    +0.050 A 
ATOM     25  C   LIG    1       -0.167  -3.718   5.882  0.00  0.00    +0.080 A 
ATOM     26  F   LIG    1       -0.346  -4.066   7.176  0.00  0.00    -0.130 F 
BRANCH  20  28
ATOM     27  C   LIG    1       -1.038  -6.800   4.098  0.00  0.00    +0.250 C 
ATOM     28  O   LIG    1       -0.815  -5.901   5.186  0.00  0.00    -0.310 OA
ENDBRANCH  20  28
ENDBRANCH  18  23
ENDBRANCH   1  18
TORSDOF 5
