REMARK  Name = ZINCqH0000004bDx.0
REMARK                            x       y       z     vdW  Elec       q    Type
REMARK                         _______ _______ _______ _____ _____    ______ ____
ROOT
ATOM      1  C   LIG    1       -0.956   1.681   3.413  0.00  0.00    +0.310 C 
ATOM      2  C   LIG    1        0.385   1.915   4.089  0.00  0.00    -0.110 A 
ATOM      3  C   LIG    1        1.545   1.463   3.577  0.00  0.00    -0.180 A 
ATOM      4  S   LIG    1        2.879   1.908   4.634  0.00  0.00    +0.100 S 
ATOM      5  C   LIG    1        1.777   2.712   5.742  0.00  0.00    -0.040 A 
ATOM      6  C   LIG    1        1.682   0.688   2.284  0.00  0.00    +0.100 C 
ATOM      7  C   LIG    1        0.315   0.112   1.898  0.00  0.00    +0.290 C 
ATOM      8  C   LIG    1        0.533   2.608   5.287  0.00  0.00    +0.020 A 
ATOM      9  N   LIG    1       -0.699   1.165   2.061  0.00  0.00    -0.610 N 
ATOM     10  C   LIG    1       -1.370   1.648   0.997  0.00  0.00    +0.520 C 
ATOM     11  O   LIG    1       -2.277   2.437   1.160  0.00  0.00    -0.490 OA
ENDROOT
BRANCH   1  13
ATOM     12  C   LIG    1       -0.909   4.020   2.536  0.00  0.00    +0.010 C 
ATOM     13  C   LIG    1       -1.729   2.998   3.327  0.00  0.00    +0.040 C 
ENDBRANCH   1  13
BRANCH  10  14
ATOM     14  C   LIG    1       -0.995   1.208  -0.395  0.00  0.00    +0.240 C 
BRANCH  14  15
ATOM     15  O   LIG    1       -1.846   1.854  -1.344  0.00  0.00    -0.280 OA
BRANCH  15  16
ATOM     16  C   LIG    1       -1.638   1.565  -2.654  0.00  0.00    +0.190 A 
ATOM     17  C   LIG    1       -0.630   0.672  -3.013  0.00  0.00    -0.090 A 
ATOM     18  C   LIG    1       -0.410   0.371  -4.326  0.00  0.00    +0.140 A 
ATOM     19  C   LIG    1       -1.200   0.962  -5.318  0.00  0.00    -0.200 A 
ATOM     20  C   LIG    1       -0.986   0.658  -6.734  0.00  0.00    +0.160 A 
ATOM     21  C   LIG    1       -1.786   1.265  -7.649  0.00  0.00    -0.080 A 
ATOM     22  C   LIG    1       -2.789   2.159  -7.221  0.00  0.00    +0.510 A 
ATOM     23  O   LIG    1       -2.980   2.433  -5.921  0.00  0.00    -0.270 OA
ATOM     24  O   LIG    1       -3.499   2.696  -8.052  0.00  0.00    -0.460 OA
ATOM     25  C   LIG    1       -2.220   1.865  -4.961  0.00  0.00    +0.190 A 
ATOM     26  C   LIG    1       -2.434   2.155  -3.622  0.00  0.00    -0.010 A 
ENDBRANCH  15  16
ENDBRANCH  14  15
ENDBRANCH  10  14
TORSDOF 4
