REMARK  Name = ZINCpk00000kBxw0.0
REMARK                            x       y       z     vdW  Elec       q    Type
REMARK                         _______ _______ _______ _____ _____    ______ ____
ROOT
ATOM      1  C   LIG    1        0.002  -0.004   0.002  0.00  0.00    -0.140 A 
ATOM      2  C   LIG    1       -0.017   1.391   0.010  0.00  0.00    +0.060 A 
ATOM      3  C   LIG    1        1.170   2.094   0.002  0.00  0.00    +0.000 A 
ATOM      4  C   LIG    1        2.378   1.419  -0.013  0.00  0.00    +0.060 A 
ATOM      5  C   LIG    1        2.403   0.035  -0.021  0.00  0.00    -0.120 A 
ATOM      6  C   LIG    1        1.224  -0.679  -0.013  0.00  0.00    +0.100 A 
ENDROOT
BRANCH   1   9
ATOM      7  N   LIG    1       -2.444  -0.109   0.024  0.00  0.00    -0.720 N 
ATOM      8  H   LIG    1       -2.460   0.861   0.029  0.00  0.00    +0.400 HD
ATOM      9  C   LIG    1       -1.266  -0.764   0.010  0.00  0.00    +0.560 C 
ATOM     10  O   LIG    1       -1.247  -1.979   0.003  0.00  0.00    -0.530 OA
BRANCH   7  19
ATOM     11  C   LIG    1       -4.580   0.188  -2.055  0.00  0.00    +0.040 C 
ATOM     12  C   LIG    1       -4.819   0.001  -0.555  0.00  0.00    +0.210 C 
ATOM     13  N   LIG    1       -6.114  -0.637  -0.354  0.00  0.00    -0.710 N 
ATOM     14  H   LIG    1       -6.854  -0.348  -0.910  0.00  0.00    +0.400 HD
ATOM     15  C   LIG    1       -6.345  -1.593   0.547  0.00  0.00    +0.520 C 
ATOM     16  C   LIG    1       -5.281  -2.167   1.437  0.00  0.00    +0.090 C 
ATOM     17  C   LIG    1       -4.068  -1.235   1.473  0.00  0.00    +0.020 C 
ATOM     18  O   LIG    1       -7.475  -2.021   0.652  0.00  0.00    -0.550 OA
ATOM     19  C   LIG    1       -3.701  -0.862   0.031  0.00  0.00    +0.240 C 
ENDBRANCH   7  19
ENDBRANCH   1   9
BRANCH   5  20
ATOM     20  C   LIG    1        3.723  -0.692  -0.038  0.00  0.00    +0.330 C 
BRANCH  20  21
ATOM     21  N   LIG    1        4.137  -0.920  -1.424  0.00  0.00    -0.710 N 
ATOM     22  H   LIG    1        3.578  -0.611  -2.155  0.00  0.00    +0.410 HD
BRANCH  21  23
ATOM     23  C   LIG    1        5.328  -1.576  -1.693  0.00  0.00    +0.440 A 
ATOM     24  C   LIG    1        6.141  -2.024  -0.650  0.00  0.00    -0.150 A 
ATOM     25  C   LIG    1        7.318  -2.673  -0.970  0.00  0.00    +0.350 A 
ATOM     26  N   LIG    1        7.634  -2.848  -2.245  0.00  0.00    -0.560 NA
ATOM     27  C   LIG    1        6.845  -2.412  -3.207  0.00  0.00    +0.540 A 
ATOM     28  N   LIG    1        5.711  -1.793  -2.948  0.00  0.00    -0.580 NA
ENDBRANCH  21  23
ENDBRANCH  20  21
ENDBRANCH   5  20
TORSDOF 5
