REMARK  Name = ZINCtj0000001y8h.1
REMARK                            x       y       z     vdW  Elec       q    Type
REMARK                         _______ _______ _______ _____ _____    ______ ____
ROOT
ATOM      1  C   LIG    1        1.167   2.217   0.003  0.00  0.00    +0.220 C 
ATOM      2  C   LIG    1        0.661   3.674   0.042  0.00  0.00    +0.040 C 
ATOM      3  C   LIG    1       -0.764   3.531   0.639  0.00  0.00    +0.060 C 
ATOM      4  C   LIG    1       -1.226   2.186   0.019  0.00  0.00    +0.260 C 
ATOM      5  N   LIG    1       -0.016   1.344   0.009  0.00  0.00    -0.610 N 
ATOM      6  C   LIG    1        0.002  -0.004   0.002  0.00  0.00    +0.540 C 
ATOM      7  O   LIG    1        1.060  -0.596  -0.011  0.00  0.00    -0.530 OA
ENDROOT
BRANCH   1  14
ATOM      8  C   LIG    1        7.240   3.205  -1.136  0.00  0.00    +0.330 C 
ATOM      9  N   LIG    1        5.812   3.365  -1.438  0.00  0.00    -0.380 N 
ATOM     10  C   LIG    1        5.361   2.244  -2.272  0.00  0.00    +0.250 C 
ATOM     11  C   LIG    1        3.901   2.469  -2.683  0.00  0.00    +0.320 C 
ATOM     12  N   LIG    1        3.102   2.681  -1.466  0.00  0.00    -0.640 N 
ATOM     13  C   LIG    1        3.571   3.680  -0.494  0.00  0.00    +0.310 C 
ATOM     14  C   LIG    1        1.969   1.983  -1.251  0.00  0.00    +0.520 C 
ATOM     15  O   LIG    1        1.596   1.166  -2.067  0.00  0.00    -0.490 OA
ATOM     16  C   LIG    1        5.048   3.394  -0.184  0.00  0.00    +0.260 C 
ATOM     17  H   LIG    1        5.671   4.231  -1.936  0.00  0.00    +0.430 HD
ENDBRANCH   1  14
BRANCH   6  18
ATOM     18  C   LIG    1       -1.293  -0.775   0.010  0.00  0.00    +0.060 C 
BRANCH  18  19
ATOM     19  C   LIG    1       -0.993  -2.276  -0.001  0.00  0.00    +0.080 C 
BRANCH  19  20
ATOM     20  C   LIG    1       -2.307  -3.058   0.008  0.00  0.00    +0.010 C 
ATOM     21  C   LIG    1       -2.007  -4.553   0.122  0.00  0.00    +0.110 C 
ATOM     22  C   LIG    1       -1.430  -5.056  -1.176  0.00  0.00    -0.120 A 
ATOM     23  C   LIG    1       -0.488  -6.066  -1.166  0.00  0.00    +0.050 A 
ATOM     24  C   LIG    1        0.034  -6.538  -2.356  0.00  0.00    -0.010 A 
ATOM     25  C   LIG    1       -0.385  -6.000  -3.559  0.00  0.00    +0.040 A 
ATOM     26  C   LIG    1       -1.323  -4.986  -3.575  0.00  0.00    -0.020 A 
ATOM     27  C   LIG    1       -1.844  -4.506  -2.380  0.00  0.00    +0.160 A 
ATOM     28  N   LIG    1       -2.768  -3.457  -2.394  0.00  0.00    -0.660 N 
ATOM     29  H   LIG    1       -3.202  -3.210  -3.226  0.00  0.00    +0.410 HD
ATOM     30  C   LIG    1       -3.061  -2.785  -1.267  0.00  0.00    +0.530 C 
ATOM     31  O   LIG    1       -3.941  -1.951  -1.277  0.00  0.00    -0.520 OA
ENDBRANCH  19  20
ENDBRANCH  18  19
ENDBRANCH   6  18
TORSDOF 4
