REMARK  Name = ZINCrH000004u3ds.0
REMARK                            x       y       z     vdW  Elec       q    Type
REMARK                         _______ _______ _______ _____ _____    ______ ____
ROOT
ATOM      1  O   LIG    1        5.412   4.465  -3.418  0.00  0.00    -0.560 OA
ATOM      2  C   LIG    1        6.546   4.528  -2.982  0.00  0.00    +0.720 C 
ATOM      3  N   LIG    1        6.815   4.085  -1.738  0.00  0.00    -0.640 N 
ATOM      4  H   LIG    1        7.719   4.135  -1.391  0.00  0.00    +0.410 HD
ATOM      5  N   LIG    1        7.533   5.042  -3.743  0.00  0.00    -0.730 N 
ATOM      6  H   LIG    1        8.437   5.093  -3.395  0.00  0.00    +0.400 HD
ENDROOT
BRANCH   3   7
ATOM      7  C   LIG    1        5.793   3.553  -0.951  0.00  0.00    +0.270 A 
ATOM      8  N   LIG    1        5.902   3.086   0.265  0.00  0.00    -0.390 NA
ATOM      9  O   LIG    1        4.838   2.694   0.685  0.00  0.00    +0.100 OA
ATOM     10  C   LIG    1        3.859   2.851  -0.218  0.00  0.00    -0.010 A 
ATOM     11  C   LIG    1        4.428   3.406  -1.312  0.00  0.00    -0.030 A 
BRANCH  10  12
ATOM     12  C   LIG    1        2.409   2.477  -0.048  0.00  0.00    +0.100 C 
ATOM     13  C   LIG    1        1.819   3.240   1.141  0.00  0.00    +0.010 C 
ATOM     14  C   LIG    1        0.369   2.796   1.355  0.00  0.00    +0.210 C 
ATOM     15  O   LIG    1        0.332   1.383   1.566  0.00  0.00    -0.380 OA
ATOM     16  C   LIG    1        0.828   0.615   0.467  0.00  0.00    +0.210 C 
ATOM     17  C   LIG    1        2.296   0.973   0.218  0.00  0.00    +0.010 C 
ENDBRANCH  10  12
ENDBRANCH   3   7
BRANCH   5  18
ATOM     18  C   LIG    1        7.240   5.524  -5.095  0.00  0.00    +0.340 C 
BRANCH  18  19
ATOM     19  C   LIG    1        8.524   6.053  -5.737  0.00  0.00    -0.110 C 
ATOM     20  C   LIG    1        8.623   7.560  -5.981  0.00  0.00    +0.050 C 
ATOM     21  C   LIG    1        8.427   6.605  -7.160  0.00  0.00    +0.060 C 
BRANCH  19  22
ATOM     22  C   LIG    1        9.788   5.324  -5.358  0.00  0.00    -0.100 A 
ATOM     23  C   LIG    1       10.770   5.975  -4.636  0.00  0.00    +0.090 A 
ATOM     24  C   LIG    1       11.929   5.308  -4.287  0.00  0.00    -0.010 A 
ATOM     25  C   LIG    1       12.108   3.987  -4.660  0.00  0.00    +0.130 A 
ATOM     26  C   LIG    1       11.125   3.334  -5.384  0.00  0.00    -0.040 A 
ATOM     27  F   LIG    1       13.241   3.335  -4.319  0.00  0.00    -0.130 F 
ATOM     28  C   LIG    1        9.962   4.002  -5.728  0.00  0.00    +0.150 A 
ATOM     29  F   LIG    1        8.999   3.364  -6.430  0.00  0.00    -0.120 F 
ENDBRANCH  19  22
ENDBRANCH  18  19
ENDBRANCH   5  18
TORSDOF 5
