REMARK  Name = ZINC650000002Apz.0
REMARK                            x       y       z     vdW  Elec       q    Type
REMARK                         _______ _______ _______ _____ _____    ______ ____
ROOT
ATOM      1  C   LIG    1       -1.471   4.129   2.534  0.00  0.00    +0.310 C 
ENDROOT
BRANCH   1   2
ATOM      2  N   LIG    1       -1.410   5.590   2.398  0.00  0.00    -0.640 N 
ATOM      3  H   LIG    1       -1.880   5.869   1.550  0.00  0.00    +0.440 HD
ATOM      4  H   LIG    1       -0.445   5.884   2.360  0.00  0.00    +0.430 HD
ATOM      5  H   LIG    1       -1.862   6.021   3.190  0.00  0.00    +0.440 HD
ENDBRANCH   1   2
BRANCH   1   6
ATOM      6  C   LIG    1       -0.786   3.475   1.332  0.00  0.00    -0.270 C 
BRANCH   6   8
ATOM      7  C   LIG    1       -0.013   1.086   0.008  0.00  0.00    -0.160 C 
ATOM      8  S   LIG    1       -0.862   1.671   1.500  0.00  0.00    +1.280 S 
ATOM      9  O   LIG    1       -0.129   1.271   2.650  0.00  0.00    -0.830 OA
ENDBRANCH   6   8
ENDBRANCH   1   6
TORSDOF 3
