REMARK  Name = ZINCvU0000000D2f.0
REMARK                            x       y       z     vdW  Elec       q    Type
REMARK                         _______ _______ _______ _____ _____    ______ ____
ROOT
ATOM      1  C   LIG    1       -1.093  -1.002  -0.186  0.00  0.00    +0.370 C 
ATOM      2  C   LIG    1        0.002  -0.004   0.002  0.00  0.00    -0.240 A 
ATOM      3  C   LIG    1        1.167  -0.694   0.187  0.00  0.00    +0.100 A 
ATOM      4  C   LIG    1        0.867  -2.134   0.120  0.00  0.00    +0.570 C 
ATOM      5  O   LIG    1        1.687  -3.022   0.242  0.00  0.00    -0.430 OA
ATOM      6  O   LIG    1        2.349  -0.081   0.395  0.00  0.00    -0.180 OA
ATOM      7  C   LIG    1        2.457   1.252   0.192  0.00  0.00    +0.150 A 
ATOM      8  C   LIG    1        3.725   1.832   0.172  0.00  0.00    +0.040 A 
ATOM      9  C   LIG    1        3.863   3.188  -0.026  0.00  0.00    +0.120 A 
ATOM     10  C   LIG    1        2.750   3.997  -0.210  0.00  0.00    -0.060 A 
ATOM     11  C   LIG    1        1.487   3.447  -0.198  0.00  0.00    +0.140 A 
ATOM     12 CL   LIG    1        2.950   5.704  -0.456  0.00  0.00    -0.050 Cl
ATOM     13  C   LIG    1        1.335   2.075   0.001  0.00  0.00    -0.200 A 
ATOM     14  C   LIG    1       -0.018   1.462   0.010  0.00  0.00    +0.460 A 
ATOM     15  O   LIG    1       -1.046   2.115   0.019  0.00  0.00    -0.420 OA
ATOM     16  N   LIG    1       -0.451  -2.324  -0.097  0.00  0.00    -0.530 N 
ENDROOT
BRANCH  16  17
ATOM     17  C   LIG    1       -1.091  -3.555  -0.217  0.00  0.00    +0.390 A 
ATOM     18  C   LIG    1       -2.442  -3.599  -0.544  0.00  0.00    -0.060 A 
ATOM     19  C   LIG    1       -3.066  -4.829  -0.659  0.00  0.00    +0.100 A 
ATOM     20  C   LIG    1       -2.315  -5.976  -0.442  0.00  0.00    -0.050 A 
ATOM     21  C   LIG    1       -0.977  -5.857  -0.120  0.00  0.00    +0.170 A 
ATOM     22  C   LIG    1       -0.156  -7.098   0.117  0.00  0.00    +0.130 C 
ATOM     23  N   LIG    1       -0.407  -4.672  -0.022  0.00  0.00    -0.490 NA
ENDBRANCH  16  17
BRANCH   1  27
ATOM     24  C   LIG    1       -4.023  -0.577   2.897  0.00  0.00    -0.070 A 
ATOM     25  C   LIG    1       -4.248  -0.026   1.641  0.00  0.00    +0.030 A 
ATOM     26  C   LIG    1       -3.299  -0.165   0.647  0.00  0.00    +0.080 A 
ATOM     27  C   LIG    1       -2.126  -0.852   0.901  0.00  0.00    -0.110 A 
ATOM     28  C   LIG    1       -1.900  -1.406   2.148  0.00  0.00    +0.050 A 
ATOM     29  C   LIG    1       -2.842  -1.266   3.148  0.00  0.00    +0.000 A 
BRANCH  24  31
ATOM     30  C   LIG    1       -4.478  -1.273   5.569  0.00  0.00    +0.140 C 
ATOM     31  S   LIG    1       -5.231  -0.402   4.167  0.00  0.00    -0.110 S 
ENDBRANCH  24  31
ENDBRANCH   1  27
TORSDOF 3
