REMARK  Name = ZINCrg00000fRgg6.0
REMARK                            x       y       z     vdW  Elec       q    Type
REMARK                         _______ _______ _______ _____ _____    ______ ____
ROOT
ATOM      1  C   LIG    1       -1.220   2.139   0.024  0.00  0.00    +0.440 C 
ATOM      2  O   LIG    1       -2.280   1.552  -0.065  0.00  0.00    -0.480 OA
ENDROOT
BRANCH   1   3
ATOM      3  C   LIG    1       -0.009   1.414   0.012  0.00  0.00    -0.440 A 
ATOM      4  C   LIG    1       -0.005   0.009   0.021  0.00  0.00    +0.560 A 
ATOM      5  N   LIG    1        1.192  -0.649   0.003  0.00  0.00    -0.540 N 
ATOM      6  C   LIG    1        2.355   0.021  -0.022  0.00  0.00    +0.710 A 
ATOM      7  N   LIG    1        2.413   1.362  -0.032  0.00  0.00    -0.560 N 
ATOM      8  C   LIG    1        3.718   2.029  -0.059  0.00  0.00    +0.340 C 
ATOM      9  O   LIG    1        3.393  -0.611  -0.037  0.00  0.00    -0.520 OA
ATOM     10  C   LIG    1        1.207  -2.114   0.012  0.00  0.00    +0.350 C 
ATOM     11  C   LIG    1        1.287   2.104  -0.016  0.00  0.00    +0.580 A 
ATOM     12  O   LIG    1        1.343   3.320  -0.025  0.00  0.00    -0.500 OA
BRANCH   4  13
ATOM     13  N   LIG    1       -1.175  -0.686   0.047  0.00  0.00    -0.800 N 
ATOM     14  H   LIG    1       -1.974  -0.276   0.413  0.00  0.00    +0.440 HD
ATOM     15  H   LIG    1       -1.210  -1.591  -0.301  0.00  0.00    +0.410 HD
ENDBRANCH   4  13
ENDBRANCH   1   3
BRANCH   1  16
ATOM     16  C   LIG    1       -1.198   3.641   0.148  0.00  0.00    +0.260 C 
BRANCH  16  17
ATOM     17  O   LIG    1       -2.559   4.147   0.137  0.00  0.00    -0.340 OA
BRANCH  17  18
ATOM     18  C   LIG    1       -2.716   5.481   0.240  0.00  0.00    +0.510 C 
ATOM     19  O   LIG    1       -1.742   6.202   0.337  0.00  0.00    -0.500 OA
BRANCH  18  23
ATOM     20  C   LIG    1       -6.613   7.168   0.226  0.00  0.00    -0.040 A 
ATOM     21  C   LIG    1       -5.506   7.992   0.337  0.00  0.00    +0.000 A 
ATOM     22  C   LIG    1       -4.238   7.450   0.342  0.00  0.00    +0.090 A 
ATOM     23  C   LIG    1       -4.071   6.068   0.235  0.00  0.00    -0.130 A 
ATOM     24  C   LIG    1       -5.192   5.244   0.118  0.00  0.00    +0.080 A 
ATOM     25  C   LIG    1       -6.455   5.798   0.120  0.00  0.00    +0.000 A 
BRANCH  20  26
ATOM     26  C   LIG    1       -7.996   7.767   0.222  0.00  0.00    +0.070 C 
BRANCH  26  27
ATOM     27  C   LIG    1       -8.408   8.088  -1.216  0.00  0.00    +0.000 C 
BRANCH  27  29
ATOM     28  C   LIG    1      -10.225   9.016  -2.659  0.00  0.00    +0.000 C 
ATOM     29  C   LIG    1       -9.812   8.695  -1.221  0.00  0.00    -0.010 C 
ENDBRANCH  27  29
ENDBRANCH  26  27
ENDBRANCH  20  26
ENDBRANCH  18  23
ENDBRANCH  17  18
ENDBRANCH  16  17
ENDBRANCH   1  16
TORSDOF 9
