REMARK  Name = ZINCrD000000BRrh.0
REMARK                            x       y       z     vdW  Elec       q    Type
REMARK                         _______ _______ _______ _____ _____    ______ ____
ROOT
ATOM      1  O   LIG    1       -1.476   6.306   0.690  0.00  0.00    -0.520 OA
ATOM      2  C   LIG    1       -1.894   6.205  -0.445  0.00  0.00    +0.530 C 
ATOM      3  N   LIG    1       -2.443   5.046  -0.860  0.00  0.00    -0.720 N 
ATOM      4  H   LIG    1       -2.777   4.965  -1.767  0.00  0.00    +0.410 HD
ENDROOT
BRANCH   3   5
ATOM      5  C   LIG    1       -2.536   3.909   0.059  0.00  0.00    +0.290 C 
ATOM      6  C   LIG    1       -3.688   2.998  -0.374  0.00  0.00    +0.010 C 
ATOM      7  C   LIG    1       -3.583   1.683   0.408  0.00  0.00    +0.260 C 
ATOM      8  O   LIG    1       -2.375   1.025   0.021  0.00  0.00    -0.320 OA
ATOM      9  C   LIG    1       -1.228   1.753   0.017  0.00  0.00    +0.140 A 
ATOM     10  C   LIG    1       -0.013   1.076   0.008  0.00  0.00    -0.020 A 
ATOM     11  C   LIG    1        1.174   1.780   0.000  0.00  0.00    +0.050 A 
ATOM     12  C   LIG    1        1.157   3.162   0.008  0.00  0.00    -0.040 A 
ATOM     13  C   LIG    1       -0.048   3.838   0.025  0.00  0.00    +0.060 A 
ATOM     14  C   LIG    1       -1.242   3.137   0.034  0.00  0.00    -0.180 A 
ENDBRANCH   3   5
BRANCH   2  15
ATOM     15  C   LIG    1       -1.798   7.375  -1.389  0.00  0.00    -0.010 C 
ATOM     16  C   LIG    1       -3.201   7.929  -1.727  0.00  0.00    +0.080 C 
ATOM     17  C   LIG    1       -2.999   9.427  -1.807  0.00  0.00    +0.510 C 
ATOM     18  N   LIG    1       -1.834   9.767  -1.230  0.00  0.00    -0.610 N 
ATOM     19  O   LIG    1       -3.775  10.206  -2.318  0.00  0.00    -0.500 OA
ATOM     20  C   LIG    1       -1.137   8.589  -0.701  0.00  0.00    +0.290 C 
BRANCH  18  21
ATOM     21  C   LIG    1       -1.325  11.138  -1.141  0.00  0.00    +0.360 C 
BRANCH  21  22
ATOM     22  C   LIG    1       -0.485  11.442  -2.355  0.00  0.00    -0.110 A 
ATOM     23  C   LIG    1        0.893  11.387  -2.274  0.00  0.00    +0.040 A 
ATOM     24  C   LIG    1        1.663  11.661  -3.389  0.00  0.00    +0.010 A 
ATOM     25  C   LIG    1        1.055  12.002  -4.582  0.00  0.00    +0.030 A 
ATOM     26  C   LIG    1       -0.323  12.063  -4.664  0.00  0.00    +0.010 A 
ATOM     27  C   LIG    1       -1.095  11.783  -3.550  0.00  0.00    -0.030 A 
ATOM     28 CL   LIG    1       -2.826  11.859  -3.651  0.00  0.00    -0.020 Cl
ENDBRANCH  21  22
ENDBRANCH  18  21
ENDBRANCH   2  15
TORSDOF 4
