REMARK  Name = ZINCpe000000WVG3.0
REMARK                            x       y       z     vdW  Elec       q    Type
REMARK                         _______ _______ _______ _____ _____    ______ ____
ROOT
ATOM      1  C   LIG    1       -1.641   2.686   7.272  0.00  0.00    +0.540 C 
ATOM      2  N   LIG    1       -1.101   2.368   6.079  0.00  0.00    -0.720 N 
ATOM      3  H   LIG    1       -0.310   1.808   6.038  0.00  0.00    +0.410 HD
ATOM      4  O   LIG    1       -2.630   3.386   7.323  0.00  0.00    -0.520 OA
ENDROOT
BRANCH   1   6
ATOM      5  C   LIG    1        0.116   3.111   8.970  0.00  0.00    +0.080 C 
ATOM      6  C   LIG    1       -1.015   2.173   8.543  0.00  0.00    +0.000 C 
BRANCH   6   7
ATOM      7  S   LIG    1       -2.270   2.106   9.851  0.00  0.00    -0.050 S 
BRANCH   7   8
ATOM      8  C   LIG    1       -1.429   1.290  11.167  0.00  0.00    -0.090 A 
ATOM      9  C   LIG    1       -1.386  -0.099  11.210  0.00  0.00    +0.090 A 
ATOM     10  C   LIG    1       -0.721  -0.735  12.239  0.00  0.00    +0.100 A 
ATOM     11  C   LIG    1       -0.108   0.007  13.232  0.00  0.00    -0.020 A 
ATOM     12  C   LIG    1       -0.154   1.389  13.195  0.00  0.00    +0.100 A 
ATOM     13  C   LIG    1       -0.812   2.032  12.166  0.00  0.00    +0.090 A 
BRANCH  11  14
ATOM     14  N   LIG    1        0.597  -0.679  14.338  0.00  0.00    +0.020 N 
ATOM     15  O   LIG    1        0.638  -1.896  14.372  0.00  0.00    -0.150 OA
ATOM     16  O   LIG    1        1.137  -0.027  15.213  0.00  0.00    -0.150 OA
ENDBRANCH  11  14
ENDBRANCH   7   8
ENDBRANCH   6   7
ENDBRANCH   1   6
BRANCH   2  17
ATOM     17  C   LIG    1       -1.710   2.866   4.843  0.00  0.00    +0.250 C 
BRANCH  17  18
ATOM     18  C   LIG    1       -0.909   2.363   3.641  0.00  0.00    +0.210 C 
BRANCH  18  19
ATOM     19  O   LIG    1       -1.010   0.939   3.564  0.00  0.00    -0.540 OA
ATOM     20  H   LIG    1       -1.915   0.614   3.461  0.00  0.00    +0.380 HD
ENDBRANCH  18  19
BRANCH  18  21
ATOM     21  C   LIG    1       -1.468   2.983   2.359  0.00  0.00    +0.160 C 
BRANCH  21  22
ATOM     22  N   LIG    1       -0.693   2.507   1.206  0.00  0.00    -0.530 NA
ATOM     23  C   LIG    1       -1.335   2.899  -0.058  0.00  0.00    +0.150 C 
ATOM     24  C   LIG    1       -0.528   2.334  -1.230  0.00  0.00    +0.220 C 
ATOM     25  O   LIG    1        0.822   2.797  -1.141  0.00  0.00    -0.390 OA
ATOM     26  C   LIG    1        1.477   2.432   0.077  0.00  0.00    +0.220 C 
ATOM     27  C   LIG    1        0.691   2.998   1.262  0.00  0.00    +0.140 C 
ENDBRANCH  21  22
ENDBRANCH  18  21
ENDBRANCH  17  18
ENDBRANCH   2  17
TORSDOF 9
