REMARK  Name = ZINCvU0000000JWK.1
REMARK                            x       y       z     vdW  Elec       q    Type
REMARK                         _______ _______ _______ _____ _____    ______ ____
ROOT
ATOM      1  C   LIG    1       -5.994   2.671  -3.676  0.00  0.00    -0.680 A 
ATOM      2  C   LIG    1       -4.957   3.587  -3.696  0.00  0.00    +0.160 A 
ATOM      3  C   LIG    1       -3.757   3.267  -4.307  0.00  0.00    +0.010 A 
ATOM      4  C   LIG    1       -3.592   2.038  -4.910  0.00  0.00    +0.090 A 
ATOM      5  C   LIG    1       -4.636   1.112  -4.897  0.00  0.00    -0.150 A 
ATOM      6  C   LIG    1       -5.842   1.438  -4.274  0.00  0.00    +0.190 A 
ENDROOT
BRANCH   1   7
ATOM      7  S   LIG    1       -7.516   3.085  -2.889  0.00  0.00    +2.690 S 
ATOM      8  O   LIG    1       -7.587   4.504  -2.874  0.00  0.00    -0.940 OA
ATOM      9  O   LIG    1       -8.511   2.263  -3.483  0.00  0.00    -0.940 OA
BRANCH   7  10
ATOM     10  N   LIG    1       -7.396   2.606  -1.308  0.00  0.00    -1.040 N 
ATOM     11  H   LIG    1       -8.014   1.949  -0.952  0.00  0.00    +0.430 HD
BRANCH  10  18
ATOM     12  C   LIG    1       -5.792   2.361   0.487  0.00  0.00    +0.120 A 
ATOM     13  C   LIG    1       -4.806   2.902   1.295  0.00  0.00    -0.020 A 
ATOM     14  C   LIG    1       -4.433   4.225   1.140  0.00  0.00    +0.060 A 
ATOM     15  C   LIG    1       -5.042   5.011   0.178  0.00  0.00    -0.040 A 
ATOM     16  C   LIG    1       -6.028   4.477  -0.633  0.00  0.00    +0.050 A 
ATOM     17 CL   LIG    1       -4.568   6.670  -0.012  0.00  0.00    -0.060 Cl
ATOM     18  C   LIG    1       -6.403   3.150  -0.485  0.00  0.00    +0.140 A 
BRANCH  12  20
ATOM     19  C   LIG    1       -5.486   0.309   1.652  0.00  0.00    +0.250 C 
ATOM     20  O   LIG    1       -6.159   1.060   0.639  0.00  0.00    -0.310 OA
ENDBRANCH  12  20
ENDBRANCH  10  18
ENDBRANCH   7  10
ENDBRANCH   1   7
BRANCH   5  21
ATOM     21  C   LIG    1       -4.466  -0.209  -5.540  0.00  0.00    +0.560 C 
ATOM     22  N   LIG    1       -3.776  -0.313  -6.693  0.00  0.00    -0.570 N 
ATOM     23  O   LIG    1       -4.949  -1.200  -5.029  0.00  0.00    -0.510 OA
BRANCH  22  24
ATOM     24  C   LIG    1       -3.575  -1.626  -7.311  0.00  0.00    +0.200 C 
ATOM     25  C   LIG    1       -4.482  -2.769  -6.851  0.00  0.00    +0.040 C 
ATOM     26  C   LIG    1       -3.011  -2.742  -6.430  0.00  0.00    +0.010 C 
ENDBRANCH  22  24
BRANCH  22  27
ATOM     27  C   LIG    1       -3.226   0.887  -7.328  0.00  0.00    +0.370 C 
BRANCH  27  28
ATOM     28  C   LIG    1       -1.729   0.757  -7.438  0.00  0.00    -0.210 A 
ATOM     29  C   LIG    1       -1.077   0.218  -8.469  0.00  0.00    +0.030 A 
ATOM     30  C   LIG    1        0.302   0.210  -8.348  0.00  0.00    +0.000 A 
ATOM     31  C   LIG    1        0.770   0.733  -7.214  0.00  0.00    -0.030 A 
ATOM     32  S   LIG    1       -0.573   1.283  -6.220  0.00  0.00    +0.100 S 
ENDBRANCH  27  28
ENDBRANCH  22  27
ENDBRANCH   5  21
TORSDOF 8
