REMARK  Name = ZINCbw0000000HqB.0
REMARK                            x       y       z     vdW  Elec       q    Type
REMARK                         _______ _______ _______ _____ _____    ______ ____
ROOT
ATOM      1  C   LIG    1        0.002  -0.004   0.002  0.00  0.00    -0.080 A 
ATOM      2  C   LIG    1       -0.017   1.378   0.010  0.00  0.00    +0.090 A 
ATOM      3  C   LIG    1        1.171   2.087   0.002  0.00  0.00    -0.070 A 
ATOM      4  C   LIG    1        2.380   1.410  -0.013  0.00  0.00    +0.130 A 
ATOM      5  C   LIG    1        2.397   0.025  -0.020  0.00  0.00    -0.070 A 
ATOM      6 CL   LIG    1        3.911  -0.825  -0.038  0.00  0.00    -0.030 Cl
ATOM      7  F   LIG    1        3.541   2.101  -0.019  0.00  0.00    -0.110 F 
ATOM      8 CL   LIG    1        1.147   3.822   0.011  0.00  0.00    -0.030 Cl
ATOM      9  C   LIG    1        1.208  -0.680  -0.013  0.00  0.00    +0.090 A 
ENDROOT
BRANCH   1  10
ATOM     10  C   LIG    1       -1.293  -0.774   0.010  0.00  0.00    +0.260 C 
BRANCH  10  11
ATOM     11  O   LIG    1       -1.715  -1.011  -1.334  0.00  0.00    -0.570 OA
ATOM     12  H   LIG    1       -2.545  -1.503  -1.405  0.00  0.00    +0.390 HD
ENDBRANCH  10  11
ENDBRANCH   1  10
TORSDOF 2
