REMARK  Name = ZINCrD0000075R6I.0
REMARK                            x       y       z     vdW  Elec       q    Type
REMARK                         _______ _______ _______ _____ _____    ______ ____
ROOT
ATOM      1  C   LIG    1        1.279   2.109   0.001  0.00  0.00    +0.290 C 
ATOM      2  C   LIG    1        2.064   1.803  -1.292  0.00  0.00    +0.060 C 
ATOM      3  C   LIG    1        2.676   3.180  -1.661  0.00  0.00    +0.050 C 
ATOM      4  C   LIG    1        1.551   4.149  -1.219  0.00  0.00    +0.250 C 
ATOM      5  N   LIG    1        1.001   3.553   0.012  0.00  0.00    -0.620 N 
ATOM      6  C   LIG    1        0.350   4.221   0.985  0.00  0.00    +0.730 C 
ATOM      7  N   LIG    1        0.157   5.550   0.877  0.00  0.00    -0.740 N 
ATOM      8  H   LIG    1        0.487   6.027   0.099  0.00  0.00    +0.390 HD
ATOM      9  O   LIG    1       -0.063   3.623   1.960  0.00  0.00    -0.570 OA
ENDROOT
BRANCH   7  10
ATOM     10  C   LIG    1       -0.550   6.276   1.935  0.00  0.00    +0.250 C 
ATOM     11  C   LIG    1       -2.058   6.186   1.695  0.00  0.00    +0.000 C 
ATOM     12  C   LIG    1       -2.797   6.944   2.800  0.00  0.00    +0.000 C 
ATOM     13  C   LIG    1       -2.365   8.412   2.788  0.00  0.00    +0.000 C 
ATOM     14  C   LIG    1       -0.857   8.502   3.028  0.00  0.00    +0.020 C 
ATOM     15  C   LIG    1       -0.118   7.744   1.923  0.00  0.00    +0.010 C 
ENDBRANCH   7  10
BRANCH   1  17
ATOM     16  O   LIG    1       -1.071   1.928   0.018  0.00  0.00    -0.480 OA
ATOM     17  C   LIG    1       -0.016   1.338   0.009  0.00  0.00    +0.460 C 
BRANCH  17  18
ATOM     18  O   LIG    1        0.002  -0.004   0.002  0.00  0.00    -0.350 OA
BRANCH  18  19
ATOM     19  C   LIG    1       -1.282  -0.681   0.011  0.00  0.00    +0.390 C 
BRANCH  19  20
ATOM     20  C   LIG    1       -1.065  -2.172   0.001  0.00  0.00    +0.240 A 
ATOM     21  N   LIG    1       -0.942  -2.911   1.062  0.00  0.00    -0.450 NA
ATOM     22  C   LIG    1       -0.762  -4.204   0.677  0.00  0.00    +0.010 A 
ATOM     23  C   LIG    1       -0.581  -5.402   1.369  0.00  0.00    +0.090 A 
ATOM     24  C   LIG    1       -0.415  -6.577   0.670  0.00  0.00    +0.020 A 
ATOM     25  C   LIG    1       -0.427  -6.576  -0.717  0.00  0.00    +0.060 A 
ATOM     26  C   LIG    1       -0.606  -5.400  -1.415  0.00  0.00    +0.040 A 
ATOM     27  C   LIG    1       -0.774  -4.208  -0.727  0.00  0.00    +0.020 A 
ATOM     28  O   LIG    1       -0.965  -2.925  -1.106  0.00  0.00    -0.210 OA
ENDBRANCH  19  20
ENDBRANCH  18  19
ENDBRANCH  17  18
ENDBRANCH   1  17
TORSDOF 5
