REMARK  Name = ZINCqH00000010TT.0
REMARK                            x       y       z     vdW  Elec       q    Type
REMARK                         _______ _______ _______ _____ _____    ______ ____
ROOT
ATOM      1  N   LIG    1        3.406   0.433  -0.108  0.00  0.00    -0.730 N 
ATOM      2  H   LIG    1        3.532   0.864  -0.968  0.00  0.00    +0.390 HD
ATOM      3  C   LIG    1        4.475   0.095   0.639  0.00  0.00    +0.590 C 
ATOM      4  O   LIG    1        4.317  -0.446   1.717  0.00  0.00    -0.530 OA
ENDROOT
BRANCH   3   5
ATOM      5  C   LIG    1        5.835   0.380   0.151  0.00  0.00    -0.280 A 
ATOM      6  C   LIG    1        6.175   0.979  -1.044  0.00  0.00    +0.300 A 
ATOM      7  N   LIG    1        7.513   1.055  -1.101  0.00  0.00    -0.460 N 
ATOM      8  H   LIG    1        8.021   1.435  -1.835  0.00  0.00    +0.450 HD
ATOM      9  N   LIG    1        8.066   0.497   0.056  0.00  0.00    -0.280 NA
ATOM     10  C   LIG    1        7.095   0.079   0.837  0.00  0.00    +0.180 A 
BRANCH  10  11
ATOM     11  C   LIG    1        7.246  -0.573   2.160  0.00  0.00    -0.050 A 
ATOM     12  C   LIG    1        6.319  -0.325   3.171  0.00  0.00    +0.130 A 
ATOM     13  C   LIG    1        6.461  -0.937   4.399  0.00  0.00    -0.020 A 
ATOM     14  C   LIG    1        7.529  -1.789   4.631  0.00  0.00    +0.110 A 
ATOM     15  C   LIG    1        8.456  -2.034   3.631  0.00  0.00    -0.030 A 
ATOM     16  F   LIG    1        7.667  -2.383   5.837  0.00  0.00    -0.140 F 
ATOM     17  C   LIG    1        8.319  -1.430   2.398  0.00  0.00    +0.070 A 
ENDBRANCH  10  11
ENDBRANCH   3   5
BRANCH   1  18
ATOM     18  C   LIG    1        2.053   0.148   0.377  0.00  0.00    +0.270 C 
BRANCH  18  24
ATOM     19  C   LIG    1       -0.376   0.213  -0.212  0.00  0.00    +0.170 C 
ATOM     20  O   LIG    1       -1.323   0.613  -1.204  0.00  0.00    -0.370 OA
ATOM     21  C   LIG    1       -1.114   0.016  -2.486  0.00  0.00    +0.200 C 
ATOM     22  C   LIG    1        0.262   0.424  -3.019  0.00  0.00    -0.020 C 
ATOM     23  C   LIG    1        1.337  -0.003  -2.015  0.00  0.00    +0.010 C 
ATOM     24  C   LIG    1        1.030   0.629  -0.654  0.00  0.00    -0.040 C 
BRANCH  19  26
ATOM     25  C   LIG    1       -0.296   2.359   1.064  0.00  0.00    +0.030 C 
ATOM     26  C   LIG    1       -0.713   0.888   1.118  0.00  0.00    -0.060 C 
ATOM     27  C   LIG    1        0.038   0.187   2.251  0.00  0.00    +0.040 C 
ATOM     28  C   LIG    1       -2.220   0.794   1.370  0.00  0.00    +0.030 C 
ENDBRANCH  19  26
ENDBRANCH  18  24
ENDBRANCH   1  18
TORSDOF 5
