REMARK  Name = ZINCqH00000054qK.0
REMARK                            x       y       z     vdW  Elec       q    Type
REMARK                         _______ _______ _______ _____ _____    ______ ____
ROOT
ATOM      1  S   LIG    1        2.757   1.265  -0.018  0.00  0.00    -0.010 S 
ENDROOT
BRANCH   1   2
ATOM      2  C   LIG    1        1.075   1.787   0.001  0.00  0.00    +0.200 A 
ATOM      3  N   LIG    1        0.661   3.032   0.012  0.00  0.00    -0.470 NA
ATOM      4  C   LIG    1       -0.695   3.050   0.024  0.00  0.00    +0.050 A 
ATOM      5  C   LIG    1       -1.129   1.765   0.016  0.00  0.00    +0.170 A 
ATOM      6  N   LIG    1       -0.011   0.966   0.007  0.00  0.00    -0.550 N 
ATOM      7  H   LIG    1        0.002  -0.004   0.002  0.00  0.00    +0.430 HD
BRANCH   4   8
ATOM      8  C   LIG    1       -1.552   4.260   0.038  0.00  0.00    -0.010 A 
ATOM      9  C   LIG    1       -2.940   4.134   0.044  0.00  0.00    +0.050 A 
ATOM     10  C   LIG    1       -3.733   5.263   0.063  0.00  0.00    -0.010 A 
ATOM     11  C   LIG    1       -3.152   6.521   0.064  0.00  0.00    +0.100 A 
ATOM     12  C   LIG    1       -1.773   6.651   0.052  0.00  0.00    -0.010 A 
ATOM     13  F   LIG    1       -3.932   7.623   0.076  0.00  0.00    -0.140 F 
ATOM     14  C   LIG    1       -0.972   5.527   0.039  0.00  0.00    +0.070 A 
ENDBRANCH   4   8
ENDBRANCH   1   2
BRANCH   1  15
ATOM     15  C   LIG    1        3.586   2.874  -0.017  0.00  0.00    +0.160 C 
BRANCH  15  20
ATOM     16  C   LIG    1        7.122   2.396  -1.251  0.00  0.00    -0.680 A 
ATOM     17  C   LIG    1        7.819   2.296  -0.061  0.00  0.00    +0.130 A 
ATOM     18  C   LIG    1        7.145   2.384   1.143  0.00  0.00    +0.000 A 
ATOM     19  C   LIG    1        5.777   2.575   1.158  0.00  0.00    +0.100 A 
ATOM     20  C   LIG    1        5.079   2.670  -0.033  0.00  0.00    -0.100 A 
ATOM     21  C   LIG    1        5.752   2.583  -1.236  0.00  0.00    +0.140 A 
BRANCH  16  22
ATOM     22  S   LIG    1        7.980   2.284  -2.786  0.00  0.00    +2.690 S 
ATOM     23  O   LIG    1        7.023   1.869  -3.751  0.00  0.00    -0.950 OA
ATOM     24  O   LIG    1        9.180   1.570  -2.524  0.00  0.00    -0.950 OA
BRANCH  22  26
ATOM     25  C   LIG    1        9.728   4.348  -2.770  0.00  0.00    +0.300 C 
ATOM     26  N   LIG    1        8.433   3.821  -3.207  0.00  0.00    -1.000 NA
ATOM     27  C   LIG    1        7.539   4.652  -4.016  0.00  0.00    +0.310 C 
ENDBRANCH  22  26
ENDBRANCH  16  22
ENDBRANCH  15  20
ENDBRANCH   1  15
TORSDOF 6
