REMARK  Name = ZINCpe000000Uyot.0
REMARK                            x       y       z     vdW  Elec       q    Type
REMARK                         _______ _______ _______ _____ _____    ______ ____
ROOT
ATOM      1  C   LIG    1        0.873   9.014  -1.167  0.00  0.00    +0.500 C 
ATOM      2  N   LIG    1        0.470   8.005  -0.370  0.00  0.00    -0.620 N 
ATOM      3  C   LIG    1        1.173   7.708   0.887  0.00  0.00    +0.290 C 
ATOM      4  C   LIG    1        1.516   6.215   0.913  0.00  0.00    +0.210 C 
ATOM      5  N   LIG    1        0.294   5.432   0.685  0.00  0.00    -0.470 N 
ATOM      6  C   LIG    1       -0.270   5.698  -0.645  0.00  0.00    +0.200 C 
ATOM      7  C   LIG    1       -0.685   7.171  -0.734  0.00  0.00    +0.300 C 
ATOM      8  O   LIG    1        1.828   9.692  -0.851  0.00  0.00    -0.520 OA
ENDROOT
BRANCH   5   9
ATOM      9  C   LIG    1        0.532   4.074   0.862  0.00  0.00    +0.260 A 
ATOM     10  C   LIG    1       -0.502   3.155   0.693  0.00  0.00    +0.210 A 
ATOM     11  N   LIG    1       -0.270   1.867   0.857  0.00  0.00    -0.420 NA
ATOM     12  C   LIG    1        0.939   1.448   1.192  0.00  0.00    +0.190 A 
ATOM     13  C   LIG    1        1.967   2.356   1.361  0.00  0.00    +0.250 A 
ATOM     14  N   LIG    1        1.744   3.649   1.193  0.00  0.00    -0.480 NA
ENDBRANCH   5   9
BRANCH   1  15
ATOM     15  C   LIG    1        0.137   9.301  -2.450  0.00  0.00    +0.330 C 
BRANCH  15  17
ATOM     16  C   LIG    1        1.849  10.208  -4.089  0.00  0.00    +0.300 C 
ATOM     17  N   LIG    1        0.766  10.436  -3.130  0.00  0.00    -0.600 N 
ATOM     18  C   LIG    1        0.346  11.691  -2.874  0.00  0.00    +0.570 C 
ATOM     19  O   LIG    1       -0.462  11.893  -1.988  0.00  0.00    -0.530 OA
BRANCH  18  20
ATOM     20  C   LIG    1        0.870  12.823  -3.669  0.00  0.00    -0.140 A 
ATOM     21  C   LIG    1        1.443  12.594  -4.920  0.00  0.00    +0.040 A 
ATOM     22  C   LIG    1        1.925  13.654  -5.659  0.00  0.00    +0.000 A 
ATOM     23  C   LIG    1        1.851  14.941  -5.157  0.00  0.00    +0.040 A 
ATOM     24  C   LIG    1        1.288  15.175  -3.915  0.00  0.00    +0.000 A 
ATOM     25  C   LIG    1        0.797  14.124  -3.168  0.00  0.00    +0.070 A 
ENDBRANCH  18  20
ENDBRANCH  15  17
ENDBRANCH   1  15
TORSDOF 4
