REMARK  Name = ZINCvU0000000EDK.0
REMARK                            x       y       z     vdW  Elec       q    Type
REMARK                         _______ _______ _______ _____ _____    ______ ____
ROOT
ATOM      1  C   LIG    1        4.561   1.065  -1.877  0.00  0.00    +0.030 C 
ATOM      2  C   LIG    1        5.809   1.526  -1.122  0.00  0.00    +0.230 C 
ATOM      3  C   LIG    1        5.805   0.931   0.292  0.00  0.00    +0.280 C 
ATOM      4  N   LIG    1        4.747   1.587   1.074  0.00  0.00    -0.600 N 
ATOM      5  C   LIG    1        4.747   3.053   1.176  0.00  0.00    +0.270 C 
ATOM      6  C   LIG    1        4.755   3.647  -0.233  0.00  0.00    +0.270 C 
ATOM      7  C   LIG    1        3.790   0.857   1.681  0.00  0.00    +0.560 C 
ATOM      8  O   LIG    1        3.800  -0.355   1.589  0.00  0.00    -0.530 OA
ATOM      9  N   LIG    1        5.813   2.991  -1.015  0.00  0.00    -0.600 N 
ATOM     10  C   LIG    1        6.769   3.721  -1.622  0.00  0.00    +0.560 C 
ATOM     11  O   LIG    1        7.638   3.168  -2.268  0.00  0.00    -0.530 OA
ENDROOT
BRANCH   7  12
ATOM     12  C   LIG    1        2.729   1.530   2.460  0.00  0.00    -0.140 A 
ATOM     13  C   LIG    1        1.451   0.974   2.529  0.00  0.00    +0.070 A 
ATOM     14  C   LIG    1        0.463   1.611   3.252  0.00  0.00    +0.010 A 
ATOM     15  C   LIG    1        0.741   2.792   3.917  0.00  0.00    -0.040 A 
ATOM     16  C   LIG    1        2.006   3.349   3.853  0.00  0.00    +0.010 A 
ATOM     17  C   LIG    1        3.001   2.725   3.128  0.00  0.00    +0.040 A 
BRANCH  15  18
ATOM     18  C   LIG    1       -0.341   3.479   4.710  0.00  0.00    -0.030 C 
ATOM     19  C   LIG    1        0.091   3.590   6.173  0.00  0.00    +0.040 C 
ATOM     20  C   LIG    1       -1.634   2.665   4.620  0.00  0.00    +0.030 C 
ATOM     21  C   LIG    1       -0.579   4.879   4.141  0.00  0.00    +0.040 C 
ENDBRANCH  15  18
ENDBRANCH   7  12
BRANCH  10  22
ATOM     22  C   LIG    1        6.761   5.195  -1.504  0.00  0.00    -0.140 A 
ATOM     23  C   LIG    1        5.552   5.883  -1.389  0.00  0.00    +0.040 A 
ATOM     24  C   LIG    1        5.552   7.258  -1.274  0.00  0.00    +0.000 A 
ATOM     25  C   LIG    1        6.747   7.955  -1.282  0.00  0.00    -0.040 A 
ATOM     26  C   LIG    1        7.949   7.280  -1.401  0.00  0.00    +0.010 A 
ATOM     27  C   LIG    1        7.963   5.905  -1.512  0.00  0.00    +0.070 A 
BRANCH  25  28
ATOM     28  C   LIG    1        6.739   9.458  -1.163  0.00  0.00    -0.030 C 
ATOM     29  C   LIG    1        7.524   9.874   0.083  0.00  0.00    +0.040 C 
ATOM     30  C   LIG    1        5.296   9.953  -1.046  0.00  0.00    +0.030 C 
ATOM     31  C   LIG    1        7.390  10.071  -2.404  0.00  0.00    +0.040 C 
ENDBRANCH  25  28
ENDBRANCH  10  22
TORSDOF 4
