REMARK  Name = ZINCnE000001TAH5.0
REMARK                            x       y       z     vdW  Elec       q    Type
REMARK                         _______ _______ _______ _____ _____    ______ ____
ROOT
ATOM      1  C   LIG    1       -3.982  -3.579  -0.304  0.00  0.00    +0.530 C 
ATOM      2  N   LIG    1       -3.496  -2.344  -0.070  0.00  0.00    -0.620 N 
ATOM      3  C   LIG    1       -3.378  -1.352  -1.149  0.00  0.00    +0.320 C 
ATOM      4  C   LIG    1       -2.053  -0.651  -1.032  0.00  0.00    -0.030 C 
ATOM      5  C   LIG    1       -1.266  -0.763   0.011  0.00  0.00    -0.080 C 
ATOM      6  C   LIG    1       -1.564  -1.615   1.209  0.00  0.00    +0.070 C 
ATOM      7  C   LIG    1       -3.061  -1.933   1.276  0.00  0.00    +0.280 C 
ATOM      8  O   LIG    1       -4.069  -4.378   0.604  0.00  0.00    -0.530 OA
ENDROOT
BRANCH   5   9
ATOM      9  C   LIG    1        0.002  -0.004   0.002  0.00  0.00    -0.040 A 
ATOM     10  C   LIG    1       -0.017   1.391   0.010  0.00  0.00    +0.030 A 
ATOM     11  C   LIG    1        1.170   2.095   0.002  0.00  0.00    +0.020 A 
ATOM     12  C   LIG    1        2.378   1.419  -0.013  0.00  0.00    -0.040 A 
ATOM     13  C   LIG    1        2.403   0.034  -0.021  0.00  0.00    +0.020 A 
ATOM     14 CL   LIG    1        3.868   2.310  -0.022  0.00  0.00    -0.070 Cl
ATOM     15  C   LIG    1        1.223  -0.680  -0.013  0.00  0.00    +0.040 A 
ENDBRANCH   5   9
BRANCH   1  19
ATOM     16  C   LIG    1       -4.407  -5.982  -3.069  0.00  0.00    -0.090 C 
ATOM     17  C   LIG    1       -3.022  -5.308  -3.229  0.00  0.00    +0.030 C 
ATOM     18  C   LIG    1       -3.224  -3.888  -2.662  0.00  0.00    +0.010 C 
ATOM     19  C   LIG    1       -4.417  -3.967  -1.694  0.00  0.00    -0.020 C 
ATOM     20  C   LIG    1       -4.899  -5.432  -1.707  0.00  0.00    +0.060 C 
BRANCH  16  22
ATOM     21  O   LIG    1       -3.170  -7.997  -3.133  0.00  0.00    -0.700 OA
ATOM     22  C   LIG    1       -4.270  -7.481  -3.021  0.00  0.00    +0.500 C 
ATOM     23  O   LIG    1       -5.258  -8.180  -2.872  0.00  0.00    -0.700 OA
ENDBRANCH  16  22
ENDBRANCH   1  19
TORSDOF 3
