REMARK  Name = ZINCpk000000mWh1.0
REMARK                            x       y       z     vdW  Elec       q    Type
REMARK                         _______ _______ _______ _____ _____    ______ ____
ROOT
ATOM      1  C   LIG    1       -3.133   3.636   3.489  0.00  0.00    +0.060 C 
ENDROOT
BRANCH   1   2
ATOM      2  C   LIG    1       -2.533   2.973   2.276  0.00  0.00    +0.520 C 
ATOM      3  N   LIG    1       -1.412   2.234   2.398  0.00  0.00    -0.730 N 
ATOM      4  H   LIG    1       -0.992   2.130   3.266  0.00  0.00    +0.400 HD
ATOM      5  O   LIG    1       -3.058   3.103   1.191  0.00  0.00    -0.520 OA
BRANCH   3   6
ATOM      6  C   LIG    1       -0.828   1.589   1.219  0.00  0.00    +0.410 C 
BRANCH   6   7
ATOM      7  C   LIG    1        0.410   0.830   1.623  0.00  0.00    +0.170 A 
ATOM      8  N   LIG    1        0.462  -0.415   2.009  0.00  0.00    -0.260 NA
ATOM      9  N   LIG    1        1.679  -0.736   2.272  0.00  0.00    -0.280 NA
ATOM     10  C   LIG    1        2.458   0.293   2.067  0.00  0.00    +0.170 A 
ATOM     11  C   LIG    1        3.902   0.742   2.131  0.00  0.00    +0.180 C 
ATOM     12  C   LIG    1        3.823   2.285   2.097  0.00  0.00    +0.070 C 
ATOM     13  C   LIG    1        2.474   2.517   1.383  0.00  0.00    +0.300 C 
ATOM     14  N   LIG    1        1.677   1.313   1.647  0.00  0.00    -0.490 N 
ENDBRANCH   6   7
ENDBRANCH   3   6
ENDBRANCH   1   2
BRANCH   1  15
ATOM     15  C   LIG    1       -4.390   4.406   3.079  0.00  0.00    +0.310 C 
BRANCH  15  16
ATOM     16  C   LIG    1       -5.059   4.967   4.308  0.00  0.00    -0.100 A 
ATOM     17  C   LIG    1       -4.563   6.113   4.902  0.00  0.00    +0.020 A 
ATOM     18  C   LIG    1       -5.179   6.630   6.026  0.00  0.00    +0.000 A 
ATOM     19  C   LIG    1       -6.285   5.996   6.562  0.00  0.00    -0.080 A 
ATOM     20  C   LIG    1       -6.777   4.847   5.971  0.00  0.00    +0.000 A 
ATOM     21  C   LIG    1       -6.954   6.557   7.790  0.00  0.00    +0.090 C 
ATOM     22  C   LIG    1       -6.164   4.333   4.844  0.00  0.00    +0.020 A 
ENDBRANCH  15  16
BRANCH  15  25
ATOM     23  C   LIG    1       -4.506   7.039   0.304  0.00  0.00    +0.090 C 
ATOM     24  C   LIG    1       -4.919   5.989   1.303  0.00  0.00    +0.520 C 
ATOM     25  N   LIG    1       -4.019   5.503   2.181  0.00  0.00    -0.720 N 
ATOM     26  H   LIG    1       -3.126   5.880   2.219  0.00  0.00    +0.400 HD
ATOM     27  O   LIG    1       -6.061   5.581   1.317  0.00  0.00    -0.540 OA
ENDBRANCH  15  25
ENDBRANCH   1  15
TORSDOF 6
