REMARK  Name = ZINCpe00000MJKyg.0
REMARK                            x       y       z     vdW  Elec       q    Type
REMARK                         _______ _______ _______ _____ _____    ______ ____
ROOT
ATOM      1  C   LIG    1       -1.292   1.792   0.018  0.00  0.00    +0.550 C 
ATOM      2  N   LIG    1       -2.445   1.101   0.121  0.00  0.00    -0.600 N 
ATOM      3  C   LIG    1       -2.434  -0.365   0.219  0.00  0.00    +0.280 C 
ATOM      4  C   LIG    1       -3.344  -0.942  -0.864  0.00  0.00    +0.020 C 
ATOM      5  C   LIG    1       -4.735  -0.315  -0.746  0.00  0.00    +0.020 C 
ATOM      6  C   LIG    1       -4.633   1.198  -0.954  0.00  0.00    +0.270 C 
ATOM      7  C   LIG    1       -3.737   1.800   0.133  0.00  0.00    +0.270 C 
ATOM      8  O   LIG    1       -0.235   1.198  -0.087  0.00  0.00    -0.540 OA
ENDROOT
BRANCH   6   9
ATOM      9  N   LIG    1       -5.969   1.794  -0.872  0.00  0.00    -0.630 N 
ATOM     10  C   LIG    1       -6.631   2.553  -1.944  0.00  0.00    +0.250 C 
ATOM     11  C   LIG    1       -7.992   2.941  -1.335  0.00  0.00    +0.250 C 
ATOM     12  N   LIG    1       -7.953   2.360   0.015  0.00  0.00    -0.740 N 
ATOM     13  H   LIG    1       -8.663   2.420   0.673  0.00  0.00    +0.430 HD
ATOM     14  C   LIG    1       -6.784   1.729   0.189  0.00  0.00    +0.700 C 
ATOM     15  O   LIG    1       -6.488   1.153   1.218  0.00  0.00    -0.580 OA
ENDBRANCH   6   9
BRANCH   1  17
ATOM     16  C   LIG    1       -0.154   3.947   0.034  0.00  0.00    +0.120 C 
ATOM     17  C   LIG    1       -1.312   3.257   0.032  0.00  0.00    -0.080 C 
BRANCH  16  21
ATOM     18  C   LIG    1       -0.210   8.193   0.091  0.00  0.00    -0.130 A 
ATOM     19  C   LIG    1        1.009   7.511   0.075  0.00  0.00    +0.080 A 
ATOM     20  C   LIG    1        1.029   6.135   0.056  0.00  0.00    +0.040 A 
ATOM     21  C   LIG    1       -0.173   5.419   0.054  0.00  0.00    -0.050 A 
ATOM     22  C   LIG    1       -1.393   6.103   0.064  0.00  0.00    +0.020 A 
ATOM     23  C   LIG    1       -1.410   7.479   0.089  0.00  0.00    +0.040 A 
BRANCH  18  27
ATOM     24  N   LIG    1       -1.405  10.329   0.128  0.00  0.00    -0.850 N 
ATOM     25  H   LIG    1       -1.418  11.299   0.141  0.00  0.00    +0.410 HD
ATOM     26  H   LIG    1       -2.239   9.833   0.126  0.00  0.00    +0.400 HD
ATOM     27  C   LIG    1       -0.229   9.671   0.111  0.00  0.00    +0.560 C 
ATOM     28  O   LIG    1        0.815  10.293   0.113  0.00  0.00    -0.540 OA
ENDBRANCH  18  27
ENDBRANCH  16  21
ENDBRANCH   1  17
TORSDOF 4
