REMARK  Name = ZINCpk00000k1iz2.0
REMARK                            x       y       z     vdW  Elec       q    Type
REMARK                         _______ _______ _______ _____ _____    ______ ____
ROOT
ATOM      1  C   LIG    1       -4.087  -4.217  -6.286  0.00  0.00    +0.520 C 
ATOM      2  N   LIG    1       -4.189  -3.365  -5.248  0.00  0.00    -0.610 N 
ATOM      3  C   LIG    1       -3.445  -2.099  -5.250  0.00  0.00    +0.270 C 
ATOM      4  C   LIG    1       -2.562  -2.041  -3.998  0.00  0.00    +0.070 C 
ATOM      5  C   LIG    1       -3.429  -2.341  -2.770  0.00  0.00    -0.100 C 
ATOM      6  C   LIG    1       -4.101  -1.159  -2.070  0.00  0.00    +0.040 C 
ATOM      7  C   LIG    1       -4.197  -3.665  -2.825  0.00  0.00    +0.050 C 
ATOM      8  C   LIG    1       -2.918  -1.871  -1.408  0.00  0.00    +0.100 C 
ATOM      9  C   LIG    1       -5.047  -3.690  -4.101  0.00  0.00    +0.270 C 
ATOM     10  O   LIG    1       -3.377  -3.941  -7.230  0.00  0.00    -0.530 OA
ENDROOT
BRANCH   1  14
ATOM     11  C   LIG    1       -2.555  -7.965  -8.052  0.00  0.00    +0.290 C 
ATOM     12  N   LIG    1       -3.425  -7.245  -7.118  0.00  0.00    -0.620 N 
ATOM     13  C   LIG    1       -4.526  -6.362  -7.524  0.00  0.00    +0.300 C 
ATOM     14  C   LIG    1       -4.854  -5.514  -6.275  0.00  0.00    +0.000 C 
ATOM     15  C   LIG    1       -4.369  -6.435  -5.131  0.00  0.00    +0.080 C 
ATOM     16  C   LIG    1       -3.318  -7.309  -5.779  0.00  0.00    +0.520 C 
ATOM     17  O   LIG    1       -2.498  -7.971  -5.179  0.00  0.00    -0.530 OA
ENDBRANCH   1  14
BRANCH   8  18
ATOM     18  N   LIG    1       -1.633  -1.162  -1.374  0.00  0.00    -0.500 NA
ATOM     19  C   LIG    1       -0.540  -2.071  -1.003  0.00  0.00    +0.190 C 
BRANCH  18  20
ATOM     20  C   LIG    1       -1.691  -0.010  -0.464  0.00  0.00    +0.300 C 
BRANCH  20  21
ATOM     21  C   LIG    1       -0.452   0.830  -0.636  0.00  0.00    +0.060 A 
ATOM     22  N   LIG    1       -0.333   1.808  -1.470  0.00  0.00    -0.460 NA
ATOM     23  C   LIG    1        0.823   2.441  -1.493  0.00  0.00    +0.220 A 
ATOM     24  C   LIG    1        1.729   1.970  -0.631  0.00  0.00    -0.080 A 
ATOM     25  S   LIG    1        1.000   0.625   0.243  0.00  0.00    +0.120 S 
ENDBRANCH  20  21
ENDBRANCH  18  20
ENDBRANCH   8  18
TORSDOF 4
