REMARK  Name = ZINCb80000003VPB.0
REMARK                            x       y       z     vdW  Elec       q    Type
REMARK                         _______ _______ _______ _____ _____    ______ ____
ROOT
ATOM      1  C   LIG    1       -1.234   1.777   0.017  0.00  0.00    +0.230 C 
ATOM      2  C   LIG    1       -0.786   3.189   0.462  0.00  0.00    +0.070 C 
ATOM      3  C   LIG    1        0.697   3.200   0.023  0.00  0.00    +0.160 C 
ATOM      4  C   LIG    1        1.088   1.739   0.001  0.00  0.00    +0.490 C 
ATOM      5  O   LIG    1        2.228   1.326  -0.019  0.00  0.00    -0.530 OA
ATOM      6  N   LIG    1       -0.011   0.966   0.007  0.00  0.00    -0.720 N 
ATOM      7  H   LIG    1        0.002  -0.004   0.002  0.00  0.00    +0.410 HD
ENDROOT
BRANCH   1   9
ATOM      8  C   LIG    1       -1.616   1.173   2.411  0.00  0.00    +0.030 C 
ATOM      9  C   LIG    1       -2.242   1.204   1.015  0.00  0.00    -0.080 C 
ATOM     10  C   LIG    1       -2.624  -0.217   0.595  0.00  0.00    +0.020 C 
ATOM     11  C   LIG    1       -3.494   2.083   1.037  0.00  0.00    +0.040 C 
ENDBRANCH   1   9
BRANCH   3  12
ATOM     12  O   LIG    1        0.827   3.773  -1.280  0.00  0.00    -0.540 OA
ATOM     13  H   LIG    1        1.729   3.752  -1.630  0.00  0.00    +0.390 HD
ENDBRANCH   3  12
TORSDOF 2
