REMARK  Name = ZINCkj000005eONl.0
REMARK                            x       y       z     vdW  Elec       q    Type
REMARK                         _______ _______ _______ _____ _____    ______ ____
ROOT
ATOM      1  C   LIG    1        5.724  -0.119   1.131  0.00  0.00    +0.330 C 
ENDROOT
BRANCH   1   5
ATOM      2  C   LIG    1        7.760  -2.599   3.954  0.00  0.00    +0.190 A 
ATOM      3  C   LIG    1        6.934  -3.170   2.995  0.00  0.00    +0.030 A 
ATOM      4  C   LIG    1        6.278  -2.366   2.084  0.00  0.00    +0.080 A 
ATOM      5  C   LIG    1        6.441  -0.994   2.127  0.00  0.00    -0.200 A 
ATOM      6  C   LIG    1        7.267  -0.422   3.078  0.00  0.00    +0.070 A 
ATOM      7  C   LIG    1        7.922  -1.220   3.995  0.00  0.00    -0.010 A 
BRANCH   2  10
ATOM      8  C   LIG    1        9.457  -5.560   5.542  0.00  0.00    +0.120 C 
ATOM      9  C   LIG    1        8.845  -4.640   4.517  0.00  0.00    +0.510 C 
ATOM     10  N   LIG    1        8.427  -3.411   4.878  0.00  0.00    -0.680 N 
ATOM     11  H   LIG    1        8.588  -3.090   5.779  0.00  0.00    +0.420 HD
ATOM     12  O   LIG    1        8.730  -5.006   3.366  0.00  0.00    -0.520 OA
ENDBRANCH   2  10
ENDBRANCH   1   5
BRANCH   1  13
ATOM     13  N   LIG    1        4.414   0.266   1.673  0.00  0.00    -0.530 N 
ATOM     14  H   LIG    1        3.866  -0.562   1.849  0.00  0.00    +0.430 HD
ATOM     15  H   LIG    1        4.542   0.774   2.535  0.00  0.00    +0.430 HD
BRANCH  13  16
ATOM     16  C   LIG    1        3.714   1.119   0.702  0.00  0.00    +0.330 C 
BRANCH  16  17
ATOM     17  C   LIG    1        2.350   1.520   1.266  0.00  0.00    -0.440 C 
ATOM     18  C   LIG    1        1.554   2.325   0.220  0.00  0.00    +0.110 C 
ATOM     19  C   LIG    1        0.057   2.011   0.390  0.00  0.00    +0.090 C 
ATOM     20  C   LIG    1       -0.064   0.469   0.495  0.00  0.00    -0.270 C 
ATOM     21  S   LIG    1        1.336   0.033   1.595  0.00  0.00    +2.350 S 
ATOM     22  O   LIG    1        1.998  -1.115   1.082  0.00  0.00    -0.940 OA
ATOM     23  O   LIG    1        0.896   0.052   2.946  0.00  0.00    -0.900 OA
ENDBRANCH  16  17
ENDBRANCH  13  16
ENDBRANCH   1  13
TORSDOF 5
