REMARK  Name = ZINCpe00000MJIfV.0
REMARK                            x       y       z     vdW  Elec       q    Type
REMARK                         _______ _______ _______ _____ _____    ______ ____
ROOT
ATOM      1  C   LIG    1       -0.313   3.804  -4.053  0.00  0.00    +0.590 C 
ATOM      2  N   LIG    1       -0.256   3.539  -2.732  0.00  0.00    -0.630 N 
ATOM      3  C   LIG    1        0.442   2.419  -2.059  0.00  0.00    +0.310 C 
ATOM      4  C   LIG    1        1.048   3.049  -0.786  0.00  0.00    +0.030 C 
ATOM      5  C   LIG    1        0.974   2.019   0.360  0.00  0.00    -0.270 C 
ATOM      6  S   LIG    1        0.557   3.061   1.820  0.00  0.00    +2.380 S 
ATOM      7  C   LIG    1       -0.542   4.179   0.859  0.00  0.00    -0.270 C 
ATOM      8  O   LIG    1       -0.212   2.310   2.750  0.00  0.00    -0.920 OA
ATOM      9  O   LIG    1        1.710   3.771   2.251  0.00  0.00    -0.910 OA
ATOM     10  C   LIG    1        0.179   4.286  -0.500  0.00  0.00    +0.040 C 
ATOM     11  C   LIG    1       -0.879   4.302  -1.625  0.00  0.00    +0.330 C 
ATOM     12  O   LIG    1        0.347   3.147  -4.833  0.00  0.00    -0.520 OA
ENDROOT
BRANCH   1  17
ATOM     13  C   LIG    1       -3.044   6.382  -4.248  0.00  0.00    +0.140 A 
ATOM     14  C   LIG    1       -2.794   6.942  -5.495  0.00  0.00    +0.050 A 
ATOM     15  C   LIG    1       -1.744   6.482  -6.266  0.00  0.00    +0.040 A 
ATOM     16  C   LIG    1       -0.935   5.464  -5.803  0.00  0.00    +0.070 A 
ATOM     17  C   LIG    1       -1.177   4.895  -4.551  0.00  0.00    -0.120 A 
ATOM     18  C   LIG    1       -2.240   5.356  -3.775  0.00  0.00    +0.010 A 
BRANCH  13  20
ATOM     19  C   LIG    1       -4.473   8.147  -3.539  0.00  0.00    +0.540 C 
ATOM     20  N   LIG    1       -4.109   6.851  -3.471  0.00  0.00    -0.670 N 
ATOM     21  H   LIG    1       -4.585   6.243  -2.884  0.00  0.00    +0.410 HD
ATOM     22  O   LIG    1       -3.821   8.928  -4.205  0.00  0.00    -0.520 OA
BRANCH  19  24
ATOM     23  C   LIG    1       -6.019   9.895  -2.874  0.00  0.00    +0.160 C 
ATOM     24  C   LIG    1       -5.659   8.616  -2.807  0.00  0.00    -0.090 C 
ENDBRANCH  19  24
ENDBRANCH  13  20
ENDBRANCH   1  17
BRANCH  10  25
ATOM     25  C   LIG    1        1.000   5.507  -0.547  0.00  0.00    +0.200 C 
ATOM     26  N   LIG    1        1.634   6.449  -0.583  0.00  0.00    -0.380 NA
ENDBRANCH  10  25
TORSDOF 4
