REMARK  Name = ZINCpk000000oKeC.0
REMARK                            x       y       z     vdW  Elec       q    Type
REMARK                         _______ _______ _______ _____ _____    ______ ____
ROOT
ATOM      1  N   LIG    1       -3.398   3.164   2.233  0.00  0.00    -0.630 NA
ATOM      2  C   LIG    1       -3.494   3.838   1.089  0.00  0.00    +0.490 A 
ATOM      3  N   LIG    1       -4.537   4.641   0.703  0.00  0.00    -0.480 N 
ATOM      4  H   LIG    1       -5.342   4.821   1.214  0.00  0.00    +0.460 HD
ATOM      5  N   LIG    1       -4.233   5.148  -0.567  0.00  0.00    -0.480 N 
ATOM      6  H   LIG    1       -4.794   5.743  -1.088  0.00  0.00    +0.450 HD
ATOM      7  C   LIG    1       -3.018   4.666  -0.947  0.00  0.00    +0.390 A 
ATOM      8  C   LIG    1       -2.535   3.864   0.043  0.00  0.00    -0.200 A 
ENDROOT
BRANCH   8   9
ATOM      9  C   LIG    1       -1.240   3.141   0.029  0.00  0.00    +0.020 A 
ATOM     10  C   LIG    1       -1.219   1.748   0.017  0.00  0.00    +0.070 A 
ATOM     11  C   LIG    1       -0.013   1.076   0.008  0.00  0.00    +0.040 A 
ATOM     12  C   LIG    1        1.179   1.783   0.000  0.00  0.00    +0.030 A 
ATOM     13  O   LIG    1        2.479   1.363  -0.014  0.00  0.00    -0.310 OA
ATOM     14  C   LIG    1        3.249   2.506  -0.428  0.00  0.00    +0.420 C 
ATOM     15  O   LIG    1        2.452   3.628  -0.002  0.00  0.00    -0.310 OA
ATOM     16  C   LIG    1        1.164   3.177   0.008  0.00  0.00    +0.030 A 
ATOM     17  C   LIG    1       -0.042   3.854   0.022  0.00  0.00    +0.040 A 
ENDBRANCH   8   9
BRANCH   1  18
ATOM     18  C   LIG    1       -4.379   3.231   3.129  0.00  0.00    +0.500 C 
ATOM     19  O   LIG    1       -5.363   3.909   2.903  0.00  0.00    -0.580 OA
BRANCH  18  24
ATOM     20  N   LIG    1       -4.247   0.225   5.403  0.00  0.00    -0.530 NA
ATOM     21  C   LIG    1       -5.403   0.581   6.239  0.00  0.00    +0.150 C 
ATOM     22  C   LIG    1       -5.386   2.088   6.509  0.00  0.00    +0.220 C 
ATOM     23  O   LIG    1       -5.383   2.790   5.263  0.00  0.00    -0.370 OA
ATOM     24  C   LIG    1       -4.270   2.468   4.424  0.00  0.00    +0.190 C 
ATOM     25  C   LIG    1       -4.275   0.965   4.133  0.00  0.00    +0.190 C 
BRANCH  20  27
ATOM     26  C   LIG    1       -5.397  -1.648   4.324  0.00  0.00    -0.010 C 
ATOM     27  C   LIG    1       -4.193  -1.224   5.168  0.00  0.00    +0.210 C 
ENDBRANCH  20  27
ENDBRANCH  18  24
ENDBRANCH   1  18
TORSDOF 4
