REMARK  Name = ZINCqH0000006quR.1
REMARK                            x       y       z     vdW  Elec       q    Type
REMARK                         _______ _______ _______ _____ _____    ______ ____
ROOT
ATOM      1  C   LIG    1        1.743   1.750  -0.005  0.00  0.00    +0.250 A 
ATOM      2  N   LIG    1        2.131   0.507  -0.016  0.00  0.00    -0.260 NA
ATOM      3  N   LIG    1        1.239  -0.384  -0.012  0.00  0.00    -0.220 NA
ATOM      4  C   LIG    1        0.002  -0.004   0.002  0.00  0.00    +0.070 A 
ATOM      5  S   LIG    1       -0.022   1.761   0.012  0.00  0.00    +0.070 S 
ENDROOT
BRANCH   1   7
ATOM      6  C   LIG    1        3.909   2.714  -0.021  0.00  0.00    +0.600 C 
ATOM      7  N   LIG    1        2.570   2.867  -0.007  0.00  0.00    -0.620 N 
ATOM      8  H   LIG    1        2.183   3.757   0.001  0.00  0.00    +0.420 HD
ATOM      9  O   LIG    1        4.394   1.598  -0.031  0.00  0.00    -0.440 OA
BRANCH   6  13
ATOM     10  C   LIG    1        5.884   6.094  -0.021  0.00  0.00    +0.080 A 
ATOM     11  N   LIG    1        6.682   5.075  -0.035  0.00  0.00    -0.460 NA
ATOM     12  C   LIG    1        6.138   3.884  -0.036  0.00  0.00    +0.170 A 
ATOM     13  C   LIG    1        4.781   3.893  -0.023  0.00  0.00    -0.310 A 
ATOM     14  C   LIG    1        6.948   2.614  -0.050  0.00  0.00    +0.170 C 
ATOM     15  S   LIG    1        4.255   5.575  -0.016  0.00  0.00    +0.180 S 
BRANCH  10  16
ATOM     16  C   LIG    1        6.328   7.534  -0.018  0.00  0.00    +0.300 C 
BRANCH  16  18
ATOM     17  C   LIG    1        6.873   9.359  -1.473  0.00  0.00    +0.220 C 
ATOM     18  O   LIG    1        6.455   7.997  -1.364  0.00  0.00    -0.380 OA
ENDBRANCH  16  18
ENDBRANCH  10  16
ENDBRANCH   6  13
ENDBRANCH   1   7
BRANCH   4  19
ATOM     19  C   LIG    1       -1.204  -0.908   0.009  0.00  0.00    -0.020 C 
ATOM     20  C   LIG    1       -2.267  -0.659   1.081  0.00  0.00    +0.060 C 
ATOM     21  C   LIG    1       -1.351  -1.881   1.180  0.00  0.00    +0.080 C 
BRANCH  19  22
ATOM     22  C   LIG    1       -1.675  -1.373  -1.345  0.00  0.00    -0.040 A 
ATOM     23  C   LIG    1       -2.209  -2.639  -1.494  0.00  0.00    +0.020 A 
ATOM     24  C   LIG    1       -2.646  -3.063  -2.735  0.00  0.00    +0.020 A 
ATOM     25  C   LIG    1       -2.539  -2.225  -3.829  0.00  0.00    +0.000 A 
ATOM     26  C   LIG    1       -2.001  -0.961  -3.681  0.00  0.00    +0.010 A 
ATOM     27  C   LIG    1       -1.568  -0.534  -2.439  0.00  0.00    +0.000 A 
ENDBRANCH  19  22
ENDBRANCH   4  19
TORSDOF 6
