REMARK  Name = ZINCqH0000038yQu.0
REMARK                            x       y       z     vdW  Elec       q    Type
REMARK                         _______ _______ _______ _____ _____    ______ ____
ROOT
ATOM      1  N   LIG    1       -1.009   1.670  -1.112  0.00  0.00    -0.740 N 
ATOM      2  H   LIG    1       -1.035   2.630  -1.249  0.00  0.00    +0.400 HD
ATOM      3  C   LIG    1        0.133   1.077  -0.713  0.00  0.00    +0.710 C 
ATOM      4  N   LIG    1        1.212   1.826  -0.410  0.00  0.00    -0.630 N 
ATOM      5  C   LIG    1        1.185   3.284  -0.592  0.00  0.00    +0.270 C 
ATOM      6  C   LIG    1        1.592   3.948   0.733  0.00  0.00    +0.010 C 
ATOM      7  C   LIG    1        2.947   3.395   1.179  0.00  0.00    +0.030 C 
ATOM      8  C   LIG    1        2.833   1.887   1.412  0.00  0.00    +0.030 C 
ATOM      9  C   LIG    1        2.439   1.200   0.101  0.00  0.00    +0.370 C 
ATOM     10  O   LIG    1        0.192  -0.135  -0.631  0.00  0.00    -0.560 OA
ENDROOT
BRANCH   9  11
ATOM     11  C   LIG    1        2.191  -0.265   0.353  0.00  0.00    +0.180 A 
ATOM     12  N   LIG    1        1.287  -0.769   1.144  0.00  0.00    -0.240 NA
ATOM     13  N   LIG    1        1.359  -2.053   1.111  0.00  0.00    -0.250 NA
ATOM     14  C   LIG    1        2.317  -2.412   0.305  0.00  0.00    +0.140 A 
ATOM     15  O   LIG    1        2.866  -1.291  -0.193  0.00  0.00    -0.220 OA
BRANCH  14  16
ATOM     16  C   LIG    1        2.735  -3.825  -0.010  0.00  0.00    +0.280 C 
ATOM     17  C   LIG    1        3.515  -4.419   1.179  0.00  0.00    +0.030 C 
ATOM     18  C   LIG    1        2.699  -5.673   1.579  0.00  0.00    +0.020 C 
ATOM     19  C   LIG    1        1.893  -5.962   0.287  0.00  0.00    +0.220 C 
ATOM     20  O   LIG    1        1.572  -4.644  -0.215  0.00  0.00    -0.350 OA
ENDBRANCH  14  16
ENDBRANCH   9  11
BRANCH   1  21
ATOM     21  C   LIG    1       -2.213   0.866  -1.337  0.00  0.00    +0.380 C 
BRANCH  21  26
ATOM     22  C   LIG    1       -5.188   3.389  -4.548  0.00  0.00    +0.110 C 
ATOM     23  C   LIG    1       -4.715   2.923  -3.196  0.00  0.00    -0.110 A 
ATOM     24  C   LIG    1       -5.310   3.292  -2.061  0.00  0.00    -0.040 A 
ATOM     25  S   LIG    1       -4.484   2.554  -0.694  0.00  0.00    +0.120 S 
ATOM     26  C   LIG    1       -3.342   1.763  -1.774  0.00  0.00    -0.210 A 
ATOM     27  C   LIG    1       -3.626   2.083  -3.037  0.00  0.00    +0.030 A 
ENDBRANCH  21  26
ENDBRANCH   1  21
TORSDOF 4
