REMARK  Name = ZINCrH000004otcP.0
REMARK                            x       y       z     vdW  Elec       q    Type
REMARK                         _______ _______ _______ _____ _____    ______ ____
ROOT
ATOM      1  C   LIG    1       -0.898   8.121  -3.166  0.00  0.00    +0.250 A 
ATOM      2  C   LIG    1       -0.306   7.383  -4.183  0.00  0.00    -0.050 A 
ATOM      3  C   LIG    1       -0.767   7.503  -5.479  0.00  0.00    +0.190 A 
ATOM      4  C   LIG    1       -1.809   8.365  -5.767  0.00  0.00    -0.690 A 
ATOM      5  C   LIG    1       -2.398   9.105  -4.757  0.00  0.00    +0.250 A 
ATOM      6  C   LIG    1       -1.945   8.985  -3.458  0.00  0.00    -0.670 A 
ENDROOT
BRANCH   4   7
ATOM      7  S   LIG    1       -2.390   8.520  -7.423  0.00  0.00    +2.500 S 
ATOM      8  O   LIG    1       -3.744   8.929  -7.283  0.00  0.00    -0.930 OA
ATOM      9  O   LIG    1       -2.060   7.277  -8.028  0.00  0.00    -0.930 OA
ATOM     10  C   LIG    1       -1.390   9.857  -8.130  0.00  0.00    -0.240 C 
ENDBRANCH   4   7
BRANCH   6  11
ATOM     11  S   LIG    1       -2.695   9.929  -2.173  0.00  0.00    +2.510 S 
ATOM     12  O   LIG    1       -3.675  10.713  -2.840  0.00  0.00    -0.940 OA
ATOM     13  O   LIG    1       -1.601  10.538  -1.501  0.00  0.00    -0.920 OA
ATOM     14  C   LIG    1       -3.488   8.693  -1.107  0.00  0.00    -0.250 C 
ENDBRANCH   6  11
BRANCH   1  15
ATOM     15  N   LIG    1       -0.438   7.998  -1.853  0.00  0.00    -0.520 N 
ATOM     16  C   LIG    1        0.887   8.613  -1.699  0.00  0.00    +0.250 C 
BRANCH  15  17
ATOM     17  C   LIG    1       -0.417   6.590  -1.432  0.00  0.00    +0.150 C 
ATOM     18  C   LIG    1       -1.806   5.980  -1.623  0.00  0.00    +0.040 C 
BRANCH  17  20
ATOM     19  C   LIG    1       -1.059   7.241   0.893  0.00  0.00    +0.040 C 
ATOM     20  C   LIG    1       -0.021   6.505   0.044  0.00  0.00    +0.040 C 
BRANCH  20  21
ATOM     21  C   LIG    1        0.039   5.060   0.465  0.00  0.00    -0.070 A 
ATOM     22  C   LIG    1        1.258   4.412   0.539  0.00  0.00    +0.030 A 
ATOM     23  C   LIG    1        1.313   3.086   0.926  0.00  0.00    +0.020 A 
ATOM     24  C   LIG    1        0.149   2.407   1.239  0.00  0.00    -0.040 A 
ATOM     25  C   LIG    1       -1.071   3.055   1.158  0.00  0.00    +0.020 A 
ATOM     26 CL   LIG    1        0.218   0.742   1.725  0.00  0.00    -0.070 Cl
ATOM     27  C   LIG    1       -1.125   4.382   0.778  0.00  0.00    +0.030 A 
ENDBRANCH  20  21
ENDBRANCH  17  20
ENDBRANCH  15  17
ENDBRANCH   1  15
TORSDOF 6
