REMARK  Name = ZINCpe000000UTHQ.1
REMARK                            x       y       z     vdW  Elec       q    Type
REMARK                         _______ _______ _______ _____ _____    ______ ____
ROOT
ATOM      1  N   LIG    1       -0.899   8.405   0.200  0.00  0.00    -0.520 NA
ATOM      2  C   LIG    1       -1.632   8.564  -1.063  0.00  0.00    +0.170 C 
ATOM      3  C   LIG    1       -1.775   7.202  -1.746  0.00  0.00    +0.080 C 
ATOM      4  C   LIG    1       -0.383   6.621  -2.011  0.00  0.00    -0.010 C 
ATOM      5  C   LIG    1        0.376   6.511  -0.686  0.00  0.00    +0.040 C 
ATOM      6  C   LIG    1        0.457   7.893  -0.034  0.00  0.00    +0.190 C 
ENDROOT
BRANCH   4   7
ATOM      7  C   LIG    1       -0.518   5.253  -2.630  0.00  0.00    +0.510 C 
ATOM      8  N   LIG    1        0.584   4.547  -2.951  0.00  0.00    -0.660 N 
ATOM      9  H   LIG    1        1.462   4.884  -2.713  0.00  0.00    +0.420 HD
ATOM     10  O   LIG    1       -1.618   4.788  -2.838  0.00  0.00    -0.460 OA
BRANCH   8  11
ATOM     11  C   LIG    1        0.462   3.333  -3.625  0.00  0.00    +0.350 A 
ATOM     12  C   LIG    1        1.604   2.666  -4.053  0.00  0.00    -0.060 A 
ATOM     13  C   LIG    1        1.469   1.461  -4.721  0.00  0.00    +0.090 A 
ATOM     14  C   LIG    1        0.191   0.965  -4.939  0.00  0.00    -0.170 A 
ATOM     15  C   LIG    1       -0.899   1.682  -4.487  0.00  0.00    +0.290 A 
ATOM     16  C   LIG    1       -0.004  -0.343  -5.662  0.00  0.00    +0.100 C 
ATOM     17  N   LIG    1       -0.739   2.827  -3.853  0.00  0.00    -0.470 NA
ENDBRANCH   8  11
ENDBRANCH   4   7
BRANCH   1  18
ATOM     18  C   LIG    1       -0.863   9.667   0.950  0.00  0.00    +0.140 C 
ATOM     19  C   LIG    1       -0.016   9.487   2.212  0.00  0.00    +0.080 C 
BRANCH  18  26
ATOM     20  C   LIG    1       -5.483  13.389   2.492  0.00  0.00    +0.300 C 
ATOM     21  N   LIG    1       -4.120  13.006   2.114  0.00  0.00    -0.740 N 
ATOM     22  H   LIG    1       -3.435  13.685   2.019  0.00  0.00    +0.400 HD
ATOM     23  C   LIG    1       -3.820  11.710   1.900  0.00  0.00    +0.690 C 
ATOM     24  N   LIG    1       -2.566  11.357   1.553  0.00  0.00    -0.690 N 
ATOM     25  H   LIG    1       -1.880  12.037   1.457  0.00  0.00    +0.410 HD
ATOM     26  C   LIG    1       -2.265  10.061   1.339  0.00  0.00    +0.520 C 
ATOM     27  O   LIG    1       -3.122   9.212   1.458  0.00  0.00    -0.440 OA
ATOM     28  O   LIG    1       -4.679  10.858   2.020  0.00  0.00    -0.530 OA
ENDBRANCH  18  26
ENDBRANCH   1  18
TORSDOF 4
