REMARK  Name = ZINCpe000000XFEy.0
REMARK                            x       y       z     vdW  Elec       q    Type
REMARK                         _______ _______ _______ _____ _____    ______ ____
ROOT
ATOM      1  N   LIG    1       -3.270   8.932  -3.709  0.00  0.00    -0.540 NA
ATOM      2  C   LIG    1       -4.567   8.789  -3.034  0.00  0.00    +0.200 C 
ATOM      3  C   LIG    1       -4.338   8.381  -1.576  0.00  0.00    +0.190 C 
ATOM      4  N   LIG    1       -3.583   7.121  -1.536  0.00  0.00    -0.540 NA
ATOM      5  C   LIG    1       -2.286   7.264  -2.211  0.00  0.00    +0.170 C 
ATOM      6  C   LIG    1       -2.515   7.672  -3.668  0.00  0.00    +0.180 C 
ENDROOT
BRANCH   1   7
ATOM      7  C   LIG    1       -3.445   9.397  -5.092  0.00  0.00    +0.300 C 
BRANCH   7  12
ATOM      8  C   LIG    1        0.546   7.864  -7.855  0.00  0.00    +0.160 C 
ATOM      9  C   LIG    1       -0.412   8.659  -7.005  0.00  0.00    +0.020 A 
ATOM     10  N   LIG    1       -0.243   9.874  -6.567  0.00  0.00    -0.360 NA
ATOM     11  O   LIG    1       -1.187  10.245  -5.910  0.00  0.00    +0.110 OA
ATOM     12  C   LIG    1       -2.132   9.298  -5.825  0.00  0.00    -0.020 A 
ATOM     13  C   LIG    1       -1.671   8.233  -6.523  0.00  0.00    -0.060 A 
ENDBRANCH   7  12
ENDBRANCH   1   7
BRANCH   4  14
ATOM     14  C   LIG    1       -3.409   6.656  -0.153  0.00  0.00    +0.180 C 
BRANCH  14  15
ATOM     15  C   LIG    1       -2.846   5.233  -0.160  0.00  0.00    +0.020 C 
BRANCH  15  16
ATOM     16  C   LIG    1       -2.664   4.750   1.280  0.00  0.00    +0.320 C 
BRANCH  16  17
ATOM     17  N   LIG    1       -2.125   3.387   1.273  0.00  0.00    -0.580 N 
ATOM     18  C   LIG    1       -2.878   2.281   1.264  0.00  0.00    +0.700 C 
ATOM     19  N   LIG    1       -2.139   1.153   1.261  0.00  0.00    -0.720 N 
ATOM     20  H   LIG    1       -2.469   0.241   1.256  0.00  0.00    +0.440 HD
ATOM     21  C   LIG    1       -0.729   1.579   1.267  0.00  0.00    +0.120 C 
ATOM     22  C   LIG    1       -0.018   1.071   2.523  0.00  0.00    +0.090 C 
ATOM     23  C   LIG    1       -0.013   1.086   0.008  0.00  0.00    +0.090 C 
ATOM     24  O   LIG    1       -4.094   2.292   1.260  0.00  0.00    -0.540 OA
ATOM     25  C   LIG    1       -0.810   3.093   1.276  0.00  0.00    +0.530 C 
ATOM     26  O   LIG    1        0.115   3.876   1.284  0.00  0.00    -0.460 OA
ENDBRANCH  16  17
ENDBRANCH  15  16
ENDBRANCH  14  15
ENDBRANCH   4  14
TORSDOF 6
