REMARK  Name = ZINCpk00000ea1Gh.0
REMARK                            x       y       z     vdW  Elec       q    Type
REMARK                         _______ _______ _______ _____ _____    ______ ____
ROOT
ATOM      1  C   LIG    1        1.488   1.354   0.022  0.00  0.00    +0.040 C 
ATOM      2  C   LIG    1        1.623   2.250   1.272  0.00  0.00    +0.300 C 
ATOM      3  N   LIG    1        0.563   1.773   2.190  0.00  0.00    -0.630 N 
ATOM      4  C   LIG    1       -0.593   1.499   1.304  0.00  0.00    +0.290 C 
ATOM      5  C   LIG    1        0.633   1.623   3.528  0.00  0.00    +0.540 C 
ATOM      6  O   LIG    1       -0.330   1.218   4.144  0.00  0.00    -0.510 OA
ATOM      7  C   LIG    1        0.027   0.859   0.043  0.00  0.00    +0.060 C 
ENDROOT
BRANCH   5   8
ATOM      8  C   LIG    1        1.909   1.957   4.258  0.00  0.00    +0.260 C 
ATOM      9  C   LIG    1        1.580   2.431   5.675  0.00  0.00    +0.050 C 
ATOM     10  C   LIG    1        0.263   3.184   5.701  0.00  0.00    +0.020 C 
ATOM     11  C   LIG    1        0.297   4.506   4.955  0.00  0.00    +0.030 C 
ATOM     12  C   LIG    1        0.477   4.276   3.453  0.00  0.00    +0.040 C 
ATOM     13  C   LIG    1        1.956   4.132   3.163  0.00  0.00    +0.520 C 
ATOM     14  O   LIG    1        2.546   5.015   2.576  0.00  0.00    -0.540 OA
ATOM     15  N   LIG    1        2.613   3.038   3.550  0.00  0.00    -0.720 N 
ATOM     16  H   LIG    1        3.562   2.955   3.365  0.00  0.00    +0.410 HD
ENDBRANCH   5   8
BRANCH   7  17
ATOM     17  C   LIG    1       -0.701   1.322  -1.193  0.00  0.00    -0.080 A 
ATOM     18  C   LIG    1       -0.803   2.672  -1.470  0.00  0.00    +0.010 A 
ATOM     19  C   LIG    1       -1.467   3.097  -2.606  0.00  0.00    +0.000 A 
ATOM     20  C   LIG    1       -2.037   2.171  -3.460  0.00  0.00    +0.000 A 
ATOM     21  C   LIG    1       -1.940   0.821  -3.179  0.00  0.00    +0.000 A 
ATOM     22  C   LIG    1       -1.273   0.396  -2.046  0.00  0.00    +0.010 A 
ENDBRANCH   7  17
BRANCH   1  23
ATOM     23  C   LIG    1        2.438   0.187   0.105  0.00  0.00    +0.470 C 
ATOM     24  O   LIG    1        2.006  -0.939   0.175  0.00  0.00    -0.500 OA
BRANCH  23  26
ATOM     25  C   LIG    1        4.618  -0.772   0.183  0.00  0.00    +0.270 C 
ATOM     26  O   LIG    1        3.763   0.399   0.101  0.00  0.00    -0.360 OA
ENDBRANCH  23  26
ENDBRANCH   1  23
TORSDOF 4
