REMARK  Name = ZINCbw0000000HmE.0
REMARK                            x       y       z     vdW  Elec       q    Type
REMARK                         _______ _______ _______ _____ _____    ______ ____
ROOT
ATOM      1 CL   LIG    1        2.610   4.595   0.002  0.00  0.00    +0.040 Cl
ATOM      2  C   LIG    1        1.100   3.738   0.012  0.00  0.00    +0.370 A 
ATOM      3  N   LIG    1       -0.027   4.423   0.026  0.00  0.00    -0.490 NA
ATOM      4  C   LIG    1       -1.197   3.803   0.034  0.00  0.00    +0.370 A 
ATOM      5  C   LIG    1       -1.228   2.419   0.021  0.00  0.00    -0.140 A 
ATOM      6  C   LIG    1       -0.021   1.732   0.012  0.00  0.00    +0.240 A 
ATOM      7 CL   LIG    1        0.002  -0.004   0.002  0.00  0.00    +0.010 Cl
ATOM      8  N   LIG    1        1.111   2.418   0.004  0.00  0.00    -0.500 NA
ENDROOT
BRANCH   5   9
ATOM      9  C   LIG    1       -2.539   1.676   0.023  0.00  0.00    +0.000 C 
ATOM     10  C   LIG    1       -3.816   2.497  -0.170  0.00  0.00    +0.040 C 
ATOM     11  C   LIG    1       -3.482   1.912   1.204  0.00  0.00    +0.050 C 
ENDBRANCH   5   9
TORSDOF 1
