REMARK  Name = ZINCpk00000eaQxU.0
REMARK                            x       y       z     vdW  Elec       q    Type
REMARK                         _______ _______ _______ _____ _____    ______ ____
ROOT
ATOM      1  C   LIG    1        3.699   1.840  -1.672  0.00  0.00    +0.100 A 
ATOM      2  C   LIG    1        5.036   1.870  -1.399  0.00  0.00    -0.230 A 
ATOM      3  C   LIG    1        5.508   3.177  -1.878  0.00  0.00    -0.040 A 
ATOM      4  C   LIG    1        4.430   3.796  -2.383  0.00  0.00    +0.190 A 
ATOM      5  O   LIG    1        3.363   2.992  -2.260  0.00  0.00    -0.160 OA
ENDROOT
BRANCH   2   6
ATOM      6  C   LIG    1        5.838   0.813  -0.759  0.00  0.00    +0.600 C 
ATOM      7  N   LIG    1        7.158   0.997  -0.559  0.00  0.00    -0.640 N 
ATOM      8  H   LIG    1        7.580   1.825  -0.836  0.00  0.00    +0.420 HD
ATOM      9  O   LIG    1        5.309  -0.226  -0.412  0.00  0.00    -0.450 OA
BRANCH   7  10
ATOM     10  C   LIG    1        7.909   0.007   0.041  0.00  0.00    +0.550 C 
ATOM     11  N   LIG    1        7.418  -1.125   0.437  0.00  0.00    -0.490 NA
ATOM     12  C   LIG    1        8.520  -1.908   1.018  0.00  0.00    +0.270 C 
ATOM     13  C   LIG    1        9.726  -1.001   0.875  0.00  0.00    +0.510 C 
ATOM     14  O   LIG    1       10.866  -1.229   1.219  0.00  0.00    -0.480 OA
ATOM     15  N   LIG    1        9.257   0.114   0.275  0.00  0.00    -0.690 N 
ATOM     16  H   LIG    1        9.798   0.885   0.045  0.00  0.00    +0.420 HD
ENDBRANCH   7  10
ENDBRANCH   2   6
BRANCH   1  17
ATOM     17  C   LIG    1        2.762   0.700  -1.367  0.00  0.00    +0.320 C 
BRANCH  17  27
ATOM     18  C   LIG    1        1.571  -0.522   1.920  0.00  0.00    +0.060 C 
ATOM     19  C   LIG    1        1.458  -0.330   0.406  0.00  0.00    +0.180 C 
ATOM     20  C   LIG    1        0.002  -0.004   0.002  0.00  0.00    +0.060 C 
ATOM     21  C   LIG    1       -0.018   1.512   0.010  0.00  0.00    -0.130 A 
ATOM     22  C   LIG    1       -1.062   2.412   0.030  0.00  0.00    +0.030 A 
ATOM     23  C   LIG    1       -0.805   3.772   0.035  0.00  0.00    +0.000 A 
ATOM     24  C   LIG    1        0.501   4.226   0.029  0.00  0.00    +0.020 A 
ATOM     25  C   LIG    1        1.549   3.329   0.012  0.00  0.00    +0.020 A 
ATOM     26  C   LIG    1        1.298   1.958   0.000  0.00  0.00    +0.080 A 
ATOM     27  N   LIG    1        2.192   0.880  -0.025  0.00  0.00    -0.480 N 
ENDBRANCH  17  27
ENDBRANCH   1  17
TORSDOF 4
