REMARK  Name = ZINCvU0000000Hjq.0
REMARK                            x       y       z     vdW  Elec       q    Type
REMARK                         _______ _______ _______ _____ _____    ______ ____
ROOT
ATOM      1  C   LIG    1       -0.398  -2.094  -0.424  0.00  0.00    +0.150 A 
ATOM      2  N   LIG    1        0.528  -2.007   0.502  0.00  0.00    -0.290 NA
ATOM      3  N   LIG    1        0.773  -0.772   0.762  0.00  0.00    -0.250 NA
ATOM      4  C   LIG    1        0.017  -0.002   0.031  0.00  0.00    +0.200 A 
ATOM      5  N   LIG    1       -0.754  -0.816  -0.755  0.00  0.00    -0.420 N 
ENDROOT
BRANCH   5   6
ATOM      6  C   LIG    1       -1.711  -0.421  -1.702  0.00  0.00    +0.110 A 
ATOM      7  C   LIG    1       -2.861   0.242  -1.294  0.00  0.00    +0.050 A 
ATOM      8  C   LIG    1       -3.799   0.635  -2.228  0.00  0.00    +0.060 A 
ATOM      9  C   LIG    1       -3.599   0.359  -3.569  0.00  0.00    -0.020 A 
ATOM     10  C   LIG    1       -2.456  -0.306  -3.978  0.00  0.00    +0.060 A 
ATOM     11 CL   LIG    1       -4.783   0.848  -4.741  0.00  0.00    -0.050 Cl
ATOM     12  C   LIG    1       -1.513  -0.697  -3.048  0.00  0.00    +0.060 A 
ENDBRANCH   5   6
BRANCH   4  13
ATOM     13  C   LIG    1        0.001   1.505   0.044  0.00  0.00    +0.230 C 
ATOM     14  C   LIG    1       -0.725   1.996   1.298  0.00  0.00    +0.070 C 
BRANCH  13  15
ATOM     15  N   LIG    1        1.380   2.010   0.047  0.00  0.00    -0.530 NA
ATOM     16  C   LIG    1        1.403   3.479   0.059  0.00  0.00    +0.210 C 
ATOM     17  C   LIG    1        2.137   1.481  -1.096  0.00  0.00    +0.190 C 
ENDBRANCH  13  15
ENDBRANCH   4  13
BRANCH   1  18
ATOM     18  S   LIG    1       -1.057  -3.577  -1.111  0.00  0.00    +0.060 S 
BRANCH  18  19
ATOM     19  C   LIG    1       -0.103  -4.804  -0.183  0.00  0.00    +0.090 C 
BRANCH  19  20
ATOM     20  C   LIG    1       -0.510  -6.189  -0.616  0.00  0.00    +0.470 C 
ATOM     21  O   LIG    1       -1.428  -6.335  -1.397  0.00  0.00    -0.430 OA
BRANCH  20  24
ATOM     22  C   LIG    1        2.103  -7.360  -1.804  0.00  0.00    +0.150 C 
ATOM     23  C   LIG    1        1.340  -7.872  -0.609  0.00  0.00    +0.150 A 
ATOM     24  C   LIG    1        0.179  -7.320  -0.112  0.00  0.00    -0.270 A 
ATOM     25  C   LIG    1       -0.200  -8.141   1.055  0.00  0.00    -0.060 A 
ATOM     26  C   LIG    1       -1.249  -8.097   1.968  0.00  0.00    +0.040 A 
ATOM     27  C   LIG    1       -1.318  -9.038   2.974  0.00  0.00    +0.000 A 
ATOM     28  C   LIG    1       -0.348 -10.024   3.077  0.00  0.00    +0.030 A 
ATOM     29  C   LIG    1        0.691 -10.083   2.174  0.00  0.00    +0.000 A 
ATOM     30  C   LIG    1        0.781  -9.140   1.155  0.00  0.00    +0.090 A 
ATOM     31  N   LIG    1        1.690  -8.938   0.136  0.00  0.00    -0.570 N 
ATOM     32  H   LIG    1        2.472  -9.489  -0.022  0.00  0.00    +0.420 HD
ENDBRANCH  20  24
ENDBRANCH  19  20
ENDBRANCH  18  19
ENDBRANCH   1  18
TORSDOF 7
