REMARK  Name = ZINCkj00000GeQFn.1
REMARK                            x       y       z     vdW  Elec       q    Type
REMARK                         _______ _______ _______ _____ _____    ______ ____
ROOT
ATOM      1  C   LIG    1       -2.170   1.961   0.914  0.00  0.00    +0.230 C 
ATOM      2  C   LIG    1       -2.063   1.516  -0.560  0.00  0.00    +0.030 C 
ATOM      3  C   LIG    1       -0.571   1.775  -0.894  0.00  0.00    +0.060 C 
ATOM      4  C   LIG    1        0.115   1.422   0.450  0.00  0.00    +0.260 C 
ATOM      5  N   LIG    1       -0.815   1.904   1.488  0.00  0.00    -0.610 N 
ATOM      6  C   LIG    1       -0.478   2.236   2.750  0.00  0.00    +0.520 C 
ATOM      7  O   LIG    1       -1.330   2.621   3.523  0.00  0.00    -0.500 OA
ENDROOT
BRANCH   1  12
ATOM      8  N   LIG    1       -4.470   1.119   1.146  0.00  0.00    -0.380 N 
ATOM      9  C   LIG    1       -4.868  -0.198   0.606  0.00  0.00    +0.260 C 
ATOM     10  C   LIG    1       -3.980  -1.220   1.360  0.00  0.00    +0.080 C 
ATOM     11  C   LIG    1       -2.640  -0.446   1.475  0.00  0.00    +0.080 C 
ATOM     12  C   LIG    1       -3.098   1.014   1.677  0.00  0.00    +0.160 C 
ATOM     13  H   LIG    1       -5.101   1.387   1.886  0.00  0.00    +0.430 HD
BRANCH   8  15
ATOM     14  C   LIG    1       -5.964   2.489  -0.228  0.00  0.00    +0.080 C 
ATOM     15  C   LIG    1       -4.509   2.125   0.076  0.00  0.00    +0.230 C 
ENDBRANCH   8  15
ENDBRANCH   1  12
BRANCH   6  16
ATOM     16  C   LIG    1        0.955   2.128   3.201  0.00  0.00    +0.380 C 
BRANCH  16  17
ATOM     17  N   LIG    1        1.059   2.543   4.603  0.00  0.00    -0.380 N 
ATOM     18  C   LIG    1        1.581   1.812   5.610  0.00  0.00    +0.230 A 
ATOM     19  C   LIG    1        1.494   2.550   6.742  0.00  0.00    -0.110 A 
ATOM     20  C   LIG    1        0.889   3.768   6.416  0.00  0.00    +0.240 A 
ATOM     21  N   LIG    1        0.628   3.765   5.134  0.00  0.00    -0.270 NA
ENDBRANCH  16  17
ENDBRANCH   6  16
TORSDOF 4
