REMARK  Name = ZINCkj00000GeQFn.0
REMARK                            x       y       z     vdW  Elec       q    Type
REMARK                         _______ _______ _______ _____ _____    ______ ____
ROOT
ATOM      1  C   LIG    1       -0.821   1.627  -1.190  0.00  0.00    +0.230 C 
ATOM      2  C   LIG    1       -0.013   1.086   0.008  0.00  0.00    +0.030 C 
ATOM      3  C   LIG    1       -0.802   1.617   1.234  0.00  0.00    +0.060 C 
ATOM      4  C   LIG    1       -2.264   1.534   0.716  0.00  0.00    +0.260 C 
ATOM      5  N   LIG    1       -2.183   1.902  -0.710  0.00  0.00    -0.610 N 
ATOM      6  C   LIG    1       -3.190   2.407  -1.449  0.00  0.00    +0.520 C 
ATOM      7  O   LIG    1       -3.008   2.675  -2.618  0.00  0.00    -0.500 OA
ENDROOT
BRANCH   1  12
ATOM      8  N   LIG    1        0.513   0.203  -2.687  0.00  0.00    -0.390 N 
ATOM      9  C   LIG    1        0.694  -1.240  -2.421  0.00  0.00    +0.250 C 
ATOM     10  C   LIG    1       -0.737  -1.832  -2.461  0.00  0.00    +0.080 C 
ATOM     11  C   LIG    1       -1.568  -0.694  -1.806  0.00  0.00    +0.080 C 
ATOM     12  C   LIG    1       -0.860   0.582  -2.307  0.00  0.00    +0.160 C 
ATOM     13  H   LIG    1        1.175   0.733  -2.141  0.00  0.00    +0.420 HD
BRANCH   8  15
ATOM     14  C   LIG    1        2.182   0.196  -4.479  0.00  0.00    +0.080 C 
ATOM     15  C   LIG    1        0.722   0.472  -4.116  0.00  0.00    +0.250 C 
ENDBRANCH   8  15
ENDBRANCH   1  12
BRANCH   6  16
ATOM     16  C   LIG    1       -4.541   2.639  -0.824  0.00  0.00    +0.380 C 
BRANCH  16  17
ATOM     17  N   LIG    1       -5.456   3.189  -1.828  0.00  0.00    -0.380 N 
ATOM     18  C   LIG    1       -6.656   2.678  -2.173  0.00  0.00    +0.230 A 
ATOM     19  C   LIG    1       -7.184   3.476  -3.131  0.00  0.00    -0.110 A 
ATOM     20  C   LIG    1       -6.275   4.510  -3.378  0.00  0.00    +0.240 A 
ATOM     21  N   LIG    1       -5.241   4.342  -2.594  0.00  0.00    -0.270 NA
ENDBRANCH  16  17
ENDBRANCH   6  16
TORSDOF 4
