REMARK  Name = ZINCpk00000eaTOd.0
REMARK                            x       y       z     vdW  Elec       q    Type
REMARK                         _______ _______ _______ _____ _____    ______ ____
ROOT
ATOM      1  C   LIG    1       -1.147  -0.480   2.472  0.00  0.00    +0.150 C 
ATOM      2  C   LIG    1       -1.791  -0.974   1.202  0.00  0.00    +0.140 A 
ATOM      3  C   LIG    1       -2.957  -1.660   1.267  0.00  0.00    -0.090 A 
ATOM      4  C   LIG    1       -3.528  -2.112   0.050  0.00  0.00    +0.380 A 
ATOM      5  C   LIG    1       -2.806  -1.792  -1.191  0.00  0.00    -0.040 A 
ATOM      6  N   LIG    1       -1.681  -1.112  -1.112  0.00  0.00    -0.160 NA
ATOM      7  O   LIG    1       -4.575  -2.740   0.033  0.00  0.00    -0.450 OA
ATOM      8  N   LIG    1       -1.199  -0.722   0.009  0.00  0.00    -0.270 N 
ENDROOT
BRANCH   8   9
ATOM      9  C   LIG    1        0.002  -0.004   0.002  0.00  0.00    +0.110 A 
ATOM     10  C   LIG    1       -0.017   1.385   0.010  0.00  0.00    +0.060 A 
ATOM     11  C   LIG    1        1.171   2.090   0.002  0.00  0.00    +0.050 A 
ATOM     12  C   LIG    1        2.378   1.416  -0.013  0.00  0.00    +0.070 A 
ATOM     13  C   LIG    1        2.401   0.033  -0.021  0.00  0.00    +0.050 A 
ATOM     14  C   LIG    1        1.218  -0.679  -0.013  0.00  0.00    -0.020 A 
ATOM     15 CL   LIG    1        1.247  -2.415  -0.023  0.00  0.00    -0.040 Cl
ENDBRANCH   8   9
BRANCH   5  16
ATOM     16  C   LIG    1       -3.332  -2.226  -2.501  0.00  0.00    +0.590 C 
ATOM     17  N   LIG    1       -2.660  -1.926  -3.630  0.00  0.00    -0.710 N 
ATOM     18  H   LIG    1       -1.831  -1.425  -3.583  0.00  0.00    +0.420 HD
ATOM     19  O   LIG    1       -4.372  -2.853  -2.561  0.00  0.00    -0.500 OA
BRANCH  17  20
ATOM     20  C   LIG    1       -3.182  -2.356  -4.930  0.00  0.00    +0.300 C 
BRANCH  20  21
ATOM     21  C   LIG    1       -2.251  -1.897  -6.022  0.00  0.00    +0.510 C 
ATOM     22  N   LIG    1       -2.531  -2.181  -7.310  0.00  0.00    -0.720 N 
ATOM     23  H   LIG    1       -3.332  -2.681  -7.533  0.00  0.00    +0.400 HD
ATOM     24  O   LIG    1       -1.250  -1.272  -5.743  0.00  0.00    -0.530 OA
BRANCH  22  25
ATOM     25  C   LIG    1       -1.626  -1.735  -8.372  0.00  0.00    +0.230 C 
ATOM     26  C   LIG    1       -2.403  -1.606  -9.683  0.00  0.00    +0.030 C 
ATOM     27  C   LIG    1       -0.500  -2.756  -8.544  0.00  0.00    +0.020 C 
ENDBRANCH  22  25
ENDBRANCH  20  21
ENDBRANCH  17  20
ENDBRANCH   5  16
TORSDOF 5
