REMARK  Name = ZINCpk00000xI36b.0
REMARK                            x       y       z     vdW  Elec       q    Type
REMARK                         _______ _______ _______ _____ _____    ______ ____
ROOT
ATOM      1  C   LIG    1        6.916   0.756  -6.405  0.00  0.00    +0.190 C 
ATOM      2  C   LIG    1        6.039   1.790  -5.746  0.00  0.00    +0.070 A 
ATOM      3  C   LIG    1        5.569   1.736  -4.503  0.00  0.00    +0.020 A 
ATOM      4  N   LIG    1        4.808   2.869  -4.277  0.00  0.00    -0.350 N 
ATOM      5  C   LIG    1        4.821   3.619  -5.404  0.00  0.00    +0.450 A 
ATOM      6  N   LIG    1        4.097   4.712  -5.210  0.00  0.00    -0.510 NA
ATOM      7  C   LIG    1        3.598   4.713  -3.977  0.00  0.00    +0.380 A 
ATOM      8  N   LIG    1        2.792   5.593  -3.270  0.00  0.00    -0.510 N 
ATOM      9  C   LIG    1        2.320   6.826  -3.904  0.00  0.00    +0.350 C 
ATOM     10  C   LIG    1        2.444   5.313  -1.999  0.00  0.00    +0.710 A 
ATOM     11  O   LIG    1        1.738   6.095  -1.393  0.00  0.00    -0.530 OA
ATOM     12  N   LIG    1        2.858   4.192  -1.385  0.00  0.00    -0.550 N 
ATOM     13  C   LIG    1        3.648   3.301  -2.020  0.00  0.00    +0.600 A 
ATOM     14  O   LIG    1        4.020   2.291  -1.448  0.00  0.00    -0.520 OA
ATOM     15  C   LIG    1        4.032   3.547  -3.348  0.00  0.00    -0.190 A 
ATOM     16  C   LIG    1        5.821   0.630  -3.511  0.00  0.00    +0.170 C 
ATOM     17  N   LIG    1        5.585   2.958  -6.329  0.00  0.00    -0.560 N 
ATOM     18  H   LIG    1        5.773   3.256  -7.232  0.00  0.00    +0.450 HD
ENDROOT
BRANCH  12  19
ATOM     19  C   LIG    1        2.451   3.936  -0.001  0.00  0.00    +0.380 C 
BRANCH  19  20
ATOM     20  C   LIG    1        1.156   3.166   0.007  0.00  0.00    -0.130 A 
ATOM     21  C   LIG    1        1.175   1.783   0.000  0.00  0.00    +0.080 A 
ATOM     22  C   LIG    1       -0.013   1.076   0.008  0.00  0.00    -0.020 A 
ATOM     23  C   LIG    1       -1.221   1.752   0.017  0.00  0.00    +0.110 A 
ATOM     24  C   LIG    1       -1.238   3.136   0.030  0.00  0.00    -0.020 A 
ATOM     25  F   LIG    1       -2.382   1.062   0.019  0.00  0.00    -0.140 F 
ATOM     26  C   LIG    1       -0.050   3.842   0.022  0.00  0.00    +0.080 A 
ENDBRANCH  19  20
ENDBRANCH  12  19
TORSDOF 2
