REMARK  Name = ZINCrH00000tj17L.0
REMARK                            x       y       z     vdW  Elec       q    Type
REMARK                         _______ _______ _______ _____ _____    ______ ____
ROOT
ATOM      1  C   LIG    1       -2.827   3.193  -2.535  0.00  0.00    -0.150 A 
ATOM      2  C   LIG    1       -3.207   2.119  -3.316  0.00  0.00    +0.100 A 
ATOM      3  C   LIG    1       -4.540   1.755  -3.391  0.00  0.00    -0.120 A 
ATOM      4  C   LIG    1       -5.493   2.465  -2.683  0.00  0.00    +0.100 A 
ATOM      5  C   LIG    1       -5.116   3.539  -1.899  0.00  0.00    -0.200 A 
ATOM      6  C   LIG    1       -6.163   4.303  -1.127  0.00  0.00    +0.300 C 
ATOM      7  O   LIG    1       -5.619   5.558  -0.707  0.00  0.00    -0.370 OA
ATOM      8  C   LIG    1       -4.334   5.432  -0.086  0.00  0.00    +0.400 C 
ATOM      9  O   LIG    1       -3.399   4.967  -1.063  0.00  0.00    -0.310 OA
ATOM     10 BR   LIG    1       -5.060   0.287  -4.463  0.00  0.00    -0.040 Br
ATOM     11  C   LIG    1       -3.781   3.904  -1.820  0.00  0.00    +0.170 A 
ENDROOT
BRANCH   8  12
ATOM     12  C   LIG    1       -3.894   6.773   0.442  0.00  0.00    -0.070 A 
ATOM     13  C   LIG    1       -2.724   7.347  -0.018  0.00  0.00    +0.040 A 
ATOM     14  C   LIG    1       -2.322   8.579   0.464  0.00  0.00    +0.010 A 
ATOM     15  C   LIG    1       -3.087   9.234   1.411  0.00  0.00    +0.010 A 
ATOM     16  C   LIG    1       -4.255   8.658   1.875  0.00  0.00    +0.010 A 
ATOM     17  C   LIG    1       -4.659   7.427   1.390  0.00  0.00    +0.030 A 
ENDBRANCH   8  12
BRANCH   1  18
ATOM     18  C   LIG    1       -1.375   3.588  -2.454  0.00  0.00    +0.280 C 
BRANCH  18  23
ATOM     19  C   LIG    1       -0.801   3.110   1.237  0.00  0.00    +0.000 C 
ATOM     20  C   LIG    1       -0.731   1.580   1.267  0.00  0.00    +0.020 C 
ATOM     21  C   LIG    1       -0.013   1.086   0.008  0.00  0.00    +0.040 C 
ATOM     22  C   LIG    1       -0.754   1.594  -1.231  0.00  0.00    +0.170 C 
ATOM     23  N   LIG    1       -0.793   3.061  -1.212  0.00  0.00    -0.520 NA
ATOM     24  C   LIG    1       -1.520   3.559  -0.037  0.00  0.00    +0.210 C 
BRANCH  19  28
ATOM     25  N   LIG    1       -1.108   3.325   3.682  0.00  0.00    -0.860 N 
ATOM     26  H   LIG    1       -1.596   3.642   4.458  0.00  0.00    +0.400 HD
ATOM     27  H   LIG    1       -0.296   2.807   3.798  0.00  0.00    +0.400 HD
ATOM     28  C   LIG    1       -1.559   3.603   2.443  0.00  0.00    +0.520 C 
ATOM     29  O   LIG    1       -2.574   4.250   2.298  0.00  0.00    -0.540 OA
ENDBRANCH  19  28
ENDBRANCH  18  23
ENDBRANCH   1  18
TORSDOF 4
