REMARK  Name = ZINCAx0000000ajo.0
REMARK                            x       y       z     vdW  Elec       q    Type
REMARK                         _______ _______ _______ _____ _____    ______ ____
ROOT
ATOM      1  N   LIG    1       -1.332   6.501  -3.220  0.00  0.00    -0.530 N 
ATOM      2  C   LIG    1       -0.206   6.754  -3.918  0.00  0.00    +0.600 A 
ATOM      3  C   LIG    1        1.048   6.546  -3.303  0.00  0.00    -0.150 A 
ATOM      4  C   LIG    1        1.091   6.090  -1.991  0.00  0.00    +0.320 A 
ATOM      5  N   LIG    1       -0.102   5.844  -1.329  0.00  0.00    -0.500 N 
ATOM      6  N   LIG    1        2.378   5.974  -1.654  0.00  0.00    -0.500 NA
ATOM      7  C   LIG    1        3.134   6.333  -2.661  0.00  0.00    +0.500 A 
ATOM      8  N   LIG    1        2.361   6.695  -3.703  0.00  0.00    -0.410 N 
ATOM      9  O   LIG    1       -0.269   7.158  -5.065  0.00  0.00    -0.500 OA
ATOM     10  C   LIG    1       -1.276   6.056  -1.952  0.00  0.00    +0.720 A 
ATOM     11  O   LIG    1       -2.312   5.840  -1.354  0.00  0.00    -0.530 OA
ENDROOT
BRANCH   1  12
ATOM     12  C   LIG    1       -2.636   6.715  -3.852  0.00  0.00    +0.370 C 
BRANCH  12  15
ATOM     13  N   LIG    1       -4.273   8.556  -4.088  0.00  0.00    -0.650 N 
ATOM     14  H   LIG    1       -4.792   7.980  -4.670  0.00  0.00    +0.420 HD
ATOM     15  C   LIG    1       -3.092   8.129  -3.597  0.00  0.00    +0.510 C 
ATOM     16  O   LIG    1       -2.395   8.884  -2.951  0.00  0.00    -0.510 OA
BRANCH  13  20
ATOM     17  C   LIG    1       -5.696  12.353  -3.096  0.00  0.00    +0.150 A 
ATOM     18  C   LIG    1       -4.803  11.704  -2.257  0.00  0.00    -0.090 A 
ATOM     19  C   LIG    1       -4.335  10.445  -2.582  0.00  0.00    +0.100 A 
ATOM     20  C   LIG    1       -4.751   9.832  -3.755  0.00  0.00    +0.090 A 
ATOM     21  C   LIG    1       -5.648  10.482  -4.599  0.00  0.00    +0.140 A 
ATOM     22  C   LIG    1       -6.119  11.742  -4.268  0.00  0.00    -0.080 A 
BRANCH  17  24
ATOM     23  C   LIG    1       -5.681  14.160  -1.550  0.00  0.00    +0.250 C 
ATOM     24  O   LIG    1       -6.158  13.590  -2.771  0.00  0.00    -0.320 OA
ENDBRANCH  17  24
BRANCH  21  25
ATOM     25  O   LIG    1       -6.061   9.881  -5.747  0.00  0.00    -0.320 OA
ATOM     26  C   LIG    1       -6.982  10.607  -6.564  0.00  0.00    +0.250 C 
ENDBRANCH  21  25
ENDBRANCH  13  20
ENDBRANCH  12  15
ENDBRANCH   1  12
BRANCH   5  27
ATOM     27  C   LIG    1       -0.084   5.359   0.053  0.00  0.00    +0.380 C 
BRANCH  27  28
ATOM     28  C   LIG    1       -0.070   3.852   0.056  0.00  0.00    -0.120 A 
ATOM     29  C   LIG    1        1.134   3.172   0.046  0.00  0.00    +0.040 A 
ATOM     30  C   LIG    1        1.147   1.790   0.048  0.00  0.00    -0.010 A 
ATOM     31  C   LIG    1       -0.044   1.087   0.061  0.00  0.00    +0.010 A 
ATOM     32  C   LIG    1       -1.247   1.767   0.065  0.00  0.00    -0.010 A 
ATOM     33  C   LIG    1       -1.260   3.149   0.069  0.00  0.00    +0.040 A 
ENDBRANCH  27  28
ENDBRANCH   5  27
BRANCH   8  34
ATOM     34  C   LIG    1        2.825   7.159  -5.013  0.00  0.00    +0.320 C 
BRANCH  34  35
ATOM     35  C   LIG    1        2.859   8.688  -5.030  0.00  0.00    -0.030 C 
ATOM     36  C   LIG    1        1.435   9.231  -4.889  0.00  0.00    +0.020 C 
ATOM     37  C   LIG    1        3.461   9.170  -6.351  0.00  0.00    +0.040 C 
ENDBRANCH  34  35
ENDBRANCH   8  34
TORSDOF 9
