REMARK  Name = ZINCrH00000tj10N.1
REMARK                            x       y       z     vdW  Elec       q    Type
REMARK                         _______ _______ _______ _____ _____    ______ ____
ROOT
ATOM      1  N   LIG    1        1.314   1.962  -0.047  0.00  0.00    -0.590 N 
ATOM      2  C   LIG    1        1.965   0.801  -0.228  0.00  0.00    +0.610 C 
ATOM      3  C   LIG    1        1.048  -0.338  -0.045  0.00  0.00    -0.040 A 
ATOM      4  N   LIG    1        0.938  -1.652  -0.054  0.00  0.00    -0.200 NA
ATOM      5  N   LIG    1       -0.268  -2.004   0.217  0.00  0.00    -0.380 N 
ATOM      6  H   LIG    1       -0.583  -2.921   0.266  0.00  0.00    +0.450 HD
ATOM      7  C   LIG    1       -1.041  -0.898   0.425  0.00  0.00    +0.100 A 
ATOM      8  C   LIG    1       -0.230   0.180   0.265  0.00  0.00    -0.180 A 
ATOM      9  O   LIG    1        3.145   0.704  -0.503  0.00  0.00    -0.510 OA
ATOM     10  C   LIG    1       -0.090   1.677   0.271  0.00  0.00    +0.380 C 
ENDROOT
BRANCH  10  11
ATOM     11  C   LIG    1       -0.433   2.223   1.633  0.00  0.00    -0.090 A 
ATOM     12  C   LIG    1       -1.632   2.882   1.831  0.00  0.00    +0.050 A 
ATOM     13  C   LIG    1       -1.947   3.384   3.081  0.00  0.00    +0.020 A 
ATOM     14  C   LIG    1       -1.064   3.226   4.132  0.00  0.00    +0.040 A 
ATOM     15  C   LIG    1        0.136   2.566   3.934  0.00  0.00    -0.090 A 
ATOM     16 BR   LIG    1        1.345   2.349   5.372  0.00  0.00    -0.050 Br
ATOM     17  C   LIG    1        0.448   2.060   2.685  0.00  0.00    +0.060 A 
ENDBRANCH  10  11
BRANCH   7  18
ATOM     18  C   LIG    1       -2.482  -0.877   0.760  0.00  0.00    -0.060 A 
ATOM     19  C   LIG    1       -2.928  -1.410   1.969  0.00  0.00    +0.050 A 
ATOM     20  C   LIG    1       -4.272  -1.383   2.279  0.00  0.00    +0.000 A 
ATOM     21  C   LIG    1       -5.182  -0.840   1.389  0.00  0.00    +0.040 A 
ATOM     22  C   LIG    1       -4.752  -0.314   0.185  0.00  0.00    +0.000 A 
ATOM     23  C   LIG    1       -3.405  -0.328  -0.137  0.00  0.00    +0.140 A 
BRANCH  23  24
ATOM     24  O   LIG    1       -2.982   0.188  -1.320  0.00  0.00    -0.490 OA
ATOM     25  H   LIG    1       -2.959  -0.453  -2.044  0.00  0.00    +0.390 HD
ENDBRANCH  23  24
ENDBRANCH   7  18
BRANCH   1  26
ATOM     26  C   LIG    1        1.909   3.297  -0.151  0.00  0.00    +0.340 C 
BRANCH  26  27
ATOM     27  C   LIG    1        1.906   3.745  -1.614  0.00  0.00    +0.170 C 
BRANCH  27  29
ATOM     28  C   LIG    1        0.443   4.324  -3.422  0.00  0.00    +0.200 C 
ATOM     29  O   LIG    1        0.558   3.906  -2.060  0.00  0.00    -0.390 OA
ENDBRANCH  27  29
ENDBRANCH  26  27
ENDBRANCH   1  26
TORSDOF 6
