REMARK  Name = ZINCrH00000tj10N.0
REMARK                            x       y       z     vdW  Elec       q    Type
REMARK                         _______ _______ _______ _____ _____    ______ ____
ROOT
ATOM      1  N   LIG    1       -0.079   3.672  -0.574  0.00  0.00    -0.600 N 
ATOM      2  C   LIG    1       -0.687   2.491  -0.361  0.00  0.00    +0.600 C 
ATOM      3  C   LIG    1        0.308   1.421  -0.224  0.00  0.00    -0.060 A 
ATOM      4  C   LIG    1        1.568   1.975  -0.350  0.00  0.00    -0.180 A 
ATOM      5  C   LIG    1        2.467   0.913  -0.207  0.00  0.00    +0.120 A 
ATOM      6  N   LIG    1        1.757  -0.181  -0.009  0.00  0.00    -0.230 NA
ATOM      7  N   LIG    1        0.500   0.085  -0.015  0.00  0.00    -0.330 N 
ATOM      8  H   LIG    1       -0.208  -0.566   0.112  0.00  0.00    +0.450 HD
ATOM      9  O   LIG    1       -1.891   2.332  -0.292  0.00  0.00    -0.500 OA
ATOM     10  C   LIG    1        1.372   3.448  -0.582  0.00  0.00    +0.360 C 
ENDROOT
BRANCH  10  11
ATOM     11  C   LIG    1        1.953   3.846  -1.914  0.00  0.00    -0.090 A 
ATOM     12  C   LIG    1        1.399   3.357  -3.083  0.00  0.00    +0.050 A 
ATOM     13  C   LIG    1        1.931   3.722  -4.306  0.00  0.00    +0.020 A 
ATOM     14  C   LIG    1        3.017   4.574  -4.360  0.00  0.00    +0.060 A 
ATOM     15  C   LIG    1        3.572   5.064  -3.191  0.00  0.00    -0.090 A 
ATOM     16 BR   LIG    1        5.058   6.231  -3.265  0.00  0.00    -0.040 Br
ATOM     17  C   LIG    1        3.036   4.703  -1.968  0.00  0.00    +0.060 A 
ENDBRANCH  10  11
BRANCH   5  18
ATOM     18  C   LIG    1        3.947   1.001  -0.265  0.00  0.00    -0.040 A 
ATOM     19  C   LIG    1        4.571   2.242  -0.353  0.00  0.00    +0.050 A 
ATOM     20  C   LIG    1        5.948   2.319  -0.406  0.00  0.00    +0.000 A 
ATOM     21  C   LIG    1        6.712   1.166  -0.373  0.00  0.00    +0.040 A 
ATOM     22  C   LIG    1        6.103  -0.071  -0.286  0.00  0.00    -0.020 A 
ATOM     23  C   LIG    1        4.722  -0.163  -0.227  0.00  0.00    +0.130 A 
BRANCH  23  24
ATOM     24  O   LIG    1        4.122  -1.378  -0.136  0.00  0.00    -0.480 OA
ATOM     25  H   LIG    1        3.917  -1.780  -0.991  0.00  0.00    +0.390 HD
ENDBRANCH  23  24
ENDBRANCH   5  18
BRANCH   1  26
ATOM     26  C   LIG    1       -0.750   4.960  -0.761  0.00  0.00    +0.350 C 
BRANCH  26  27
ATOM     27  C   LIG    1       -1.174   5.107  -2.224  0.00  0.00    +0.150 C 
BRANCH  27  29
ATOM     28  C   LIG    1       -2.639   4.181  -3.880  0.00  0.00    +0.200 C 
ATOM     29  O   LIG    1       -2.172   4.131  -2.531  0.00  0.00    -0.370 OA
ENDBRANCH  27  29
ENDBRANCH  26  27
ENDBRANCH   1  26
TORSDOF 6
