REMARK  Name = ZINCrH000004r3hE.0
REMARK                            x       y       z     vdW  Elec       q    Type
REMARK                         _______ _______ _______ _____ _____    ______ ____
ROOT
ATOM      1  C   LIG    1       -4.943  -0.741   0.046  0.00  0.00    +0.520 C 
ATOM      2  N   LIG    1       -6.030  -1.538   0.052  0.00  0.00    -0.710 N 
ATOM      3  H   LIG    1       -5.924  -2.502   0.046  0.00  0.00    +0.410 HD
ATOM      4  O   LIG    1       -5.075   0.464   0.054  0.00  0.00    -0.540 OA
ENDROOT
BRANCH   1   5
ATOM      5  C   LIG    1       -3.564  -1.348   0.029  0.00  0.00    +0.080 C 
BRANCH   5   6
ATOM      6  C   LIG    1       -2.516  -0.233   0.025  0.00  0.00    +0.070 C 
BRANCH   6   7
ATOM      7  C   LIG    1       -1.137  -0.839   0.008  0.00  0.00    +0.430 C 
ATOM      8  O   LIG    1       -1.004  -2.047   0.000  0.00  0.00    -0.450 OA
BRANCH   7  13
ATOM      9  C   LIG    1        2.485   3.100  -0.005  0.00  0.00    +0.140 C 
ATOM     10  C   LIG    1        1.683   1.824  -0.004  0.00  0.00    -0.180 A 
ATOM     11  C   LIG    1        2.214   0.594  -0.016  0.00  0.00    -0.020 A 
ATOM     12  C   LIG    1        1.305  -0.434  -0.013  0.00  0.00    +0.120 A 
ATOM     13  C   LIG    1        0.002  -0.004   0.002  0.00  0.00    -0.320 A 
ATOM     14  S   LIG    1       -0.022   1.754   0.012  0.00  0.00    +0.230 S 
ENDBRANCH   7  13
ENDBRANCH   6   7
ENDBRANCH   5   6
ENDBRANCH   1   5
BRANCH   2  15
ATOM     15  C   LIG    1       -7.371  -0.949   0.069  0.00  0.00    +0.390 C 
BRANCH  15  16
ATOM     16  C   LIG    1       -8.355  -1.922  -0.527  0.00  0.00    -0.070 A 
ATOM     17  C   LIG    1       -9.361  -1.465  -1.359  0.00  0.00    +0.010 A 
ATOM     18  C   LIG    1      -10.264  -2.357  -1.907  0.00  0.00    +0.050 A 
ATOM     19  C   LIG    1      -10.162  -3.705  -1.625  0.00  0.00    -0.010 A 
ATOM     20  C   LIG    1       -9.155  -4.164  -0.792  0.00  0.00    +0.100 A 
ATOM     21  F   LIG    1       -9.055  -5.483  -0.515  0.00  0.00    -0.130 F 
ATOM     22  C   LIG    1       -8.248  -3.271  -0.248  0.00  0.00    +0.010 A 
ENDBRANCH  15  16
BRANCH  15  23
ATOM     23  C   LIG    1       -7.767  -0.641   1.490  0.00  0.00    +0.190 A 
ATOM     24  N   LIG    1       -7.608  -1.436   2.513  0.00  0.00    -0.470 NA
ATOM     25  C   LIG    1       -8.074  -0.834   3.617  0.00  0.00    +0.140 A 
ATOM     26  C   LIG    1       -8.540   0.380   3.265  0.00  0.00    +0.130 A 
ATOM     27  N   LIG    1       -8.339   0.505   1.917  0.00  0.00    -0.450 N 
ATOM     28  C   LIG    1       -8.685   1.664   1.091  0.00  0.00    +0.330 C 
ENDBRANCH  15  23
ENDBRANCH   2  15
TORSDOF 7
