REMARK  Name = ZINCpk00000y6yA4.0
REMARK                            x       y       z     vdW  Elec       q    Type
REMARK                         _______ _______ _______ _____ _____    ______ ____
ROOT
ATOM      1  C   LIG    1       -2.471   0.017   0.026  0.00  0.00    +0.300 C 
ENDROOT
BRANCH   1   2
ATOM      2  C   LIG    1       -3.628  -0.985   0.031  0.00  0.00    +0.000 C 
ATOM      3  C   LIG    1       -3.777  -1.665  -1.349  0.00  0.00    +0.070 C 
ATOM      4  C   LIG    1       -5.271  -1.812  -1.530  0.00  0.00    +0.520 C 
ATOM      5  N   LIG    1       -5.923  -1.020  -0.662  0.00  0.00    -0.620 N 
ATOM      6  C   LIG    1       -7.381  -0.924  -0.564  0.00  0.00    +0.300 C 
ATOM      7  O   LIG    1       -5.804  -2.539  -2.342  0.00  0.00    -0.520 OA
ATOM      8  C   LIG    1       -4.985  -0.261   0.174  0.00  0.00    +0.280 C 
BRANCH   8   9
ATOM      9  C   LIG    1       -5.436  -0.277   1.612  0.00  0.00    -0.060 A 
ATOM     10  C   LIG    1       -6.042  -1.400   2.154  0.00  0.00    -0.030 A 
ATOM     11  C   LIG    1       -6.438  -1.379   3.478  0.00  0.00    +0.260 A 
ATOM     12  N   LIG    1       -6.254  -0.305   4.220  0.00  0.00    -0.480 NA
ATOM     13  C   LIG    1       -5.686   0.783   3.737  0.00  0.00    +0.260 A 
ATOM     14  C   LIG    1       -5.259   0.834   2.423  0.00  0.00    -0.020 A 
ENDBRANCH   8   9
ENDBRANCH   1   2
BRANCH   1  15
ATOM     15  N   LIG    1       -1.198  -0.707   0.010  0.00  0.00    -0.700 N 
ATOM     16  H   LIG    1       -1.192  -1.677   0.004  0.00  0.00    +0.420 HD
BRANCH  15  24
ATOM     17  C   LIG    1        0.478   4.484   0.021  0.00  0.00    +0.210 C 
ATOM     18  C   LIG    1        1.472   3.351   0.005  0.00  0.00    +0.210 A 
ATOM     19  N   LIG    1        2.777   3.467  -0.006  0.00  0.00    -0.260 NA
ATOM     20  N   LIG    1        3.326   2.303  -0.018  0.00  0.00    -0.250 NA
ATOM     21  C   LIG    1        2.382   1.375  -0.014  0.00  0.00    +0.110 A 
ATOM     22  C   LIG    1        2.400  -0.033  -0.021  0.00  0.00    +0.190 A 
ATOM     23  C   LIG    1        1.222  -0.709  -0.013  0.00  0.00    -0.020 A 
ATOM     24  C   LIG    1        0.002  -0.004   0.002  0.00  0.00    +0.420 A 
ATOM     25  N   LIG    1       -0.016   1.308   0.009  0.00  0.00    -0.340 NA
ATOM     26  N   LIG    1        1.178   2.033   0.002  0.00  0.00    -0.270 N 
ENDBRANCH  15  24
ENDBRANCH   1  15
TORSDOF 4
