REMARK  Name = ZINCvU00000005TY.0
REMARK                            x       y       z     vdW  Elec       q    Type
REMARK                         _______ _______ _______ _____ _____    ______ ____
ROOT
ATOM      1  N   LIG    1       -0.824   1.850   0.169  0.00  0.00    -0.610 N 
ATOM      2  C   LIG    1        0.404   1.293   0.163  0.00  0.00    +0.570 C 
ATOM      3  O   LIG    1        0.543   0.132  -0.170  0.00  0.00    -0.520 OA
ENDROOT
BRANCH   2   4
ATOM      4  C   LIG    1        1.579   2.094   0.553  0.00  0.00    -0.140 A 
ATOM      5  C   LIG    1        1.743   3.388   0.048  0.00  0.00    +0.070 A 
ATOM      6  C   LIG    1        2.834   4.132   0.416  0.00  0.00    -0.010 A 
ATOM      7  C   LIG    1        3.784   3.597   1.283  0.00  0.00    -0.060 A 
ATOM      8  C   LIG    1        3.626   2.306   1.783  0.00  0.00    +0.040 A 
ATOM      9  C   LIG    1        2.534   1.559   1.423  0.00  0.00    +0.100 A 
BRANCH   7  10
ATOM     10  S   LIG    1        5.189   4.553   1.747  0.00  0.00    -0.080 S 
BRANCH  10  11
ATOM     11  C   LIG    1        4.935   6.112   0.855  0.00  0.00    +0.180 C 
BRANCH  11  12
ATOM     12  C   LIG    1        6.073   7.053   1.153  0.00  0.00    +0.080 A 
ATOM     13  C   LIG    1        6.048   7.918   2.171  0.00  0.00    -0.060 A 
ATOM     14  S   LIG    1        7.564   8.815   2.159  0.00  0.00    +0.140 S 
ATOM     15  C   LIG    1        8.079   7.943   0.781  0.00  0.00    +0.050 A 
ATOM     16  C   LIG    1        9.399   8.137   0.080  0.00  0.00    +0.180 C 
ATOM     17  N   LIG    1        7.173   7.094   0.428  0.00  0.00    -0.470 NA
ENDBRANCH  11  12
ENDBRANCH  10  11
ENDBRANCH   7  10
ENDBRANCH   2   4
BRANCH   1  18
ATOM     18  C   LIG    1       -0.978   3.281   0.443  0.00  0.00    +0.280 C 
BRANCH  18  20
ATOM     19  C   LIG    1       -1.139   5.545  -0.601  0.00  0.00    +0.030 C 
ATOM     20  C   LIG    1       -1.117   4.040  -0.878  0.00  0.00    -0.010 C 
ENDBRANCH  18  20
ENDBRANCH   1  18
BRANCH   1  21
ATOM     21  C   LIG    1       -2.004   1.024  -0.097  0.00  0.00    +0.460 C 
BRANCH  21  22
ATOM     22  C   LIG    1       -2.527   0.463   1.200  0.00  0.00    +0.150 A 
ATOM     23  N   LIG    1       -3.408   1.023   1.981  0.00  0.00    -0.260 NA
ATOM     24  N   LIG    1       -3.624   0.267   2.999  0.00  0.00    -0.260 NA
ATOM     25  C   LIG    1       -2.875  -0.810   2.906  0.00  0.00    +0.250 A 
ATOM     26  O   LIG    1       -2.166  -0.705   1.763  0.00  0.00    -0.200 OA
BRANCH  25  27
ATOM     27  C   LIG    1       -2.820  -1.921   3.868  0.00  0.00    +0.030 A 
ATOM     28  C   LIG    1       -3.541  -2.018   5.020  0.00  0.00    +0.060 A 
ATOM     29  C   LIG    1       -3.176  -3.236   5.624  0.00  0.00    -0.050 A 
ATOM     30  C   LIG    1       -2.261  -3.817   4.822  0.00  0.00    +0.230 A 
ATOM     31  O   LIG    1       -2.052  -3.023   3.760  0.00  0.00    -0.160 OA
ENDBRANCH  25  27
ENDBRANCH  21  22
ENDBRANCH   1  21
TORSDOF 9
