REMARK  Name = ZINCpk000000olUD.0
REMARK                            x       y       z     vdW  Elec       q    Type
REMARK                         _______ _______ _______ _____ _____    ______ ____
ROOT
ATOM      1  C   LIG    1       -1.042  -4.797   0.292  0.00  0.00    +0.440 A 
ATOM      2  N   LIG    1       -2.201  -4.163   0.308  0.00  0.00    -0.610 NA
ATOM      3  C   LIG    1       -2.237  -2.835   0.215  0.00  0.00    +0.630 A 
ATOM      4  N   LIG    1       -1.105  -2.148   0.112  0.00  0.00    -0.640 NA
ATOM      5  C   LIG    1        0.058  -2.789   0.092  0.00  0.00    +0.630 A 
ATOM      6  N   LIG    1        0.086  -4.116   0.185  0.00  0.00    -0.630 NA
ENDROOT
BRANCH   3   7
ATOM      7  N   LIG    1       -3.449  -2.174   0.231  0.00  0.00    -0.800 N 
ATOM      8  H   LIG    1       -3.474  -1.207   0.163  0.00  0.00    +0.420 HD
ATOM      9  H   LIG    1       -4.274  -2.677   0.310  0.00  0.00    +0.420 HD
ENDBRANCH   3   7
BRANCH   5  10
ATOM     10  N   LIG    1        1.237  -2.079  -0.020  0.00  0.00    -0.620 N 
ATOM     11  H   LIG    1        2.089  -2.537   0.059  0.00  0.00    +0.430 HD
BRANCH  10  12
ATOM     12  C   LIG    1        1.204  -0.699  -0.248  0.00  0.00    +0.160 A 
ATOM     13  C   LIG    1        0.139  -0.133  -0.936  0.00  0.00    +0.030 A 
ATOM     14  C   LIG    1        0.108   1.230  -1.159  0.00  0.00    +0.010 A 
ATOM     15  C   LIG    1        1.137   2.030  -0.698  0.00  0.00    -0.010 A 
ATOM     16  C   LIG    1        2.200   1.469  -0.012  0.00  0.00    +0.030 A 
ATOM     17  C   LIG    1        2.236   0.108   0.214  0.00  0.00    -0.110 A 
ATOM     18  C   LIG    1        3.394  -0.502   0.960  0.00  0.00    +0.080 C 
ENDBRANCH  10  12
ENDBRANCH   5  10
BRANCH   1  19
ATOM     19  C   LIG    1       -1.006  -6.300   0.398  0.00  0.00    +0.300 C 
BRANCH  19  20
ATOM     20  N   LIG    1       -0.922  -6.689   1.812  0.00  0.00    -0.520 NA
ATOM     21  C   LIG    1        0.356  -6.267   2.400  0.00  0.00    +0.210 C 
BRANCH  20  22
ATOM     22  C   LIG    1       -1.123  -8.136   1.972  0.00  0.00    +0.220 C 
BRANCH  22  25
ATOM     23  N   LIG    1       -1.471  -9.739   3.823  0.00  0.00    -0.740 N 
ATOM     24  H   LIG    1       -1.513 -10.446   3.161  0.00  0.00    +0.400 HD
ATOM     25  C   LIG    1       -1.276  -8.463   3.435  0.00  0.00    +0.510 C 
ATOM     26  O   LIG    1       -1.223  -7.578   4.263  0.00  0.00    -0.520 OA
BRANCH  23  27
ATOM     27  C   LIG    1       -1.620 -10.057   5.246  0.00  0.00    +0.260 C 
BRANCH  27  29
ATOM     28  C   LIG    1       -1.984 -11.895   6.898  0.00  0.00    +0.030 C 
ATOM     29  C   LIG    1       -1.829 -11.563   5.412  0.00  0.00    +0.000 C 
ENDBRANCH  27  29
ENDBRANCH  23  27
ENDBRANCH  22  25
ENDBRANCH  20  22
ENDBRANCH  19  20
ENDBRANCH   1  19
TORSDOF 9
