REMARK  Name = ZINCpk00000eb5Pk.0
REMARK                            x       y       z     vdW  Elec       q    Type
REMARK                         _______ _______ _______ _____ _____    ______ ____
ROOT
ATOM      1  C   LIG    1       -1.309   3.551   2.544  0.00  0.00    +0.160 C 
ATOM      2  C   LIG    1       -0.769   3.054   1.200  0.00  0.00    +0.170 C 
ATOM      3  N   LIG    1       -0.584   1.597   1.261  0.00  0.00    -0.520 NA
ATOM      4  C   LIG    1       -1.853   0.923   1.575  0.00  0.00    +0.140 C 
ATOM      5  C   LIG    1       -2.381   1.442   2.915  0.00  0.00    +0.230 C 
ATOM      6  O   LIG    1       -2.525   2.863   2.847  0.00  0.00    -0.360 OA
ENDROOT
BRANCH   1   7
ATOM      7  C   LIG    1       -1.579   5.055   2.462  0.00  0.00    +0.340 C 
BRANCH   7  11
ATOM      8  C   LIG    1       -1.774   7.721   6.701  0.00  0.00    +0.110 C 
ATOM      9  C   LIG    1       -2.077   6.708   5.627  0.00  0.00    -0.240 A 
ATOM     10  C   LIG    1       -1.408   6.562   4.460  0.00  0.00    +0.210 A 
ATOM     11  N   LIG    1       -1.986   5.551   3.778  0.00  0.00    -0.370 N 
ATOM     12  N   LIG    1       -3.049   5.063   4.550  0.00  0.00    -0.260 NA
ATOM     13  C   LIG    1       -3.099   5.754   5.660  0.00  0.00    +0.220 A 
ENDBRANCH   7  11
ENDBRANCH   1   7
BRANCH   3  14
ATOM     14  C   LIG    1       -0.013   1.086   0.008  0.00  0.00    +0.160 C 
BRANCH  14  15
ATOM     15  C   LIG    1        0.388  -0.379   0.190  0.00  0.00    +0.230 C 
BRANCH  15  16
ATOM     16  O   LIG    1        1.357  -0.482   1.236  0.00  0.00    -0.540 OA
ATOM     17  H   LIG    1        2.168   0.018   1.070  0.00  0.00    +0.370 HD
ENDBRANCH  15  16
BRANCH  15  18
ATOM     18  C   LIG    1        0.987  -0.910  -1.114  0.00  0.00    +0.140 C 
BRANCH  18  19
ATOM     19  O   LIG    1        1.254  -2.308  -0.981  0.00  0.00    -0.370 OA
BRANCH  19  20
ATOM     20  C   LIG    1        1.818  -2.906  -2.150  0.00  0.00    +0.220 C 
BRANCH  20  21
ATOM     21  C   LIG    1        2.057  -4.372  -1.899  0.00  0.00    -0.090 A 
ATOM     22  C   LIG    1        3.268  -4.797  -1.386  0.00  0.00    +0.020 A 
ATOM     23  C   LIG    1        3.486  -6.142  -1.152  0.00  0.00    +0.000 A 
ATOM     24  C   LIG    1        2.495  -7.063  -1.439  0.00  0.00    +0.010 A 
ATOM     25  C   LIG    1        1.286  -6.638  -1.957  0.00  0.00    +0.000 A 
ATOM     26  C   LIG    1        1.067  -5.293  -2.188  0.00  0.00    +0.020 A 
ENDBRANCH  20  21
ENDBRANCH  19  20
ENDBRANCH  18  19
ENDBRANCH  15  18
ENDBRANCH  14  15
ENDBRANCH   3  14
TORSDOF 9
