REMARK  Name = ZINCpe000000UOH2.0
REMARK                            x       y       z     vdW  Elec       q    Type
REMARK                         _______ _______ _______ _____ _____    ______ ____
ROOT
ATOM      1  C   LIG    1        2.922   0.807  -1.462  0.00  0.00    +0.250 C 
ENDROOT
BRANCH   1   2
ATOM      2  C   LIG    1        4.237   0.071  -1.481  0.00  0.00    +0.520 C 
ATOM      3  N   LIG    1        4.313  -1.184  -0.995  0.00  0.00    -0.620 N 
ATOM      4  C   LIG    1        5.543  -1.977  -0.860  0.00  0.00    +0.250 C 
ATOM      5  C   LIG    1        5.142  -3.352  -0.285  0.00  0.00    +0.030 C 
ATOM      6  C   LIG    1        3.642  -3.461  -0.665  0.00  0.00    +0.040 C 
ATOM      7  C   LIG    1        3.176  -1.991  -0.516  0.00  0.00    +0.240 C 
ATOM      8  O   LIG    1        5.226   0.607  -1.933  0.00  0.00    -0.530 OA
ENDBRANCH   1   2
BRANCH   1  10
ATOM      9  C   LIG    1        2.537   1.443  -3.782  0.00  0.00    +0.530 C 
ATOM     10  N   LIG    1        2.904   1.803  -2.537  0.00  0.00    -0.700 N 
ATOM     11  H   LIG    1        3.157   2.721  -2.352  0.00  0.00    +0.410 HD
ATOM     12  O   LIG    1        2.221   0.295  -4.013  0.00  0.00    -0.530 OA
BRANCH   9  16
ATOM     13  C   LIG    1        2.817   2.496  -8.677  0.00  0.00    +0.290 C 
ATOM     14  N   LIG    1        3.035   2.531  -7.229  0.00  0.00    -0.620 N 
ATOM     15  C   LIG    1        2.218   1.804  -6.250  0.00  0.00    +0.300 C 
ATOM     16  C   LIG    1        2.519   2.467  -4.888  0.00  0.00    +0.000 C 
ATOM     17  C   LIG    1        3.931   3.050  -5.126  0.00  0.00    +0.070 C 
ATOM     18  C   LIG    1        4.008   3.235  -6.625  0.00  0.00    +0.520 C 
ATOM     19  O   LIG    1        4.829   3.919  -7.199  0.00  0.00    -0.530 OA
ENDBRANCH   9  16
ENDBRANCH   1  10
BRANCH   1  20
ATOM     20  C   LIG    1        2.751   1.510  -0.113  0.00  0.00    +0.100 C 
BRANCH  20  21
ATOM     21  C   LIG    1        1.382   2.136  -0.044  0.00  0.00    -0.090 A 
ATOM     22  C   LIG    1        0.316   1.414   0.459  0.00  0.00    +0.010 A 
ATOM     23  C   LIG    1       -0.941   1.987   0.517  0.00  0.00    +0.000 A 
ATOM     24  C   LIG    1       -1.129   3.286   0.083  0.00  0.00    +0.000 A 
ATOM     25  C   LIG    1       -0.063   4.008  -0.419  0.00  0.00    +0.000 A 
ATOM     26  C   LIG    1        1.192   3.433  -0.482  0.00  0.00    +0.010 A 
ENDBRANCH  20  21
ENDBRANCH   1  20
TORSDOF 5
