REMARK  Name = ZINCvU0000000DAo.0
REMARK                            x       y       z     vdW  Elec       q    Type
REMARK                         _______ _______ _______ _____ _____    ______ ____
ROOT
ATOM      1  N   LIG    1        5.828   6.516  -0.485  0.00  0.00    -0.670 N 
ATOM      2  H   LIG    1        5.991   7.057  -1.274  0.00  0.00    +0.410 HD
ATOM      3  C   LIG    1        6.756   6.449   0.490  0.00  0.00    +0.570 C 
ATOM      4  O   LIG    1        6.595   5.698   1.432  0.00  0.00    -0.510 OA
ENDROOT
BRANCH   3   5
ATOM      5  C   LIG    1        7.968   7.289   0.414  0.00  0.00    -0.150 A 
ATOM      6  C   LIG    1        8.151   8.154  -0.673  0.00  0.00    +0.070 A 
ATOM      7  C   LIG    1        9.268   8.935  -0.755  0.00  0.00    +0.020 A 
ATOM      8  C   LIG    1       10.235   8.879   0.242  0.00  0.00    +0.080 A 
ATOM      9  N   LIG    1       11.438   9.523   0.439  0.00  0.00    -0.590 N 
ATOM     10  H   LIG    1       11.839  10.184  -0.146  0.00  0.00    +0.430 HD
ATOM     11  C   LIG    1       11.962   9.055   1.615  0.00  0.00    +0.330 A 
ATOM     12  N   LIG    1       11.152   8.169   2.141  0.00  0.00    -0.460 NA
ATOM     13  C   LIG    1       10.068   8.015   1.341  0.00  0.00    +0.040 A 
ATOM     14  C   LIG    1        8.922   7.222   1.425  0.00  0.00    +0.170 A 
BRANCH  11  15
ATOM     15  C   LIG    1       13.248   9.486   2.203  0.00  0.00    -0.030 A 
ATOM     16  C   LIG    1       14.034  10.437   1.550  0.00  0.00    +0.040 A 
ATOM     17  C   LIG    1       15.230  10.839   2.106  0.00  0.00    +0.030 A 
ATOM     18  C   LIG    1       15.658  10.292   3.304  0.00  0.00    -0.020 A 
ATOM     19  C   LIG    1       14.885   9.345   3.955  0.00  0.00    +0.030 A 
ATOM     20 CL   LIG    1       17.169  10.797   3.995  0.00  0.00    -0.060 Cl
ATOM     21  C   LIG    1       13.684   8.939   3.411  0.00  0.00    +0.100 A 
ENDBRANCH  11  15
ENDBRANCH   3   5
BRANCH   1  25
ATOM     22  C   LIG    1        2.259   4.400  -0.112  0.00  0.00    -0.090 A 
ATOM     23  C   LIG    1        2.872   4.922   1.012  0.00  0.00    +0.030 A 
ATOM     24  C   LIG    1        4.058   5.620   0.892  0.00  0.00    +0.010 A 
ATOM     25  C   LIG    1        4.630   5.805  -0.360  0.00  0.00    +0.140 A 
ATOM     26  C   LIG    1        4.008   5.285  -1.487  0.00  0.00    -0.010 A 
ATOM     27  C   LIG    1        2.825   4.584  -1.360  0.00  0.00    +0.040 A 
BRANCH  22  29
ATOM     28  C   LIG    1       -0.098   4.537   0.647  0.00  0.00    +0.040 C 
ATOM     29  C   LIG    1        0.968   3.634   0.023  0.00  0.00    +0.060 C 
BRANCH  29  30
ATOM     30  C   LIG    1        1.190   2.414   0.918  0.00  0.00    +0.060 C 
BRANCH  30  31
ATOM     31  C   LIG    1       -0.066   1.582   0.955  0.00  0.00    +0.520 C 
ATOM     32  O   LIG    1       -1.041   1.928   0.322  0.00  0.00    -0.540 OA
ATOM     33  N   LIG    1       -0.104   0.450   1.685  0.00  0.00    -0.860 N 
ATOM     34  H   LIG    1       -0.912  -0.085   1.708  0.00  0.00    +0.400 HD
ATOM     35  H   LIG    1        0.677   0.171   2.188  0.00  0.00    +0.400 HD
ENDBRANCH  30  31
ENDBRANCH  29  30
ENDBRANCH  22  29
ENDBRANCH   1  25
TORSDOF 6
