REMARK  Name = ZINCpe00000gN63w.0
REMARK                            x       y       z     vdW  Elec       q    Type
REMARK                         _______ _______ _______ _____ _____    ______ ____
ROOT
ATOM      1  C   LIG    1       -0.657   0.800  -2.269  0.00  0.00    +0.470 C 
ATOM      2  O   LIG    1       -0.040  -0.238  -2.249  0.00  0.00    -0.490 OA
ENDROOT
BRANCH   1   3
ATOM      3  O   LIG    1       -0.715   1.567  -1.168  0.00  0.00    -0.320 OA
BRANCH   3   4
ATOM      4  C   LIG    1       -0.013   1.086   0.008  0.00  0.00    +0.240 C 
BRANCH   4   5
ATOM      5  C   LIG    1       -0.718   1.572   1.248  0.00  0.00    -0.100 A 
ATOM      6  C   LIG    1       -1.313   2.819   1.260  0.00  0.00    +0.050 A 
ATOM      7  C   LIG    1       -1.964   3.264   2.396  0.00  0.00    +0.010 A 
ATOM      8  C   LIG    1       -2.012   2.464   3.523  0.00  0.00    +0.020 A 
ATOM      9  C   LIG    1       -1.412   1.218   3.512  0.00  0.00    +0.010 A 
ATOM     10  C   LIG    1       -0.765   0.772   2.375  0.00  0.00    +0.030 A 
ENDBRANCH   4   5
BRANCH   4  14
ATOM     11  N   LIG    1        2.274   1.208   0.943  0.00  0.00    -0.840 N 
ATOM     12  H   LIG    1        3.184   1.543   0.936  0.00  0.00    +0.410 HD
ATOM     13  H   LIG    1        1.992   0.584   1.631  0.00  0.00    +0.400 HD
ATOM     14  C   LIG    1        1.401   1.607  -0.003  0.00  0.00    +0.510 C 
ATOM     15  O   LIG    1        1.753   2.387  -0.862  0.00  0.00    -0.520 OA
ENDBRANCH   4  14
ENDBRANCH   3   4
ENDBRANCH   1   3
BRANCH   1  16
ATOM     16  C   LIG    1       -1.362   1.235  -3.528  0.00  0.00    +0.380 C 
BRANCH  16  17
ATOM     17  N   LIG    1       -1.148   0.235  -4.577  0.00  0.00    -1.120 NA
ATOM     18  H   LIG    1       -0.454  -0.435  -4.474  0.00  0.00    +0.430 HD
BRANCH  17  19
ATOM     19  S   LIG    1       -2.092   0.248  -5.938  0.00  0.00    +2.610 S 
ATOM     20  O   LIG    1       -3.423   0.284  -5.441  0.00  0.00    -0.940 OA
ATOM     21  O   LIG    1       -1.624  -0.857  -6.699  0.00  0.00    -0.940 OA
BRANCH  19  22
ATOM     22  C   LIG    1       -1.677   1.810  -6.761  0.00  0.00    -0.290 C 
BRANCH  22  23
ATOM     23  C   LIG    1       -2.482   1.939  -8.028  0.00  0.00    -0.100 A 
ATOM     24  C   LIG    1       -1.978   1.452  -9.220  0.00  0.00    +0.030 A 
ATOM     25  C   LIG    1       -2.719   1.566 -10.382  0.00  0.00    +0.010 A 
ATOM     26  C   LIG    1       -3.958   2.177 -10.354  0.00  0.00    +0.020 A 
ATOM     27  C   LIG    1       -4.460   2.669  -9.164  0.00  0.00    +0.010 A 
ATOM     28  C   LIG    1       -3.722   2.550  -8.001  0.00  0.00    +0.030 A 
ENDBRANCH  22  23
ENDBRANCH  19  22
ENDBRANCH  17  19
ENDBRANCH  16  17
ENDBRANCH   1  16
TORSDOF 9
