REMARK  Name = ZINCpk00000y6wuK.0
REMARK                            x       y       z     vdW  Elec       q    Type
REMARK                         _______ _______ _______ _____ _____    ______ ____
ROOT
ATOM      1  C   LIG    1       -1.196  -0.918   0.009  0.00  0.00    +0.280 C 
ATOM      2  C   LIG    1       -1.986  -0.776  -1.308  0.00  0.00    +0.060 C 
ATOM      3  C   LIG    1       -1.946  -2.178  -1.953  0.00  0.00    +0.170 C 
ATOM      4  N   LIG    1       -1.719  -3.107  -0.816  0.00  0.00    -0.500 NA
ATOM      5  C   LIG    1       -0.745  -2.394   0.050  0.00  0.00    +0.200 C 
ENDROOT
BRANCH   1   6
ATOM      6  C   LIG    1        0.002  -0.004   0.002  0.00  0.00    +0.160 A 
ATOM      7  N   LIG    1       -0.016   1.307   0.009  0.00  0.00    -0.420 NA
ATOM      8  C   LIG    1        1.274   1.687  -0.001  0.00  0.00    +0.160 A 
ATOM      9  N   LIG    1        1.998   0.607  -0.014  0.00  0.00    -0.380 NA
ATOM     10  C   LIG    1        1.787   3.104   0.002  0.00  0.00    +0.210 C 
ATOM     11  O   LIG    1        1.286  -0.375  -0.012  0.00  0.00    +0.080 OA
ENDBRANCH   1   6
BRANCH   1  14
ATOM     12  C   LIG    1       -3.475   0.926   2.471  0.00  0.00    +0.090 C 
ATOM     13  C   LIG    1       -2.588   0.616   1.293  0.00  0.00    +0.500 C 
ATOM     14  N   LIG    1       -2.058  -0.616   1.155  0.00  0.00    -0.720 N 
ATOM     15  H   LIG    1       -2.248  -1.302   1.813  0.00  0.00    +0.410 HD
ATOM     16  O   LIG    1       -2.350   1.474   0.470  0.00  0.00    -0.490 OA
ENDBRANCH   1  14
BRANCH   4  17
ATOM     17  C   LIG    1       -1.170  -4.387  -1.283  0.00  0.00    +0.260 C 
BRANCH  17  18
ATOM     18  C   LIG    1       -2.229  -5.139  -2.047  0.00  0.00    -0.230 A 
ATOM     19  C   LIG    1       -2.460  -5.057  -3.378  0.00  0.00    +0.230 A 
ATOM     20  N   LIG    1       -3.487  -5.882  -3.669  0.00  0.00    -0.370 N 
ATOM     21  N   LIG    1       -3.902  -6.491  -2.477  0.00  0.00    -0.290 NA
ATOM     22  C   LIG    1       -3.143  -6.049  -1.507  0.00  0.00    +0.250 A 
BRANCH  20  23
ATOM     23  C   LIG    1       -4.067  -6.101  -4.996  0.00  0.00    +0.320 C 
BRANCH  23  24
ATOM     24  C   LIG    1       -4.048  -7.596  -5.320  0.00  0.00    -0.020 C 
ATOM     25  C   LIG    1       -2.599  -8.076  -5.427  0.00  0.00    +0.010 C 
ATOM     26  C   LIG    1       -4.765  -7.839  -6.650  0.00  0.00    +0.030 C 
ENDBRANCH  23  24
ENDBRANCH  20  23
ENDBRANCH  17  18
ENDBRANCH   4  17
TORSDOF 6
