REMARK  Name = ZINCpk00000eaBFG.0
REMARK                            x       y       z     vdW  Elec       q    Type
REMARK                         _______ _______ _______ _____ _____    ______ ____
ROOT
ATOM      1  C   LIG    1        6.567   0.048   1.191  0.00  0.00    +0.100 C 
ATOM      2  C   LIG    1        6.037   0.769  -0.050  0.00  0.00    +0.300 C 
ENDROOT
BRANCH   2   3
ATOM      3  N   LIG    1        4.572   0.749  -0.037  0.00  0.00    -0.570 N 
ATOM      4  C   LIG    1        3.796   1.848  -0.024  0.00  0.00    +0.580 C 
ATOM      5  C   LIG    1        2.380   1.424  -0.013  0.00  0.00    -0.140 A 
ATOM      6  C   LIG    1        1.169   2.097   0.002  0.00  0.00    +0.100 A 
ATOM      7  C   LIG    1       -0.017   1.378   0.010  0.00  0.00    +0.040 A 
ATOM      8  C   LIG    1        0.002  -0.004   0.002  0.00  0.00    +0.050 A 
ATOM      9  C   LIG    1        1.207  -0.691  -0.013  0.00  0.00    +0.100 A 
ATOM     10  C   LIG    1        2.399   0.015  -0.020  0.00  0.00    -0.130 A 
ATOM     11  O   LIG    1        4.192   2.996  -0.022  0.00  0.00    -0.460 OA
ATOM     12  C   LIG    1        3.826  -0.370  -0.035  0.00  0.00    +0.580 C 
ATOM     13  O   LIG    1        4.253  -1.507  -0.045  0.00  0.00    -0.450 OA
ENDBRANCH   2   3
BRANCH   2  14
ATOM     14  C   LIG    1        6.538   0.072  -1.288  0.00  0.00    +0.460 C 
ATOM     15  O   LIG    1        5.752  -0.393  -2.079  0.00  0.00    -0.490 OA
BRANCH  14  16
ATOM     16  O   LIG    1        7.857  -0.031  -1.513  0.00  0.00    -0.330 OA
BRANCH  16  17
ATOM     17  C   LIG    1        8.268  -0.715  -2.726  0.00  0.00    +0.250 C 
BRANCH  17  18
ATOM     18  C   LIG    1        9.772  -0.734  -2.808  0.00  0.00    +0.420 C 
ATOM     19  O   LIG    1       10.434  -0.221  -1.929  0.00  0.00    -0.450 OA
BRANCH  18  20
ATOM     20  C   LIG    1       10.413  -1.349  -3.908  0.00  0.00    -0.100 A 
ATOM     21  C   LIG    1        9.790  -1.975  -4.974  0.00  0.00    +0.040 A 
ATOM     22  C   LIG    1       10.799  -2.433  -5.822  0.00  0.00    -0.060 A 
ATOM     23  C   LIG    1       11.992  -2.097  -5.271  0.00  0.00    +0.210 A 
ATOM     24  N   LIG    1       11.773  -1.441  -4.113  0.00  0.00    -0.410 N 
ATOM     25  C   LIG    1       12.809  -0.913  -3.222  0.00  0.00    +0.330 C 
ENDBRANCH  18  20
ENDBRANCH  17  18
ENDBRANCH  16  17
ENDBRANCH  14  16
ENDBRANCH   2  14
TORSDOF 6
