REMARK  Name = ZINCqH0000000q94.0
REMARK                            x       y       z     vdW  Elec       q    Type
REMARK                         _______ _______ _______ _____ _____    ______ ____
ROOT
ATOM      1  C   LIG    1        1.776   9.540   0.700  0.00  0.00    +0.130 A 
ATOM      2  C   LIG    1        0.782   9.832  -0.158  0.00  0.00    -0.110 A 
ATOM      3  S   LIG    1       -0.072   8.339  -0.540  0.00  0.00    +0.210 S 
ATOM      4  C   LIG    1        1.010   7.447   0.525  0.00  0.00    +0.270 A 
ATOM      5  N   LIG    1        1.872   8.264   1.045  0.00  0.00    -0.500 NA
ENDROOT
BRANCH   1   9
ATOM      6  C   LIG    1        4.425  12.506   2.204  0.00  0.00    -0.080 A 
ATOM      7  C   LIG    1        4.572  11.188   2.598  0.00  0.00    +0.020 A 
ATOM      8  C   LIG    1        3.715  10.221   2.113  0.00  0.00    +0.050 A 
ATOM      9  C   LIG    1        2.700  10.575   1.225  0.00  0.00    -0.020 A 
ATOM     10  C   LIG    1        2.561  11.903   0.827  0.00  0.00    +0.030 A 
ATOM     11  C   LIG    1        3.421  12.863   1.323  0.00  0.00    +0.020 A 
BRANCH   6  12
ATOM     12  C   LIG    1        5.365  13.557   2.737  0.00  0.00    +0.070 C 
BRANCH  12  13
ATOM     13  C   LIG    1        6.573  13.680   1.807  0.00  0.00    +0.260 C 
BRANCH  13  16
ATOM     14  C   LIG    1        9.566  16.035   2.197  0.00  0.00    +0.090 C 
ATOM     15  C   LIG    1        8.627  14.984   1.664  0.00  0.00    +0.510 C 
ATOM     16  N   LIG    1        7.486  14.702   2.325  0.00  0.00    -0.730 N 
ATOM     17  H   LIG    1        7.270  15.176   3.143  0.00  0.00    +0.400 HD
ATOM     18  O   LIG    1        8.897  14.391   0.641  0.00  0.00    -0.540 OA
ENDBRANCH  13  16
ENDBRANCH  12  13
ENDBRANCH   6  12
ENDBRANCH   1   9
BRANCH   4  19
ATOM     19  N   LIG    1        0.953   6.080   0.765  0.00  0.00    -0.620 N 
ATOM     20  H   LIG    1        1.593   5.665   1.365  0.00  0.00    +0.430 HD
ATOM     21  C   LIG    1        0.008   5.329   0.165  0.00  0.00    +0.520 C 
ATOM     22  O   LIG    1       -0.791   5.846  -0.586  0.00  0.00    -0.500 OA
BRANCH  21  23
ATOM     23  C   LIG    1       -0.054   3.846   0.425  0.00  0.00    +0.010 C 
ATOM     24  C   LIG    1        1.262   3.192  -0.004  0.00  0.00    +0.080 C 
ATOM     25  C   LIG    1        1.122   1.698   0.001  0.00  0.00    -0.050 C 
ATOM     26  C   LIG    1       -0.013   1.076   0.008  0.00  0.00    -0.040 C 
ATOM     27  C   LIG    1       -1.347   1.761   0.018  0.00  0.00    +0.070 C 
ATOM     28  C   LIG    1       -1.193   3.225  -0.393  0.00  0.00    +0.050 C 
ENDBRANCH  21  23
ENDBRANCH   4  19
TORSDOF 6
