REMARK  Name = ZINCAx0000000ixo.0
REMARK                            x       y       z     vdW  Elec       q    Type
REMARK                         _______ _______ _______ _____ _____    ______ ____
ROOT
ATOM      1  C   LIG    1       -0.715   1.578   1.259  0.00  0.00    +0.280 C 
ENDROOT
BRANCH   1   2
ATOM      2  N   LIG    1       -0.629   3.039   1.326  0.00  0.00    -0.560 N 
ATOM      3  C   LIG    1        0.522   3.732   1.395  0.00  0.00    +0.580 C 
ATOM      4  C   LIG    1        0.202   5.174   1.446  0.00  0.00    -0.140 A 
ATOM      5  C   LIG    1        0.960   6.331   1.520  0.00  0.00    +0.100 A 
ATOM      6  C   LIG    1        0.328   7.565   1.557  0.00  0.00    +0.050 A 
ATOM      7  C   LIG    1       -1.050   7.648   1.521  0.00  0.00    +0.040 A 
ATOM      8  C   LIG    1       -1.822   6.498   1.447  0.00  0.00    +0.100 A 
ATOM      9  C   LIG    1       -1.205   5.258   1.409  0.00  0.00    -0.140 A 
ATOM     10  O   LIG    1        1.638   3.252   1.411  0.00  0.00    -0.450 OA
ATOM     11  C   LIG    1       -1.692   3.865   1.333  0.00  0.00    +0.580 C 
ATOM     12  O   LIG    1       -2.856   3.522   1.284  0.00  0.00    -0.460 OA
ENDBRANCH   1   2
BRANCH   1  15
ATOM     13  N   LIG    1       -0.031  -0.358   2.638  0.00  0.00    -0.660 N 
ATOM     14  H   LIG    1       -0.487  -0.933   2.004  0.00  0.00    +0.420 HD
ATOM     15  C   LIG    1       -0.070   0.980   2.483  0.00  0.00    +0.510 C 
ATOM     16  O   LIG    1        0.413   1.703   3.328  0.00  0.00    -0.490 OA
BRANCH  13  22
ATOM     17  C   LIG    1        0.323  -2.181   4.191  0.00  0.00    +0.160 A 
ATOM     18  C   LIG    1        1.018  -2.730   5.256  0.00  0.00    -0.060 A 
ATOM     19  C   LIG    1        2.051  -2.025   5.845  0.00  0.00    +0.160 A 
ATOM     20  C   LIG    1        2.394  -0.771   5.373  0.00  0.00    -0.690 A 
ATOM     21  C   LIG    1        1.709  -0.219   4.307  0.00  0.00    +0.170 A 
ATOM     22  C   LIG    1        0.668  -0.918   3.715  0.00  0.00    +0.100 A 
BRANCH  20  23
ATOM     23  S   LIG    1        3.712   0.121   6.128  0.00  0.00    +2.690 S 
ATOM     24  O   LIG    1        3.840  -0.391   7.448  0.00  0.00    -0.950 OA
ATOM     25  O   LIG    1        3.479   1.495   5.847  0.00  0.00    -0.940 OA
BRANCH  23  26
ATOM     26  N   LIG    1        5.104  -0.290   5.330  0.00  0.00    -1.010 NA
ATOM     27  C   LIG    1        5.902  -1.429   5.790  0.00  0.00    +0.300 C 
ATOM     28  C   LIG    1        5.536   0.485   4.165  0.00  0.00    +0.290 C 
ENDBRANCH  23  26
ENDBRANCH  20  23
BRANCH  17  30
ATOM     29  C   LIG    1       -0.992  -4.163   4.151  0.00  0.00    +0.250 C 
ATOM     30  O   LIG    1       -0.693  -2.874   3.611  0.00  0.00    -0.310 OA
ENDBRANCH  17  30
ENDBRANCH  13  22
ENDBRANCH   1  15
BRANCH   1  31
ATOM     31  C   LIG    1        0.010   1.082   0.006  0.00  0.00    +0.110 C 
BRANCH  31  32
ATOM     32  C   LIG    1       -0.708   1.581  -1.221  0.00  0.00    -0.090 A 
ATOM     33  C   LIG    1       -1.713   0.821  -1.790  0.00  0.00    +0.010 A 
ATOM     34  C   LIG    1       -2.375   1.281  -2.913  0.00  0.00    +0.020 A 
ATOM     35  C   LIG    1       -2.026   2.495  -3.473  0.00  0.00    +0.000 A 
ATOM     36  C   LIG    1       -1.017   3.252  -2.907  0.00  0.00    +0.010 A 
ATOM     37  C   LIG    1       -0.358   2.795  -1.781  0.00  0.00    +0.000 A 
ENDBRANCH  31  32
ENDBRANCH   1  31
TORSDOF 8
