REMARK  Name = ZINCvU0000000G7h.0
REMARK                            x       y       z     vdW  Elec       q    Type
REMARK                         _______ _______ _______ _____ _____    ______ ____
ROOT
ATOM      1  N   LIG    1       -1.585  -1.122   1.513  0.00  0.00    -0.640 N 
ATOM      2  H   LIG    1       -1.261  -0.946   0.616  0.00  0.00    +0.420 HD
ATOM      3  C   LIG    1       -2.460  -0.275   2.092  0.00  0.00    +0.710 C 
ATOM      4  N   LIG    1       -2.884   0.816   1.423  0.00  0.00    -0.610 N 
ATOM      5  O   LIG    1       -2.866  -0.496   3.216  0.00  0.00    -0.540 OA
ENDROOT
BRANCH   1   9
ATOM      6  C   LIG    1        0.892  -5.227   2.258  0.00  0.00    +0.190 A 
ATOM      7  C   LIG    1        0.012  -4.153   2.529  0.00  0.00    +0.100 A 
ATOM      8  N   LIG    1       -0.318  -3.112   1.738  0.00  0.00    -0.490 NA
ATOM      9  C   LIG    1       -1.149  -2.244   2.200  0.00  0.00    +0.320 A 
ATOM     10  S   LIG    1       -1.646  -2.680   3.829  0.00  0.00    +0.230 S 
ATOM     11  C   LIG    1       -0.629  -4.117   3.769  0.00  0.00    -0.190 A 
ATOM     12  C   LIG    1       -0.401  -5.120   4.712  0.00  0.00    -0.030 A 
ATOM     13  C   LIG    1        0.460  -6.157   4.427  0.00  0.00    +0.100 A 
ATOM     14 CL   LIG    1       -1.204  -5.060   6.249  0.00  0.00    -0.060 Cl
ATOM     15  C   LIG    1        1.104  -6.208   3.200  0.00  0.00    -0.050 A 
BRANCH   6  17
ATOM     16  C   LIG    1        2.406  -6.401   0.849  0.00  0.00    +0.250 C 
ATOM     17  O   LIG    1        1.531  -5.291   1.059  0.00  0.00    -0.300 OA
ENDBRANCH   6  17
ENDBRANCH   1   9
BRANCH   4  18
ATOM     18  C   LIG    1       -3.753   1.790   2.088  0.00  0.00    +0.380 C 
BRANCH  18  19
ATOM     19  C   LIG    1       -5.193   1.478   1.771  0.00  0.00    -0.100 A 
ATOM     20  C   LIG    1       -5.511   0.344   1.048  0.00  0.00    +0.010 A 
ATOM     21  C   LIG    1       -6.832   0.058   0.757  0.00  0.00    +0.000 A 
ATOM     22  C   LIG    1       -7.834   0.905   1.190  0.00  0.00    +0.000 A 
ATOM     23  C   LIG    1       -7.516   2.039   1.914  0.00  0.00    +0.000 A 
ATOM     24  C   LIG    1       -6.196   2.323   2.209  0.00  0.00    -0.080 A 
ATOM     25  C   LIG    1       -5.849   3.556   3.003  0.00  0.00    +0.090 C 
ENDBRANCH  18  19
ENDBRANCH   4  18
BRANCH   4  26
ATOM     26  C   LIG    1       -2.477   1.027   0.032  0.00  0.00    +0.350 C 
BRANCH  26  27
ATOM     27  C   LIG    1       -1.193   1.816  -0.001  0.00  0.00    -0.170 A 
ATOM     28  C   LIG    1        0.031   1.166   0.013  0.00  0.00    +0.070 A 
ATOM     29  C   LIG    1        1.186   1.933  -0.024  0.00  0.00    -0.030 A 
ATOM     30  C   LIG    1        1.079   3.310  -0.067  0.00  0.00    +0.270 A 
ATOM     31  N   LIG    1       -0.103   3.895  -0.073  0.00  0.00    -0.480 NA
ATOM     32  C   LIG    1       -1.222   3.198  -0.039  0.00  0.00    +0.280 A 
ENDBRANCH  26  27
ENDBRANCH   4  26
TORSDOF 6
