REMARK  Name = ZINCpk00000y6x4r.0
REMARK                            x       y       z     vdW  Elec       q    Type
REMARK                         _______ _______ _______ _____ _____    ______ ____
ROOT
ATOM      1  C   LIG    1       -6.436   0.608   0.137  0.00  0.00    +0.240 C 
ATOM      2  C   LIG    1       -6.704  -0.819   0.619  0.00  0.00    +0.010 C 
ATOM      3  C   LIG    1       -6.372  -1.807  -0.501  0.00  0.00    +0.000 C 
ATOM      4  C   LIG    1       -7.247  -1.508  -1.720  0.00  0.00    +0.010 C 
ATOM      5  C   LIG    1       -6.979  -0.081  -2.203  0.00  0.00    +0.020 C 
ATOM      6  C   LIG    1       -7.310   0.907  -1.082  0.00  0.00    +0.020 C 
ENDROOT
BRANCH   1   8
ATOM      7  C   LIG    1       -4.106   1.027   0.715  0.00  0.00    +0.580 C 
ATOM      8  N   LIG    1       -5.024   0.742  -0.230  0.00  0.00    -0.720 N 
ATOM      9  H   LIG    1       -4.750   0.625  -1.153  0.00  0.00    +0.400 HD
ATOM     10  O   LIG    1       -4.450   1.173   1.873  0.00  0.00    -0.540 OA
BRANCH   7  13
ATOM     11  C   LIG    1       -3.312   3.430  -0.326  0.00  0.00    +0.130 C 
ATOM     12  C   LIG    1       -2.316   2.312  -0.156  0.00  0.00    +0.140 C 
ATOM     13  C   LIG    1       -2.739   1.156   0.359  0.00  0.00    -0.300 C 
ATOM     14  C   LIG    1       -1.820  -0.014   0.577  0.00  0.00    +0.100 C 
ATOM     15  C   LIG    1       -0.546   0.172  -0.254  0.00  0.00    +0.010 C 
ATOM     16  C   LIG    1       -0.035   1.603  -0.036  0.00  0.00    +0.240 C 
ATOM     17  O   LIG    1       -1.043   2.527  -0.529  0.00  0.00    -0.310 OA
ENDBRANCH   7  13
ENDBRANCH   1   8
BRANCH   6  18
ATOM     18  C   LIG    1       -7.042   2.334  -1.565  0.00  0.00    +0.160 C 
BRANCH  18  19
ATOM     19  C   LIG    1       -7.989   2.671  -2.687  0.00  0.00    +0.280 A 
ATOM     20  N   LIG    1       -8.888   1.880  -3.177  0.00  0.00    -0.270 NA
ATOM     21  N   LIG    1       -9.560   2.563  -4.200  0.00  0.00    -0.460 N 
ATOM     22  C   LIG    1       -9.008   3.791  -4.293  0.00  0.00    +0.640 A 
ATOM     23  O   LIG    1       -9.328   4.668  -5.075  0.00  0.00    -0.550 OA
ATOM     24  C   LIG    1      -10.656   2.040  -5.020  0.00  0.00    +0.380 C 
ATOM     25  N   LIG    1       -8.035   3.867  -3.362  0.00  0.00    -0.560 N 
ATOM     26  C   LIG    1       -7.176   5.026  -3.113  0.00  0.00    +0.350 C 
ENDBRANCH  18  19
ENDBRANCH   6  18
TORSDOF 4
