REMARK  Name = ZINCrH000004kRN3.0
REMARK                            x       y       z     vdW  Elec       q    Type
REMARK                         _______ _______ _______ _____ _____    ______ ____
ROOT
ATOM      1  N   LIG    1       -4.410   6.873   0.069  0.00  0.00    -0.680 N 
ATOM      2  H   LIG    1       -4.588   6.677  -0.864  0.00  0.00    +0.410 HD
ATOM      3  C   LIG    1       -3.524   6.126   0.758  0.00  0.00    +0.710 C 
ATOM      4  N   LIG    1       -2.818   5.167   0.128  0.00  0.00    -0.730 N 
ATOM      5  H   LIG    1       -2.947   5.014  -0.822  0.00  0.00    +0.400 HD
ATOM      6  O   LIG    1       -3.362   6.318   1.948  0.00  0.00    -0.570 OA
ENDROOT
BRANCH   1   9
ATOM      7  C   LIG    1       -6.107   8.878   2.659  0.00  0.00    -0.140 A 
ATOM      8  C   LIG    1       -5.450   7.818   2.030  0.00  0.00    +0.150 A 
ATOM      9  C   LIG    1       -5.074   7.932   0.702  0.00  0.00    +0.150 A 
ATOM     10  C   LIG    1       -5.361   9.093  -0.007  0.00  0.00    +0.100 A 
ATOM     11  C   LIG    1       -6.016  10.142   0.611  0.00  0.00    -0.130 A 
ATOM     12 BR   LIG    1       -6.400  11.718  -0.362  0.00  0.00    -0.010 Br
ATOM     13  C   LIG    1       -6.391  10.043   1.939  0.00  0.00    +0.180 A 
ATOM     14  F   LIG    1       -7.031  11.070   2.540  0.00  0.00    -0.100 F 
BRANCH   7  15
ATOM     15  C   LIG    1       -6.505   8.767   4.075  0.00  0.00    +0.510 C 
ATOM     16  O   LIG    1       -7.080   9.688   4.619  0.00  0.00    -0.490 OA
BRANCH  15  18
ATOM     17  C   LIG    1       -6.650   7.603   6.155  0.00  0.00    +0.290 C 
ATOM     18  O   LIG    1       -6.230   7.643   4.766  0.00  0.00    -0.350 OA
ENDBRANCH  15  18
ENDBRANCH   7  15
ENDBRANCH   1   9
BRANCH   4  19
ATOM     19  C   LIG    1       -1.855   4.355   0.876  0.00  0.00    +0.250 C 
ATOM     20  C   LIG    1       -2.547   3.104   1.464  0.00  0.00    +0.030 C 
ATOM     21  C   LIG    1       -1.480   1.997   1.277  0.00  0.00    +0.190 C 
ATOM     22  N   LIG    1       -0.869   2.332  -0.035  0.00  0.00    -0.480 N 
ATOM     23  C   LIG    1       -0.769   3.807  -0.069  0.00  0.00    +0.190 C 
BRANCH  22  24
ATOM     24  C   LIG    1        0.390   1.742  -0.167  0.00  0.00    +0.080 A 
ATOM     25  C   LIG    1        1.421   2.103   0.691  0.00  0.00    -0.030 A 
ATOM     26  C   LIG    1        2.666   1.521   0.554  0.00  0.00    +0.010 A 
ATOM     27  C   LIG    1        2.887   0.581  -0.435  0.00  0.00    +0.000 A 
ATOM     28  C   LIG    1        1.863   0.219  -1.291  0.00  0.00    +0.020 A 
ATOM     29  C   LIG    1        0.615   0.796  -1.160  0.00  0.00    +0.040 A 
ENDBRANCH  22  24
ENDBRANCH   4  19
TORSDOF 5
