REMARK  Name = ZINCrD00000F5Lk4.0
REMARK                            x       y       z     vdW  Elec       q    Type
REMARK                         _______ _______ _______ _____ _____    ______ ____
ROOT
ATOM      1  C   LIG    1        1.253  -2.226  -0.162  0.00  0.00    +0.300 C 
ATOM      2  C   LIG    1        1.877  -2.692   1.153  0.00  0.00    +0.030 C 
ATOM      3  C   LIG    1        3.394  -2.734   1.047  0.00  0.00    +0.000 C 
ATOM      4  C   LIG    1        4.027  -1.365   0.906  0.00  0.00    +0.220 C 
ATOM      5  O   LIG    1        3.649  -0.753  -0.332  0.00  0.00    -0.330 OA
ATOM      6  C   LIG    1        2.482  -0.052  -0.310  0.00  0.00    +0.100 A 
ATOM      7  C   LIG    1        2.507   1.334  -0.383  0.00  0.00    +0.010 A 
ATOM      8  C   LIG    1        1.322   2.049  -0.331  0.00  0.00    -0.080 A 
ATOM      9  C   LIG    1        0.116   1.384  -0.208  0.00  0.00    -0.110 A 
ATOM     10  C   LIG    1       -1.019   2.385  -0.170  0.00  0.00    +0.070 C 
ATOM     11  C   LIG    1       -0.352   3.739   0.156  0.00  0.00    +0.030 C 
ATOM     12  C   LIG    1        0.093  -0.001  -0.145  0.00  0.00    +0.060 A 
ATOM     13  C   LIG    1        1.079   3.542  -0.388  0.00  0.00    +0.080 C 
ATOM     14  C   LIG    1        1.274  -0.710  -0.201  0.00  0.00    -0.120 A 
ENDROOT
BRANCH   1  16
ATOM     15  C   LIG    1       -0.986  -2.462   0.768  0.00  0.00    +0.530 C 
ATOM     16  N   LIG    1       -0.130  -2.701  -0.245  0.00  0.00    -0.580 N 
ATOM     17  O   LIG    1       -0.638  -1.780   1.708  0.00  0.00    -0.510 OA
BRANCH  16  18
ATOM     18  C   LIG    1       -0.583  -3.436  -1.429  0.00  0.00    +0.200 C 
ATOM     19  C   LIG    1        0.488  -3.968  -2.383  0.00  0.00    +0.030 C 
ATOM     20  C   LIG    1       -0.377  -2.773  -2.793  0.00  0.00    +0.020 C 
ENDBRANCH  16  18
BRANCH  15  21
ATOM     21  C   LIG    1       -2.377  -3.042   0.732  0.00  0.00    +0.080 C 
BRANCH  21  22
ATOM     22  C   LIG    1       -3.095  -2.727   2.046  0.00  0.00    -0.300 C 
BRANCH  22  23
ATOM     23  S   LIG    1       -4.769  -3.425   2.002  0.00  0.00    +2.480 S 
ATOM     24  O   LIG    1       -4.718  -4.845   2.026  0.00  0.00    -0.930 OA
ATOM     25  O   LIG    1       -5.572  -2.736   1.054  0.00  0.00    -0.940 OA
BRANCH  23  27
ATOM     26  C   LIG    1       -6.489  -2.173   3.615  0.00  0.00    +0.230 C 
ATOM     27  C   LIG    1       -5.467  -2.990   3.561  0.00  0.00    -0.570 C 
ENDBRANCH  23  27
ENDBRANCH  22  23
ENDBRANCH  21  22
ENDBRANCH  15  21
ENDBRANCH   1  16
TORSDOF 6
