REMARK  Name = ZINCpk00000y6yPL.0
REMARK                            x       y       z     vdW  Elec       q    Type
REMARK                         _______ _______ _______ _____ _____    ______ ____
ROOT
ATOM      1  C   LIG    1        1.387  -0.765   4.295  0.00  0.00    +0.570 C 
ATOM      2  N   LIG    1        0.309  -0.085   3.858  0.00  0.00    -0.600 N 
ATOM      3  C   LIG    1       -0.856   0.081   4.730  0.00  0.00    +0.300 C 
ATOM      4  O   LIG    1        2.333  -0.946   3.553  0.00  0.00    -0.510 OA
ENDROOT
BRANCH   1  11
ATOM      5  C   LIG    1        2.588  -1.884   6.167  0.00  0.00    +0.150 A 
ATOM      6  C   LIG    1        2.599  -2.370   7.472  0.00  0.00    -0.030 A 
ATOM      7  C   LIG    1        1.446  -2.256   8.228  0.00  0.00    -0.070 A 
ATOM      8  C   LIG    1        0.322  -1.662   7.672  0.00  0.00    +0.220 A 
ATOM      9  N   LIG    1        0.336  -1.206   6.440  0.00  0.00    -0.410 NA
ATOM     10  C   LIG    1        1.411  -2.773   9.643  0.00  0.00    +0.110 C 
ATOM     11  C   LIG    1        1.419  -1.292   5.675  0.00  0.00    +0.030 A 
BRANCH   5  13
ATOM     12  C   LIG    1        4.845  -2.595   5.965  0.00  0.00    +0.250 C 
ATOM     13  O   LIG    1        3.694  -1.978   5.387  0.00  0.00    -0.270 OA
ENDBRANCH   5  13
ENDBRANCH   1  11
BRANCH   2  14
ATOM     14  C   LIG    1        0.302   0.490   2.510  0.00  0.00    +0.320 C 
BRANCH  14  15
ATOM     15  C   LIG    1       -0.262  -0.532   1.522  0.00  0.00    +0.160 C 
ATOM     16  O   LIG    1       -1.680  -0.723   1.745  0.00  0.00    -0.360 OA
ATOM     17  C   LIG    1       -2.188  -1.278   0.512  0.00  0.00    +0.210 C 
ATOM     18  C   LIG    1       -1.457  -0.497  -0.603  0.00  0.00    +0.010 C 
ATOM     19  C   LIG    1       -0.163   0.004   0.077  0.00  0.00    +0.100 C 
BRANCH  19  20
ATOM     20  C   LIG    1       -0.115   1.511   0.075  0.00  0.00    +0.190 A 
ATOM     21  N   LIG    1        0.958   2.251   0.007  0.00  0.00    -0.280 NA
ATOM     22  N   LIG    1        0.628   3.494   0.029  0.00  0.00    -0.290 NA
ATOM     23  C   LIG    1       -0.670   3.603   0.112  0.00  0.00    +0.180 A 
ATOM     24  C   LIG    1       -1.456   4.887   0.163  0.00  0.00    +0.200 C 
ATOM     25  N   LIG    1       -1.179   2.348   0.139  0.00  0.00    -0.580 N 
ATOM     26  H   LIG    1       -2.115   2.099   0.194  0.00  0.00    +0.430 HD
ENDBRANCH  19  20
ENDBRANCH  14  15
ENDBRANCH   2  14
TORSDOF 5
