REMARK  Name = ZINCpe00000gMd87.0
REMARK                            x       y       z     vdW  Elec       q    Type
REMARK                         _______ _______ _______ _____ _____    ______ ____
ROOT
ATOM      1  C   LIG    1        2.494   5.624   0.009  0.00  0.00    +0.380 C 
ENDROOT
BRANCH   1   2
ATOM      2  N   LIG    1        2.429   4.160   0.002  0.00  0.00    -0.550 N 
ATOM      3  C   LIG    1        3.568   3.451  -0.013  0.00  0.00    +0.710 A 
ATOM      4  N   LIG    1        3.590   2.107  -0.020  0.00  0.00    -0.650 N 
ATOM      5  H   LIG    1        4.440   1.640  -0.030  0.00  0.00    +0.440 HD
ATOM      6  C   LIG    1        2.407   1.381  -0.013  0.00  0.00    +0.200 A 
ATOM      7  C   LIG    1        2.406  -0.005  -0.021  0.00  0.00    -0.030 A 
ATOM      8  C   LIG    1        1.207  -0.690  -0.013  0.00  0.00    +0.090 A 
ATOM      9  C   LIG    1        0.002  -0.004   0.002  0.00  0.00    -0.010 A 
ATOM     10  C   LIG    1       -0.017   1.375   0.010  0.00  0.00    +0.140 A 
ATOM     11  C   LIG    1        1.186   2.078   0.002  0.00  0.00    -0.200 A 
ATOM     12  O   LIG    1        4.626   4.050  -0.019  0.00  0.00    -0.540 OA
ATOM     13  C   LIG    1        1.223   3.551   0.009  0.00  0.00    +0.570 A 
ATOM     14  O   LIG    1        0.196   4.201   0.022  0.00  0.00    -0.490 OA
ENDBRANCH   1   2
BRANCH   1  18
ATOM     15  C   LIG    1        2.520   7.069  -4.013  0.00  0.00    +0.140 A 
ATOM     16  C   LIG    1        1.316   6.887  -3.348  0.00  0.00    -0.010 A 
ATOM     17  C   LIG    1        1.311   6.420  -2.048  0.00  0.00    +0.090 A 
ATOM     18  C   LIG    1        2.503   6.133  -1.409  0.00  0.00    -0.160 A 
ATOM     19  C   LIG    1        3.704   6.319  -2.068  0.00  0.00    +0.080 A 
ATOM     20  C   LIG    1        3.716   6.780  -3.370  0.00  0.00    -0.090 A 
BRANCH  15  21
ATOM     21  O   LIG    1        2.529   7.529  -5.291  0.00  0.00    -0.290 OA
BRANCH  21  22
ATOM     22  C   LIG    1        3.805   7.692  -5.914  0.00  0.00    +0.230 C 
BRANCH  22  26
ATOM     23  C   LIG    1        4.507   8.937  -9.465  0.00  0.00    +0.290 C 
ATOM     24  N   LIG    1        4.689   8.437  -8.100  0.00  0.00    -0.730 N 
ATOM     25  H   LIG    1        5.583   8.271  -7.760  0.00  0.00    +0.400 HD
ATOM     26  C   LIG    1        3.617   8.207  -7.318  0.00  0.00    +0.510 C 
ATOM     27  O   LIG    1        2.500   8.414  -7.743  0.00  0.00    -0.510 OA
ENDBRANCH  22  26
ENDBRANCH  21  22
ENDBRANCH  15  21
ENDBRANCH   1  18
TORSDOF 5
