REMARK  Name = ZINCqH00000505RI.0
REMARK                            x       y       z     vdW  Elec       q    Type
REMARK                         _______ _______ _______ _____ _____    ______ ____
ROOT
ATOM      1  C   LIG    1       -2.296  -0.375  -0.118  0.00  0.00    +0.170 C 
ATOM      2  C   LIG    1       -2.220  -0.761  -1.596  0.00  0.00    +0.060 C 
ENDROOT
BRANCH   1   3
ATOM      3  C   LIG    1       -3.506  -1.019   0.508  0.00  0.00    +0.520 C 
ATOM      4  N   LIG    1       -3.580  -2.361   0.606  0.00  0.00    -0.660 N 
ATOM      5  H   LIG    1       -2.822  -2.909   0.350  0.00  0.00    +0.420 HD
ATOM      6  O   LIG    1       -4.414  -0.329   0.923  0.00  0.00    -0.490 OA
BRANCH   4   7
ATOM      7  C   LIG    1       -4.753  -2.966   1.079  0.00  0.00    +0.110 A 
ATOM      8  C   LIG    1       -5.969  -2.308   0.963  0.00  0.00    +0.090 A 
ATOM      9  C   LIG    1       -7.125  -2.907   1.424  0.00  0.00    +0.010 A 
ATOM     10  C   LIG    1       -7.071  -4.159   2.012  0.00  0.00    +0.120 A 
ATOM     11  C   LIG    1       -5.858  -4.817   2.135  0.00  0.00    -0.010 A 
ATOM     12  F   LIG    1       -8.202  -4.741   2.466  0.00  0.00    -0.130 F 
ATOM     13  C   LIG    1       -4.699  -4.223   1.669  0.00  0.00    +0.100 A 
ATOM     14  F   LIG    1       -3.516  -4.864   1.789  0.00  0.00    -0.130 F 
ENDBRANCH   4   7
ENDBRANCH   1   3
BRANCH   1  15
ATOM     15  O   LIG    1       -2.399   1.046  -0.002  0.00  0.00    -0.270 OA
BRANCH  15  23
ATOM     16  C   LIG    1        2.372   5.465  -0.068  0.00  0.00    +0.130 C 
ATOM     17  C   LIG    1        2.369   3.958  -0.082  0.00  0.00    +0.040 A 
ATOM     18  C   LIG    1        3.534   3.259  -0.114  0.00  0.00    -0.110 A 
ATOM     19  C   LIG    1        3.505   1.849  -0.127  0.00  0.00    +0.510 A 
ATOM     20  O   LIG    1        2.349   1.167  -0.109  0.00  0.00    -0.270 OA
ATOM     21  C   LIG    1        1.157   1.801  -0.078  0.00  0.00    +0.190 A 
ATOM     22  C   LIG    1       -0.028   1.081  -0.060  0.00  0.00    -0.090 A 
ATOM     23  C   LIG    1       -1.240   1.752  -0.024  0.00  0.00    +0.190 A 
ATOM     24  C   LIG    1       -1.278   3.144  -0.015  0.00  0.00    -0.010 A 
ATOM     25  C   LIG    1       -0.121   3.868  -0.032  0.00  0.00    +0.140 A 
ATOM     26  O   LIG    1        4.556   1.234  -0.155  0.00  0.00    -0.460 OA
ATOM     27  C   LIG    1        1.112   3.207  -0.063  0.00  0.00    -0.190 A 
ENDBRANCH  15  23
ENDBRANCH   1  15
TORSDOF 4
