REMARK  Name = ZINCrg000000rcAx.0
REMARK                            x       y       z     vdW  Elec       q    Type
REMARK                         _______ _______ _______ _____ _____    ______ ____
ROOT
ATOM      1  C   LIG    1        1.079   6.016   2.723  0.00  0.00    +0.520 C 
ATOM      2  N   LIG    1        0.884   7.299   3.086  0.00  0.00    -0.610 N 
ATOM      3  C   LIG    1        0.636   8.334   2.072  0.00  0.00    +0.270 C 
ATOM      4  C   LIG    1       -0.681   9.047   2.420  0.00  0.00    +0.300 C 
ATOM      5  N   LIG    1       -0.643   9.438   3.836  0.00  0.00    -0.990 NA
ATOM      6  C   LIG    1       -0.389   8.405   4.849  0.00  0.00    +0.300 C 
ATOM      7  C   LIG    1        0.923   7.690   4.502  0.00  0.00    +0.280 C 
ATOM      8  O   LIG    1        1.193   5.156   3.572  0.00  0.00    -0.530 OA
ENDROOT
BRANCH   5   9
ATOM      9  S   LIG    1       -0.880  11.015   4.282  0.00  0.00    +2.730 S 
ATOM     10  O   LIG    1       -1.329  10.988   5.630  0.00  0.00    -0.920 OA
ATOM     11  O   LIG    1       -1.618  11.623   3.230  0.00  0.00    -0.920 OA
BRANCH   9  12
ATOM     12  C   LIG    1        0.699  11.796   4.298  0.00  0.00    -0.310 A 
ATOM     13  N   LIG    1        1.500  11.868   5.328  0.00  0.00    -0.210 NA
ATOM     14  N   LIG    1        2.643  12.567   4.906  0.00  0.00    -0.460 N 
ATOM     15  H   LIG    1        3.423  12.782   5.440  0.00  0.00    +0.450 HD
ATOM     16  C   LIG    1        2.437  12.884   3.616  0.00  0.00    +0.500 A 
ATOM     17  N   LIG    1        1.268  12.415   3.264  0.00  0.00    -0.470 NA
ENDBRANCH   9  12
ENDBRANCH   5   9
BRANCH   1  19
ATOM     18  C   LIG    1        1.967   4.362   1.103  0.00  0.00    +0.060 C 
ATOM     19  C   LIG    1        1.154   5.648   1.264  0.00  0.00    -0.020 C 
BRANCH  19  20
ATOM     20  C   LIG    1       -0.259   5.430   0.719  0.00  0.00    +0.040 C 
BRANCH  20  21
ATOM     21  C   LIG    1       -0.191   5.181  -0.789  0.00  0.00    +0.080 C 
BRANCH  21  22
ATOM     22  C   LIG    1       -1.582   4.966  -1.326  0.00  0.00    -0.050 A 
ATOM     23  C   LIG    1       -2.116   3.692  -1.372  0.00  0.00    +0.000 A 
ATOM     24  C   LIG    1       -3.393   3.493  -1.865  0.00  0.00    +0.040 A 
ATOM     25  C   LIG    1       -4.137   4.569  -2.311  0.00  0.00    -0.030 A 
ATOM     26  C   LIG    1       -3.603   5.846  -2.265  0.00  0.00    +0.100 A 
ATOM     27  F   LIG    1       -4.330   6.898  -2.700  0.00  0.00    -0.140 F 
ATOM     28  C   LIG    1       -2.325   6.043  -1.772  0.00  0.00    -0.010 A 
ENDBRANCH  21  22
ENDBRANCH  20  21
ENDBRANCH  19  20
ENDBRANCH   1  19
TORSDOF 6
