REMARK  Name = ZINCAx0000000bDE.0
REMARK                            x       y       z     vdW  Elec       q    Type
REMARK                         _______ _______ _______ _____ _____    ______ ____
ROOT
ATOM      1  C   LIG    1       -4.375   0.135   3.171  0.00  0.00    -0.270 C 
ATOM      2  C   LIG    1       -5.039   1.262   3.507  0.00  0.00    +0.260 C 
ATOM      3  N   LIG    1       -6.130   1.676   2.797  0.00  0.00    -0.640 N 
ATOM      4  H   LIG    1       -6.572   2.493   3.074  0.00  0.00    +0.440 HD
ATOM      5  C   LIG    1       -6.625   1.014   1.744  0.00  0.00    +0.710 C 
ATOM      6  N   LIG    1       -6.074  -0.130   1.292  0.00  0.00    -0.710 N 
ATOM      7  H   LIG    1       -6.450  -0.594   0.527  0.00  0.00    +0.440 HD
ATOM      8  O   LIG    1       -7.605   1.458   1.178  0.00  0.00    -0.550 OA
ATOM      9  C   LIG    1       -4.888  -0.659   1.987  0.00  0.00    +0.340 C 
ENDROOT
BRANCH   9  10
ATOM     10  C   LIG    1       -5.213  -2.050   2.467  0.00  0.00    -0.110 A 
ATOM     11  C   LIG    1       -6.400  -2.293   3.132  0.00  0.00    +0.010 A 
ATOM     12  C   LIG    1       -6.700  -3.570   3.567  0.00  0.00    +0.000 A 
ATOM     13  C   LIG    1       -5.808  -4.603   3.347  0.00  0.00    +0.010 A 
ATOM     14  C   LIG    1       -4.618  -4.359   2.687  0.00  0.00    +0.000 A 
ATOM     15  C   LIG    1       -4.321  -3.083   2.247  0.00  0.00    +0.050 A 
ENDBRANCH   9  10
BRANCH   1  16
ATOM     16  C   LIG    1       -3.241  -0.292   3.902  0.00  0.00    +0.530 C 
ATOM     17  O   LIG    1       -2.822   0.383   4.823  0.00  0.00    -0.520 OA
BRANCH  16  18
ATOM     18  O   LIG    1       -2.626  -1.448   3.577  0.00  0.00    -0.340 OA
BRANCH  18  20
ATOM     19  C   LIG    1       -0.927  -3.146   3.846  0.00  0.00    +0.070 C 
ATOM     20  C   LIG    1       -1.487  -1.817   4.358  0.00  0.00    +0.200 C 
ENDBRANCH  18  20
ENDBRANCH  16  18
ENDBRANCH   1  16
BRANCH   2  21
ATOM     21  C   LIG    1       -4.566   2.079   4.682  0.00  0.00    +0.350 C 
BRANCH  21  22
ATOM     22  O   LIG    1       -5.416   3.246   4.834  0.00  0.00    -0.370 OA
BRANCH  22  23
ATOM     23  C   LIG    1       -5.126   4.083   5.843  0.00  0.00    +0.480 C 
ATOM     24  O   LIG    1       -4.194   3.849   6.574  0.00  0.00    -0.480 OA
BRANCH  23  25
ATOM     25  C   LIG    1       -5.965   5.316   6.063  0.00  0.00    +0.040 C 
ATOM     26  C   LIG    1       -5.840   6.290   4.869  0.00  0.00    +0.090 C 
ATOM     27  C   LIG    1       -4.729   7.233   5.275  0.00  0.00    +0.520 C 
ATOM     28  N   LIG    1       -4.502   7.139   6.596  0.00  0.00    -0.610 N 
ATOM     29  O   LIG    1       -4.130   7.968   4.518  0.00  0.00    -0.520 OA
ATOM     30  C   LIG    1       -5.404   6.165   7.224  0.00  0.00    +0.300 C 
BRANCH  28  31
ATOM     31  C   LIG    1       -3.486   7.909   7.317  0.00  0.00    +0.350 C 
BRANCH  31  32
ATOM     32  C   LIG    1       -4.085   9.204   7.800  0.00  0.00    -0.120 A 
ATOM     33  C   LIG    1       -4.032  10.331   7.001  0.00  0.00    +0.040 A 
ATOM     34  C   LIG    1       -4.586  11.518   7.442  0.00  0.00    +0.000 A 
ATOM     35  C   LIG    1       -5.184  11.581   8.687  0.00  0.00    -0.080 A 
ATOM     36  C   LIG    1       -5.233  10.456   9.488  0.00  0.00    +0.000 A 
ATOM     37  C   LIG    1       -5.783  12.877   9.170  0.00  0.00    +0.090 C 
ATOM     38  C   LIG    1       -4.684   9.267   9.045  0.00  0.00    +0.020 A 
ENDBRANCH  31  32
ENDBRANCH  28  31
ENDBRANCH  23  25
ENDBRANCH  22  23
ENDBRANCH  21  22
ENDBRANCH   2  21
TORSDOF 10
