REMARK  Name = ZINCAx0000000bDE.1
REMARK                            x       y       z     vdW  Elec       q    Type
REMARK                         _______ _______ _______ _____ _____    ______ ____
ROOT
ATOM      1  C   LIG    1        4.670   2.815   5.810  0.00  0.00    +0.050 C 
ATOM      2  C   LIG    1        4.328   2.672   4.349  0.00  0.00    +0.260 C 
ATOM      3  N   LIG    1        4.767   3.523   3.483  0.00  0.00    -0.480 NA
ATOM      4  C   LIG    1        5.561   4.546   3.837  0.00  0.00    +0.660 C 
ATOM      5  N   LIG    1        6.177   4.572   5.032  0.00  0.00    -0.740 N 
ATOM      6  H   LIG    1        6.692   5.351   5.295  0.00  0.00    +0.420 HD
ATOM      7  O   LIG    1        5.728   5.467   3.061  0.00  0.00    -0.500 OA
ATOM      8  C   LIG    1        6.071   3.426   5.940  0.00  0.00    +0.330 C 
ENDROOT
BRANCH   8   9
ATOM      9  C   LIG    1        7.110   2.397   5.577  0.00  0.00    -0.130 A 
ATOM     10  C   LIG    1        7.379   2.126   4.249  0.00  0.00    +0.000 A 
ATOM     11  C   LIG    1        8.336   1.185   3.916  0.00  0.00    -0.010 A 
ATOM     12  C   LIG    1        9.017   0.510   4.911  0.00  0.00    +0.020 A 
ATOM     13  C   LIG    1        8.745   0.778   6.239  0.00  0.00    -0.010 A 
ATOM     14  C   LIG    1        7.791   1.722   6.573  0.00  0.00    +0.090 A 
ENDBRANCH   8   9
BRANCH   1  15
ATOM     15  C   LIG    1        4.649   1.459   6.466  0.00  0.00    +0.470 C 
ATOM     16  O   LIG    1        5.648   1.028   6.992  0.00  0.00    -0.470 OA
BRANCH  15  17
ATOM     17  O   LIG    1        3.522   0.731   6.468  0.00  0.00    -0.360 OA
BRANCH  17  19
ATOM     18  C   LIG    1        2.208  -1.244   7.019  0.00  0.00    +0.060 C 
ATOM     19  C   LIG    1        3.576  -0.566   7.119  0.00  0.00    +0.220 C 
ENDBRANCH  17  19
ENDBRANCH  15  17
ENDBRANCH   1  15
BRANCH   2  20
ATOM     20  C   LIG    1        3.460   1.527   3.895  0.00  0.00    +0.330 C 
BRANCH  20  21
ATOM     21  O   LIG    1        3.268   1.605   2.458  0.00  0.00    -0.330 OA
BRANCH  21  22
ATOM     22  C   LIG    1        2.512   0.652   1.891  0.00  0.00    +0.470 C 
ATOM     23  O   LIG    1        2.027  -0.220   2.573  0.00  0.00    -0.490 OA
BRANCH  22  24
ATOM     24  C   LIG    1        2.269   0.668   0.404  0.00  0.00    +0.040 C 
ATOM     25  C   LIG    1        1.397   1.879  -0.001  0.00  0.00    +0.100 C 
ATOM     26  C   LIG    1       -0.016   1.340   0.009  0.00  0.00    +0.520 C 
ATOM     27  N   LIG    1        0.002  -0.004   0.002  0.00  0.00    -0.610 N 
ATOM     28  O   LIG    1       -1.020   2.021   0.018  0.00  0.00    -0.520 OA
ATOM     29  C   LIG    1        1.376  -0.518  -0.024  0.00  0.00    +0.300 C 
BRANCH  27  30
ATOM     30  C   LIG    1       -1.196  -0.847   0.017  0.00  0.00    +0.350 C 
BRANCH  30  31
ATOM     31  C   LIG    1       -1.630  -1.128  -1.398  0.00  0.00    -0.120 A 
ATOM     32  C   LIG    1       -2.522  -0.281  -2.029  0.00  0.00    +0.040 A 
ATOM     33  C   LIG    1       -2.917  -0.536  -3.329  0.00  0.00    +0.000 A 
ATOM     34  C   LIG    1       -2.428  -1.644  -3.995  0.00  0.00    -0.080 A 
ATOM     35  C   LIG    1       -1.539  -2.494  -3.363  0.00  0.00    +0.000 A 
ATOM     36  C   LIG    1       -2.863  -1.926  -5.410  0.00  0.00    +0.090 C 
ATOM     37  C   LIG    1       -1.141  -2.236  -2.064  0.00  0.00    +0.020 A 
ENDBRANCH  30  31
ENDBRANCH  27  30
ENDBRANCH  22  24
ENDBRANCH  21  22
ENDBRANCH  20  21
ENDBRANCH   2  20
TORSDOF 10
