REMARK  Name = ZINCpe00000yjyGG.0
REMARK                            x       y       z     vdW  Elec       q    Type
REMARK                         _______ _______ _______ _____ _____    ______ ____
ROOT
ATOM      1  N   LIG    1       -0.059   4.819   4.649  0.00  0.00    -0.740 N 
ATOM      2  H   LIG    1       -0.037   4.043   5.230  0.00  0.00    +0.400 HD
ATOM      3  C   LIG    1       -0.250   4.662   3.324  0.00  0.00    +0.720 C 
ATOM      4  N   LIG    1       -0.411   3.428   2.807  0.00  0.00    -0.630 N 
ATOM      5  C   LIG    1       -0.400   2.168   3.573  0.00  0.00    +0.220 C 
ATOM      6  C   LIG    1       -0.001   1.081   2.543  0.00  0.00    +0.180 C 
ATOM      7  C   LIG    1       -0.729   1.579   1.267  0.00  0.00    +0.040 C 
ATOM      8  C   LIG    1       -0.626   3.114   1.387  0.00  0.00    +0.290 C 
ATOM      9  O   LIG    1       -0.278   5.635   2.594  0.00  0.00    -0.580 OA
ENDROOT
BRANCH   6  10
ATOM     10  O   LIG    1       -0.484  -0.203   2.941  0.00  0.00    -0.550 OA
ATOM     11  H   LIG    1       -0.059  -0.555   3.734  0.00  0.00    +0.380 HD
ENDBRANCH   6  10
BRANCH   1  12
ATOM     12  C   LIG    1        0.116   6.160   5.210  0.00  0.00    +0.340 C 
BRANCH  12  16
ATOM     13  C   LIG    1        0.669   5.876   9.436  0.00  0.00    -0.080 A 
ATOM     14  C   LIG    1        1.762   5.835   8.592  0.00  0.00    +0.030 A 
ATOM     15  C   LIG    1        1.583   5.927   7.224  0.00  0.00    +0.030 A 
ATOM     16  C   LIG    1        0.311   6.060   6.701  0.00  0.00    -0.100 A 
ATOM     17  C   LIG    1       -0.782   6.106   7.545  0.00  0.00    +0.030 A 
ATOM     18  C   LIG    1       -0.604   6.009   8.913  0.00  0.00    +0.030 A 
BRANCH  13  19
ATOM     19  C   LIG    1        0.864   5.776  10.927  0.00  0.00    +0.220 C 
BRANCH  19  20
ATOM     20  O   LIG    1        1.034   7.085  11.474  0.00  0.00    -0.380 OA
BRANCH  20  22
ATOM     21  C   LIG    1        1.398   8.548  13.363  0.00  0.00    +0.040 C 
ATOM     22  C   LIG    1        1.227   7.103  12.890  0.00  0.00    +0.160 C 
ENDBRANCH  20  22
ENDBRANCH  19  20
ENDBRANCH  13  19
ENDBRANCH  12  16
ENDBRANCH   1  12
BRANCH   7  23
ATOM     23  C   LIG    1       -0.013   1.086   0.008  0.00  0.00    +0.080 C 
BRANCH  23  24
ATOM     24  C   LIG    1       -0.742   1.585  -1.213  0.00  0.00    +0.510 C 
ATOM     25  N   LIG    1       -0.288   1.272  -2.443  0.00  0.00    -0.740 N 
ATOM     26  H   LIG    1        0.507   0.726  -2.543  0.00  0.00    +0.400 HD
ATOM     27  C   LIG    1       -0.997   1.758  -3.630  0.00  0.00    +0.290 C 
ATOM     28  O   LIG    1       -1.736   2.268  -1.088  0.00  0.00    -0.530 OA
ENDBRANCH  23  24
ENDBRANCH   7  23
TORSDOF 8
