REMARK  Name = ZINCqH0000007yrk.0
REMARK                            x       y       z     vdW  Elec       q    Type
REMARK                         _______ _______ _______ _____ _____    ______ ____
ROOT
ATOM      1  C   LIG    1        3.958  -0.463  -0.037  0.00  0.00    +0.200 A 
ATOM      2  N   LIG    1        2.661  -0.278  -0.018  0.00  0.00    -0.460 NA
ATOM      3  C   LIG    1        2.486   1.063  -0.015  0.00  0.00    +0.210 A 
ATOM      4  N   LIG    1        3.675   1.608  -0.023  0.00  0.00    -0.360 NA
ATOM      5  O   LIG    1        4.528   0.746  -0.036  0.00  0.00    +0.090 OA
ENDROOT
BRANCH   1  11
ATOM      6  C   LIG    1        8.227  -5.221  -0.993  0.00  0.00    +0.160 A 
ATOM      7  C   LIG    1        7.976  -4.625  -2.220  0.00  0.00    -0.100 A 
ATOM      8  C   LIG    1        7.111  -3.552  -2.301  0.00  0.00    +0.090 A 
ATOM      9  C   LIG    1        6.491  -3.065  -1.162  0.00  0.00    -0.200 A 
ATOM     10  C   LIG    1        5.561  -1.885  -1.292  0.00  0.00    +0.110 C 
ATOM     11  C   LIG    1        4.672  -1.790  -0.051  0.00  0.00    +0.110 C 
ATOM     12  C   LIG    1        5.564  -1.909   1.192  0.00  0.00    +0.270 C 
ATOM     13  O   LIG    1        6.145  -3.214   1.205  0.00  0.00    -0.300 OA
ATOM     14  C   LIG    1        6.736  -3.658   0.065  0.00  0.00    +0.170 A 
ATOM     15  C   LIG    1        7.608  -4.737   0.148  0.00  0.00    -0.040 A 
BRANCH   6  17
ATOM     16  C   LIG    1        9.682  -6.721  -2.127  0.00  0.00    +0.250 C 
ATOM     17  O   LIG    1        9.079  -6.276  -0.910  0.00  0.00    -0.310 OA
ENDBRANCH   6  17
ENDBRANCH   1  11
BRANCH   3  18
ATOM     18  C   LIG    1        1.188   1.782   0.000  0.00  0.00    -0.060 A 
ATOM     19  C   LIG    1        1.150   3.179   0.008  0.00  0.00    +0.110 A 
ATOM     20  C   LIG    1       -0.086   3.803   0.023  0.00  0.00    +0.020 A 
ATOM     21  C   LIG    1       -1.233   3.030   0.030  0.00  0.00    +0.070 A 
ATOM     22  N   LIG    1       -1.165   1.713   0.017  0.00  0.00    -0.450 NA
ATOM     23  C   LIG    1       -0.013   1.076   0.008  0.00  0.00    +0.330 A 
BRANCH  21  24
ATOM     24  C   LIG    1       -2.581   3.704   0.047  0.00  0.00    +0.460 C 
ATOM     25  F   LIG    1       -2.714   4.508  -1.090  0.00  0.00    -0.190 F 
ATOM     26  F   LIG    1       -2.692   4.496   1.194  0.00  0.00    -0.190 F 
ENDBRANCH  21  24
ENDBRANCH   3  18
TORSDOF 4
