REMARK  Name = ZINCnE000001TANf.0
REMARK                            x       y       z     vdW  Elec       q    Type
REMARK                         _______ _______ _______ _____ _____    ______ ____
ROOT
ATOM      1  C   LIG    1       -3.904  -1.043   0.657  0.00  0.00    -0.080 C 
ATOM      2  C   LIG    1       -2.886  -1.936   1.366  0.00  0.00    +0.240 C 
ATOM      3  N   LIG    1       -1.573  -1.274   1.322  0.00  0.00    -0.520 NA
ATOM      4  C   LIG    1       -1.560  -0.111   2.215  0.00  0.00    +0.260 C 
ATOM      5  C   LIG    1       -2.725   0.796   1.916  0.00  0.00    -0.120 A 
ATOM      6  C   LIG    1       -2.685   2.099   2.387  0.00  0.00    +0.000 A 
ATOM      7  C   LIG    1       -3.732   2.964   2.140  0.00  0.00    -0.020 A 
ATOM      8  C   LIG    1       -4.828   2.529   1.419  0.00  0.00    +0.000 A 
ATOM      9  C   LIG    1       -4.869   1.232   0.947  0.00  0.00    +0.020 A 
ATOM     10  C   LIG    1       -3.817   0.363   1.194  0.00  0.00    -0.030 A 
ENDROOT
BRANCH   1  12
ATOM     11  O   LIG    1       -5.719  -1.695   2.027  0.00  0.00    -0.690 OA
ATOM     12  C   LIG    1       -5.292  -1.582   0.891  0.00  0.00    +0.510 C 
ATOM     13  O   LIG    1       -5.987  -1.906  -0.057  0.00  0.00    -0.700 OA
ENDBRANCH   1  12
BRANCH   3  14
ATOM     14  C   LIG    1       -1.224  -0.887  -0.051  0.00  0.00    +0.290 C 
BRANCH  14  15
ATOM     15  C   LIG    1       -0.004  -0.003  -0.030  0.00  0.00    +0.050 A 
ATOM     16  C   LIG    1        1.272  -0.422  -0.105  0.00  0.00    -0.040 A 
ATOM     17  C   LIG    1        2.087   0.733  -0.050  0.00  0.00    +0.040 A 
ATOM     18  C   LIG    1        1.259   1.788   0.055  0.00  0.00    -0.130 A 
ATOM     19  O   LIG    1       -0.005   1.336   0.067  0.00  0.00    -0.140 OA
BRANCH  18  20
ATOM     20  C   LIG    1        1.680   3.232   0.145  0.00  0.00    +0.560 C 
ATOM     21  F   LIG    1        2.930   3.316   0.768  0.00  0.00    -0.160 F 
ATOM     22  F   LIG    1        0.738   3.947   0.892  0.00  0.00    -0.170 F 
ATOM     23  F   LIG    1        1.764   3.774  -1.142  0.00  0.00    -0.170 F 
ENDBRANCH  18  20
ENDBRANCH  14  15
ENDBRANCH   3  14
TORSDOF 4
