REMARK  Name = ZINCpe000000Z2IT.0
REMARK                            x       y       z     vdW  Elec       q    Type
REMARK                         _______ _______ _______ _____ _____    ______ ____
ROOT
ATOM      1  O   LIG    1        0.190   3.622  -2.718  0.00  0.00    -0.580 OA
ATOM      2  C   LIG    1       -0.798   3.923  -2.076  0.00  0.00    +0.710 C 
ATOM      3  N   LIG    1       -1.528   2.964  -1.473  0.00  0.00    -0.640 N 
ATOM      4  C   LIG    1       -1.214   1.540  -1.666  0.00  0.00    +0.330 C 
ATOM      5  C   LIG    1       -0.799   0.927  -0.323  0.00  0.00    +0.300 C 
ATOM      6  N   LIG    1       -1.738   1.358   0.712  0.00  0.00    -0.470 N 
ATOM      7  C   LIG    1       -1.959   0.817   1.926  0.00  0.00    +0.380 A 
ATOM      8  N   LIG    1       -2.880   1.540   2.509  0.00  0.00    -0.300 NA
ATOM      9  N   LIG    1       -3.245   2.495   1.724  0.00  0.00    -0.280 NA
ATOM     10  C   LIG    1       -2.578   2.421   0.614  0.00  0.00    +0.150 A 
ATOM     11  C   LIG    1       -2.666   3.312  -0.601  0.00  0.00    +0.410 C 
ATOM     12  N   LIG    1       -1.163   5.215  -1.968  0.00  0.00    -0.740 N 
ATOM     13  H   LIG    1       -1.907   5.463  -1.398  0.00  0.00    +0.400 HD
ENDROOT
BRANCH  12  14
ATOM     14  C   LIG    1       -0.436   6.247  -2.712  0.00  0.00    +0.260 C 
BRANCH  14  15
ATOM     15  C   LIG    1       -0.930   7.630  -2.283  0.00  0.00    +0.100 C 
ATOM     16  C   LIG    1       -2.456   7.677  -2.373  0.00  0.00    +0.040 C 
ATOM     17  C   LIG    1       -2.890   7.406  -3.815  0.00  0.00    +0.010 C 
ATOM     18  C   LIG    1       -2.291   8.470  -4.737  0.00  0.00    +0.010 C 
ATOM     19  C   LIG    1       -0.765   8.423  -4.646  0.00  0.00    +0.020 C 
ATOM     20  C   LIG    1       -0.331   8.694  -3.204  0.00  0.00    +0.040 C 
BRANCH  15  21
ATOM     21  N   LIG    1       -0.513   7.890  -0.898  0.00  0.00    -0.520 NA
ATOM     22  C   LIG    1        0.947   8.042  -0.807  0.00  0.00    +0.150 C 
ATOM     23  C   LIG    1        1.331   8.370   0.638  0.00  0.00    +0.220 C 
ATOM     24  O   LIG    1        0.838   7.342   1.502  0.00  0.00    -0.380 OA
ATOM     25  C   LIG    1       -0.580   7.168   1.439  0.00  0.00    +0.220 C 
ATOM     26  C   LIG    1       -0.983   6.827   0.002  0.00  0.00    +0.140 C 
ENDBRANCH  15  21
ENDBRANCH  14  15
ENDBRANCH  12  14
TORSDOF 3
