REMARK  Name = ZINCvU0000000E93.0
REMARK                            x       y       z     vdW  Elec       q    Type
REMARK                         _______ _______ _______ _____ _____    ______ ____
ROOT
ATOM      1  C   LIG    1        3.818   2.031  -2.208  0.00  0.00    +0.560 C 
ATOM      2  N   LIG    1        4.051   1.917  -0.885  0.00  0.00    -0.460 N 
ATOM      3  N   LIG    1        4.761   2.828  -0.105  0.00  0.00    -0.240 NA
ATOM      4  C   LIG    1        4.851   2.500   1.137  0.00  0.00    +0.150 C 
ATOM      5  C   LIG    1        4.134   1.188   1.366  0.00  0.00    +0.110 C 
ATOM      6  C   LIG    1        3.596   0.810  -0.028  0.00  0.00    +0.330 C 
ATOM      7  O   LIG    1        3.185   1.175  -2.788  0.00  0.00    -0.480 OA
ENDROOT
BRANCH   4   8
ATOM      8  C   LIG    1        5.545   3.283   2.176  0.00  0.00    -0.040 A 
ATOM      9  C   LIG    1        5.570   2.829   3.497  0.00  0.00    +0.070 A 
ATOM     10  C   LIG    1        6.226   3.563   4.463  0.00  0.00    +0.030 A 
ATOM     11  C   LIG    1        6.848   4.754   4.127  0.00  0.00    -0.020 A 
ATOM     12  C   LIG    1        6.821   5.213   2.821  0.00  0.00    +0.030 A 
ATOM     13 CL   LIG    1        7.665   5.676   5.351  0.00  0.00    -0.060 Cl
ATOM     14  C   LIG    1        6.174   4.485   1.845  0.00  0.00    +0.080 A 
ENDBRANCH   4   8
BRANCH   6  15
ATOM     15  C   LIG    1        2.091   0.734  -0.014  0.00  0.00    -0.030 A 
ATOM     16  C   LIG    1        1.361  -0.395  -0.013  0.00  0.00    -0.030 A 
ATOM     17  C   LIG    1        0.002  -0.004   0.002  0.00  0.00    -0.060 A 
ATOM     18  C   LIG    1       -0.016   1.341   0.009  0.00  0.00    +0.180 A 
ATOM     19  O   LIG    1        1.252   1.783  -0.000  0.00  0.00    -0.170 OA
ENDBRANCH   6  15
BRANCH   1  20
ATOM     20  C   LIG    1        4.345   3.223  -2.965  0.00  0.00    +0.290 C 
BRANCH  20  21
ATOM     21  O   LIG    1        3.965   3.114  -4.362  0.00  0.00    -0.330 OA
BRANCH  21  23
ATOM     22  O   LIG    1        5.006   5.037  -4.743  0.00  0.00    -0.490 OA
ATOM     23  C   LIG    1        4.361   4.107  -5.183  0.00  0.00    +0.520 C 
BRANCH  23  24
ATOM     24  C   LIG    1        4.011   4.064  -6.617  0.00  0.00    -0.170 A 
ATOM     25  C   LIG    1        3.270   3.000  -7.134  0.00  0.00    +0.380 A 
ATOM     26  N   LIG    1        2.957   2.961  -8.412  0.00  0.00    -0.460 NA
ATOM     27  C   LIG    1        3.325   3.912  -9.250  0.00  0.00    +0.210 A 
ATOM     28  C   LIG    1        4.063   5.002  -8.815  0.00  0.00    -0.090 A 
ATOM     29 CL   LIG    1        4.538   6.243  -9.932  0.00  0.00    -0.010 Cl
ATOM     30 CL   LIG    1        2.877   3.797 -10.924  0.00  0.00    +0.010 Cl
ATOM     31  C   LIG    1        4.412   5.093  -7.479  0.00  0.00    +0.180 A 
ENDBRANCH  23  24
ENDBRANCH  21  23
ENDBRANCH  20  21
ENDBRANCH   1  20
TORSDOF 6
