REMARK  Name = ZINCzw0000000eDf.0
REMARK                            x       y       z     vdW  Elec       q    Type
REMARK                         _______ _______ _______ _____ _____    ______ ____
ROOT
ATOM      1  C   LIG    1       -0.288   6.871  -3.259  0.00  0.00    +0.040 A 
ATOM      2  C   LIG    1       -0.721   6.132  -4.317  0.00  0.00    -0.040 A 
ATOM      3  N   LIG    1       -1.753   5.364  -3.873  0.00  0.00    -0.460 NA
ATOM      4  C   LIG    1       -1.944   5.618  -2.614  0.00  0.00    +0.450 A 
ATOM      5  O   LIG    1       -1.054   6.536  -2.208  0.00  0.00    -0.200 OA
ENDROOT
BRANCH   2   6
ATOM      6  C   LIG    1       -0.173   6.158  -5.685  0.00  0.00    +0.600 C 
ATOM      7  N   LIG    1       -0.781   5.463  -6.668  0.00  0.00    -0.590 N 
ATOM      8  C   LIG    1       -2.061   4.779  -6.428  0.00  0.00    +0.310 C 
ATOM      9  C   LIG    1       -3.046   5.199  -7.531  0.00  0.00    +0.180 C 
ATOM     10  N   LIG    1       -2.441   4.941  -8.844  0.00  0.00    -0.460 N 
ATOM     11  C   LIG    1       -1.235   5.756  -9.045  0.00  0.00    +0.230 C 
ATOM     12  C   LIG    1       -0.179   5.364  -8.006  0.00  0.00    +0.300 C 
ATOM     13  O   LIG    1        0.827   6.806  -5.928  0.00  0.00    -0.530 OA
BRANCH  10  14
ATOM     14  C   LIG    1       -3.356   5.150  -9.862  0.00  0.00    +0.380 A 
ATOM     15  N   LIG    1       -3.200   5.964 -10.879  0.00  0.00    -0.510 NA
ATOM     16  C   LIG    1       -4.288   5.906 -11.666  0.00  0.00    +0.160 A 
ATOM     17  C   LIG    1       -5.157   5.037 -11.122  0.00  0.00    +0.130 A 
ATOM     18  N   LIG    1       -4.572   4.551  -9.974  0.00  0.00    -0.570 N 
ATOM     19  H   LIG    1       -4.955   3.904  -9.361  0.00  0.00    +0.420 HD
ENDBRANCH  10  14
ENDBRANCH   2   6
BRANCH   1  25
ATOM     20  C   LIG    1        2.021   6.498  -1.525  0.00  0.00    +0.520 C 
ATOM     21  N   LIG    1        1.697   7.683  -2.080  0.00  0.00    -0.600 N 
ATOM     22  C   LIG    1        2.147   9.001  -1.610  0.00  0.00    +0.260 C 
ATOM     23  C   LIG    1        1.508  10.059  -2.533  0.00  0.00    +0.060 C 
ATOM     24  C   LIG    1        0.283   9.312  -3.123  0.00  0.00    +0.070 C 
ATOM     25  C   LIG    1        0.839   7.871  -3.264  0.00  0.00    +0.360 C 
ATOM     26  O   LIG    1        1.662   5.464  -2.049  0.00  0.00    -0.510 OA
BRANCH  20  32
ATOM     27  N   LIG    1        2.396   5.316   0.564  0.00  0.00    -0.370 N 
ATOM     28  C   LIG    1        3.123   5.314   1.838  0.00  0.00    +0.260 C 
ATOM     29  C   LIG    1        4.619   5.123   1.576  0.00  0.00    +0.060 C 
ATOM     30  C   LIG    1        5.127   6.271   0.700  0.00  0.00    +0.060 C 
ATOM     31  C   LIG    1        4.312   6.312  -0.595  0.00  0.00    +0.090 C 
ATOM     32  C   LIG    1        2.828   6.457  -0.253  0.00  0.00    +0.160 C 
ATOM     33  H   LIG    1        2.586   4.458   0.068  0.00  0.00    +0.430 HD
BRANCH  27  34
ATOM     34  C   LIG    1        0.954   5.420   0.824  0.00  0.00    +0.240 C 
BRANCH  34  35
ATOM     35  C   LIG    1        0.473   4.158   1.543  0.00  0.00    +0.040 C 
BRANCH  35  37
ATOM     36  C   LIG    1       -1.509   3.004   2.534  0.00  0.00    +0.030 C 
ATOM     37  C   LIG    1       -1.028   4.266   1.815  0.00  0.00    +0.020 C 
ENDBRANCH  35  37
ENDBRANCH  34  35
ENDBRANCH  27  34
ENDBRANCH  20  32
ENDBRANCH   1  25
TORSDOF 7
