REMARK  Name = ZINCzw0000000eDf.1
REMARK                            x       y       z     vdW  Elec       q    Type
REMARK                         _______ _______ _______ _____ _____    ______ ____
ROOT
ATOM      1  C   LIG    1        1.947   1.990  -1.223  0.00  0.00    +0.030 A 
ATOM      2  C   LIG    1        3.300   1.884  -1.326  0.00  0.00    -0.040 A 
ATOM      3  N   LIG    1        3.584   1.639  -2.634  0.00  0.00    -0.460 NA
ATOM      4  C   LIG    1        2.467   1.605  -3.298  0.00  0.00    +0.450 A 
ATOM      5  O   LIG    1        1.446   1.817  -2.456  0.00  0.00    -0.200 OA
ENDROOT
BRANCH   2   6
ATOM      6  C   LIG    1        4.274   2.010  -0.227  0.00  0.00    +0.600 C 
ATOM      7  N   LIG    1        5.596   2.003  -0.494  0.00  0.00    -0.590 N 
ATOM      8  C   LIG    1        6.089   1.769  -1.859  0.00  0.00    +0.310 C 
ATOM      9  C   LIG    1        7.075   2.893  -2.215  0.00  0.00    +0.180 C 
ATOM     10  N   LIG    1        8.117   2.967  -1.183  0.00  0.00    -0.460 N 
ATOM     11  C   LIG    1        7.549   3.324   0.124  0.00  0.00    +0.230 C 
ATOM     12  C   LIG    1        6.582   2.224   0.574  0.00  0.00    +0.300 C 
ATOM     13  O   LIG    1        3.886   2.119   0.920  0.00  0.00    -0.530 OA
BRANCH  10  14
ATOM     14  C   LIG    1        9.116   3.855  -1.549  0.00  0.00    +0.380 A 
ATOM     15  N   LIG    1        9.519   4.888  -0.848  0.00  0.00    -0.510 NA
ATOM     16  C   LIG    1       10.504   5.517  -1.511  0.00  0.00    +0.160 A 
ATOM     17  C   LIG    1       10.720   4.865  -2.666  0.00  0.00    +0.130 A 
ATOM     18  N   LIG    1        9.841   3.806  -2.699  0.00  0.00    -0.580 N 
ATOM     19  H   LIG    1        9.756   3.149  -3.408  0.00  0.00    +0.420 HD
ENDBRANCH  10  14
ENDBRANCH   2   6
BRANCH   1  25
ATOM     20  C   LIG    1        0.057   0.007   0.150  0.00  0.00    +0.520 C 
ATOM     21  N   LIG    1        0.003   1.353   0.102  0.00  0.00    -0.600 N 
ATOM     22  C   LIG    1       -1.229   2.163   0.100  0.00  0.00    +0.260 C 
ATOM     23  C   LIG    1       -0.792   3.545   0.654  0.00  0.00    +0.060 C 
ATOM     24  C   LIG    1        0.617   3.699   0.024  0.00  0.00    +0.070 C 
ATOM     25  C   LIG    1        1.161   2.255   0.036  0.00  0.00    +0.360 C 
ATOM     26  O   LIG    1        1.124  -0.561   0.051  0.00  0.00    -0.490 OA
BRANCH  20  32
ATOM     27  N   LIG    1       -1.324  -1.770  -0.762  0.00  0.00    -0.370 N 
ATOM     28  C   LIG    1       -0.136  -2.630  -0.789  0.00  0.00    +0.250 C 
ATOM     29  C   LIG    1       -0.052  -3.432   0.511  0.00  0.00    +0.060 C 
ATOM     30  C   LIG    1        0.042  -2.465   1.695  0.00  0.00    +0.050 C 
ATOM     31  C   LIG    1       -1.166  -1.524   1.670  0.00  0.00    +0.080 C 
ATOM     32  C   LIG    1       -1.208  -0.793   0.326  0.00  0.00    +0.160 C 
ATOM     33  H   LIG    1       -2.146  -2.338  -0.617  0.00  0.00    +0.430 HD
BRANCH  27  34
ATOM     34  C   LIG    1       -1.443  -1.062  -2.044  0.00  0.00    +0.230 C 
BRANCH  34  35
ATOM     35  C   LIG    1       -1.689  -2.074  -3.165  0.00  0.00    +0.030 C 
BRANCH  35  37
ATOM     36  C   LIG    1       -2.058  -2.348  -5.621  0.00  0.00    +0.030 C 
ATOM     37  C   LIG    1       -1.812  -1.336  -4.500  0.00  0.00    +0.020 C 
ENDBRANCH  35  37
ENDBRANCH  34  35
ENDBRANCH  27  34
ENDBRANCH  20  32
ENDBRANCH   1  25
TORSDOF 7
