REMARK  Name = ZINCpe000000XyCO.0
REMARK                            x       y       z     vdW  Elec       q    Type
REMARK                         _______ _______ _______ _____ _____    ______ ____
ROOT
ATOM      1  C   LIG    1        2.105   5.049  -1.612  0.00  0.00    +0.520 C 
ATOM      2  N   LIG    1        1.731   3.777  -1.370  0.00  0.00    -0.730 N 
ATOM      3  H   LIG    1        1.474   3.198  -2.105  0.00  0.00    +0.400 HD
ATOM      4  O   LIG    1        2.426   5.772  -0.693  0.00  0.00    -0.520 OA
ENDROOT
BRANCH   1   5
ATOM      5  C   LIG    1        2.123   5.573  -3.025  0.00  0.00    +0.160 C 
BRANCH   5   8
ATOM      6  C   LIG    1        4.876   6.212  -3.478  0.00  0.00    +0.160 C 
ATOM      7  C   LIG    1        3.876   7.313  -3.236  0.00  0.00    +0.230 A 
ATOM      8  C   LIG    1        2.575   7.010  -3.022  0.00  0.00    -0.260 A 
ATOM      9  C   LIG    1        1.641   8.043  -2.801  0.00  0.00    +0.580 A 
ATOM     10  N   LIG    1        2.051   9.327  -2.793  0.00  0.00    -0.360 N 
ATOM     11  N   LIG    1        1.367  10.533  -2.601  0.00  0.00    -0.260 NA
ATOM     12  C   LIG    1        2.227  11.517  -2.696  0.00  0.00    +0.290 A 
ATOM     13  C   LIG    1        3.490  10.981  -2.953  0.00  0.00    -0.120 A 
ATOM     14  C   LIG    1        3.366   9.625  -3.010  0.00  0.00    +0.300 A 
ATOM     15  O   LIG    1        0.468   7.776  -2.613  0.00  0.00    -0.490 OA
ATOM     16  N   LIG    1        4.281   8.614  -3.232  0.00  0.00    -0.600 N 
ATOM     17  H   LIG    1        5.214   8.831  -3.386  0.00  0.00    +0.440 HD
ENDBRANCH   5   8
ENDBRANCH   1   5
BRANCH   2  18
ATOM     18  C   LIG    1        1.712   3.267   0.003  0.00  0.00    +0.370 C 
BRANCH  18  19
ATOM     19  C   LIG    1        1.261   1.829  -0.000  0.00  0.00    +0.060 A 
ATOM     20  C   LIG    1        2.065   0.741  -0.014  0.00  0.00    -0.050 A 
ATOM     21  C   LIG    1        1.250  -0.396  -0.012  0.00  0.00    -0.010 A 
ATOM     22  N   LIG    1        0.002  -0.004   0.002  0.00  0.00    -0.250 NA
ATOM     23  N   LIG    1       -0.017   1.397   0.010  0.00  0.00    -0.350 N 
ATOM     24  C   LIG    1       -1.213   2.242   0.020  0.00  0.00    +0.360 C 
BRANCH  21  25
ATOM     25  C   LIG    1        1.728  -1.825  -0.025  0.00  0.00    +0.490 C 
ATOM     26  F   LIG    1        2.512  -2.065   1.109  0.00  0.00    -0.190 F 
ATOM     27  F   LIG    1        2.490  -2.052  -1.176  0.00  0.00    -0.190 F 
ENDBRANCH  21  25
ENDBRANCH  18  19
ENDBRANCH   2  18
TORSDOF 5
