REMARK  Name = ZINCrH00000tj116.0
REMARK                            x       y       z     vdW  Elec       q    Type
REMARK                         _______ _______ _______ _____ _____    ______ ____
ROOT
ATOM      1  C   LIG    1        3.341   3.009   2.169  0.00  0.00    +0.550 C 
ATOM      2  N   LIG    1        3.457   3.223   0.844  0.00  0.00    -0.470 N 
ATOM      3  N   LIG    1        4.532   2.830   0.050  0.00  0.00    -0.230 NA
ATOM      4  C   LIG    1        4.414   3.148  -1.192  0.00  0.00    +0.140 C 
ATOM      5  C   LIG    1        3.103   3.871  -1.406  0.00  0.00    +0.100 C 
ATOM      6  C   LIG    1        2.468   3.910  -0.002  0.00  0.00    +0.260 C 
ATOM      7  O   LIG    1        2.356   3.396   2.763  0.00  0.00    -0.510 OA
ENDROOT
BRANCH   6   8
ATOM      8  C   LIG    1        1.156   3.169   0.007  0.00  0.00    -0.070 A 
ATOM      9  C   LIG    1       -0.010   3.870   0.021  0.00  0.00    +0.080 A 
ATOM     10  C   LIG    1       -1.236   3.183   0.030  0.00  0.00    +0.080 A 
ATOM     11  N   LIG    1       -2.399   3.844   0.044  0.00  0.00    -0.420 NA
ATOM     12  C   LIG    1       -3.529   3.174   0.052  0.00  0.00    +0.260 A 
ATOM     13  C   LIG    1       -3.530   1.778   0.045  0.00  0.00    +0.260 A 
ATOM     14  N   LIG    1       -2.401   1.106   0.032  0.00  0.00    -0.420 NA
ATOM     15  C   LIG    1       -1.238   1.765   0.018  0.00  0.00    +0.080 A 
ATOM     16  C   LIG    1       -0.013   1.076   0.008  0.00  0.00    +0.060 A 
ATOM     17  C   LIG    1        1.155   1.775   0.001  0.00  0.00    +0.050 A 
ENDBRANCH   6   8
BRANCH   4  18
ATOM     18  C   LIG    1        5.404   2.853  -2.245  0.00  0.00    +0.000 A 
ATOM     19  C   LIG    1        5.166   3.248  -3.563  0.00  0.00    +0.000 A 
ATOM     20  C   LIG    1        6.095   2.970  -4.544  0.00  0.00    +0.050 A 
ATOM     21  C   LIG    1        7.263   2.301  -4.228  0.00  0.00    -0.060 A 
ATOM     22  C   LIG    1        7.509   1.904  -2.920  0.00  0.00    +0.130 A 
ATOM     23  C   LIG    1        6.587   2.182  -1.926  0.00  0.00    +0.030 A 
BRANCH  22  24
ATOM     24  O   LIG    1        8.659   1.246  -2.615  0.00  0.00    -0.310 OA
ATOM     25  C   LIG    1        9.568   0.997  -3.689  0.00  0.00    +0.250 C 
ENDBRANCH  22  24
ENDBRANCH   4  18
BRANCH   1  27
ATOM     26  C   LIG    1        4.057   2.177   4.393  0.00  0.00    +0.050 C 
ATOM     27  C   LIG    1        4.435   2.288   2.915  0.00  0.00    +0.070 C 
ENDBRANCH   1  27
TORSDOF 4
