REMARK  Name = ZINCvU0000000FGG.0
REMARK                            x       y       z     vdW  Elec       q    Type
REMARK                         _______ _______ _______ _____ _____    ______ ____
ROOT
ATOM      1  S   LIG    1        3.625   5.120  -0.008  0.00  0.00    +0.080 S 
ENDROOT
BRANCH   1   2
ATOM      2  C   LIG    1        2.795   3.566  -0.018  0.00  0.00    +0.260 A 
ATOM      3  N   LIG    1        1.494   3.406  -0.016  0.00  0.00    -0.490 NA
ATOM      4  C   LIG    1        1.196   2.080  -0.026  0.00  0.00    +0.060 A 
ATOM      5  C   LIG    1       -0.005   1.367  -0.029  0.00  0.00    +0.060 A 
ATOM      6  C   LIG    1        0.017  -0.010  -0.042  0.00  0.00    +0.010 A 
ATOM      7  C   LIG    1        1.222  -0.695  -0.052  0.00  0.00    +0.030 A 
ATOM      8  C   LIG    1        2.418  -0.005  -0.049  0.00  0.00    +0.010 A 
ATOM      9  C   LIG    1        2.415   1.381  -0.036  0.00  0.00    +0.060 A 
ATOM     10  N   LIG    1        3.413   2.344  -0.032  0.00  0.00    -0.430 N 
BRANCH  10  11
ATOM     11  C   LIG    1        4.794   2.111  -0.038  0.00  0.00    +0.110 A 
ATOM     12  C   LIG    1        5.392   1.504  -1.133  0.00  0.00    +0.020 A 
ATOM     13  C   LIG    1        6.755   1.275  -1.137  0.00  0.00    +0.040 A 
ATOM     14  C   LIG    1        7.523   1.651  -0.050  0.00  0.00    +0.020 A 
ATOM     15  C   LIG    1        6.930   2.257   1.043  0.00  0.00    -0.070 A 
ATOM     16  C   LIG    1        7.771   2.665   2.225  0.00  0.00    +0.100 C 
ATOM     17  C   LIG    1        5.569   2.492   1.050  0.00  0.00    +0.030 A 
ENDBRANCH  10  11
ENDBRANCH   1   2
BRANCH   1  18
ATOM     18  C   LIG    1        2.200   6.237   0.007  0.00  0.00    +0.020 C 
ATOM     19  C   LIG    1        1.427   6.060   1.315  0.00  0.00    +0.090 C 
BRANCH  18  22
ATOM     20  N   LIG    1        1.829   8.626  -0.517  0.00  0.00    -0.660 N 
ATOM     21  H   LIG    1        0.932   8.393  -0.803  0.00  0.00    +0.420 HD
ATOM     22  C   LIG    1        2.677   7.662  -0.107  0.00  0.00    +0.540 C 
ATOM     23  O   LIG    1        3.825   7.941   0.171  0.00  0.00    -0.500 OA
BRANCH  20  28
ATOM     24  C   LIG    1        3.963  11.615  -0.856  0.00  0.00    -0.150 A 
ATOM     25  C   LIG    1        3.044  12.623  -0.550  0.00  0.00    +0.050 A 
ATOM     26  C   LIG    1        1.740  12.296  -0.239  0.00  0.00    +0.030 A 
ATOM     27  C   LIG    1        1.337  10.974  -0.233  0.00  0.00    +0.020 A 
ATOM     28  C   LIG    1        2.244   9.963  -0.530  0.00  0.00    +0.130 A 
ATOM     29  C   LIG    1        3.555  10.278  -0.844  0.00  0.00    +0.090 A 
BRANCH  24  31
ATOM     30  C   LIG    1        5.792  13.402  -1.200  0.00  0.00    +0.080 C 
ATOM     31  C   LIG    1        5.355  11.960  -1.188  0.00  0.00    +0.390 C 
ATOM     32  O   LIG    1        6.150  11.083  -1.452  0.00  0.00    -0.450 OA
ENDBRANCH  24  31
ENDBRANCH  20  28
ENDBRANCH  18  22
ENDBRANCH   1  18
TORSDOF 6
