REMARK  Name = ZINCrg000000qJ9W.0
REMARK                            x       y       z     vdW  Elec       q    Type
REMARK                         _______ _______ _______ _____ _____    ______ ____
ROOT
ATOM      1  C   LIG    1       -0.718   1.572   1.248  0.00  0.00    -0.060 A 
ATOM      2  C   LIG    1       -0.360   2.779   1.819  0.00  0.00    +0.020 A 
ATOM      3  C   LIG    1       -1.010   3.227   2.953  0.00  0.00    +0.120 A 
ATOM      4  C   LIG    1       -2.012   2.463   3.523  0.00  0.00    -0.670 A 
ATOM      5  C   LIG    1       -2.366   1.254   2.955  0.00  0.00    +0.120 A 
ATOM      6  C   LIG    1       -1.719   0.808   1.818  0.00  0.00    +0.020 A 
ENDROOT
BRANCH   4   7
ATOM      7  S   LIG    1       -2.836   3.031   4.973  0.00  0.00    +2.690 S 
ATOM      8  O   LIG    1       -4.101   2.384   4.995  0.00  0.00    -0.950 OA
ATOM      9  O   LIG    1       -2.685   4.444   4.993  0.00  0.00    -0.950 OA
BRANCH   7  10
ATOM     10  N   LIG    1       -1.992   2.453   6.275  0.00  0.00    -1.000 NA
ATOM     11  C   LIG    1       -2.324   1.151   6.876  0.00  0.00    +0.280 C 
ATOM     12  C   LIG    1       -1.028   0.334   6.998  0.00  0.00    +0.220 C 
ATOM     13  O   LIG    1       -0.044   1.115   7.681  0.00  0.00    -0.370 OA
ATOM     14  C   LIG    1        0.332   2.312   6.995  0.00  0.00    +0.220 C 
ATOM     15  C   LIG    1       -0.891   3.228   6.870  0.00  0.00    +0.280 C 
ENDBRANCH   7  10
ENDBRANCH   4   7
BRANCH   1  16
ATOM     16  C   LIG    1       -0.013   1.086   0.008  0.00  0.00    +0.340 C 
BRANCH  16  18
ATOM     17  C   LIG    1       -0.268   1.258  -2.409  0.00  0.00    +0.570 C 
ATOM     18  N   LIG    1       -0.721   1.571  -1.179  0.00  0.00    -0.730 N 
ATOM     19  H   LIG    1       -1.516   2.118  -1.079  0.00  0.00    +0.400 HD
ATOM     20  O   LIG    1        0.729   0.574  -2.534  0.00  0.00    -0.530 OA
BRANCH  17  24
ATOM     21  C   LIG    1       -2.354   2.688  -5.765  0.00  0.00    +0.350 A 
ATOM     22  C   LIG    1       -1.221   1.909  -5.977  0.00  0.00    -0.050 A 
ATOM     23  C   LIG    1       -0.520   1.428  -4.890  0.00  0.00    +0.180 A 
ATOM     24  C   LIG    1       -0.982   1.747  -3.605  0.00  0.00    -0.230 A 
ATOM     25  C   LIG    1       -2.131   2.529  -3.474  0.00  0.00    +0.340 A 
ATOM     26  N   LIG    1       -2.766   2.972  -4.539  0.00  0.00    -0.540 NA
BRANCH  21  28
ATOM     27  C   LIG    1       -4.202   3.956  -6.549  0.00  0.00    +0.260 C 
ATOM     28  O   LIG    1       -3.047   3.163  -6.828  0.00  0.00    -0.300 OA
ENDBRANCH  21  28
ENDBRANCH  17  24
ENDBRANCH  16  18
ENDBRANCH   1  16
TORSDOF 6
