REMARK  Name = ZINCkj000005gBYm.2
REMARK                            x       y       z     vdW  Elec       q    Type
REMARK                         _______ _______ _______ _____ _____    ______ ____
ROOT
ATOM      1  N   LIG    1        6.850  -4.122   3.521  0.00  0.00    -0.390 N 
ATOM      2  C   LIG    1        7.038  -3.974   2.072  0.00  0.00    +0.280 C 
ATOM      3  C   LIG    1        6.298  -2.725   1.587  0.00  0.00    +0.220 C 
ATOM      4  N   LIG    1        4.868  -2.853   1.902  0.00  0.00    -0.540 NA
ATOM      5  C   LIG    1        4.666  -3.028   3.348  0.00  0.00    +0.200 C 
ATOM      6  C   LIG    1        5.420  -4.274   3.818  0.00  0.00    +0.270 C 
ATOM      7  H   LIG    1        7.206  -3.304   3.992  0.00  0.00    +0.420 HD
ENDROOT
BRANCH   1   8
ATOM      8  C   LIG    1        7.576  -5.311   3.990  0.00  0.00    +0.250 C 
BRANCH   8   9
ATOM      9  C   LIG    1        7.323  -5.506   5.486  0.00  0.00    -0.020 C 
ATOM     10  C   LIG    1        8.012  -6.788   5.956  0.00  0.00    +0.070 C 
BRANCH   9  12
ATOM     11  C   LIG    1        7.525  -4.445   7.739  0.00  0.00    +0.040 C 
ATOM     12  C   LIG    1        7.886  -4.311   6.258  0.00  0.00    +0.000 C 
ENDBRANCH   9  12
ENDBRANCH   8   9
ENDBRANCH   1   8
BRANCH   4  13
ATOM     13  C   LIG    1        4.113  -1.698   1.401  0.00  0.00    +0.200 C 
BRANCH  13  14
ATOM     14  C   LIG    1        2.613  -1.977   1.522  0.00  0.00    +0.180 C 
BRANCH  14  15
ATOM     15  N   LIG    1        1.858  -0.821   1.021  0.00  0.00    -0.540 NA
ATOM     16  C   LIG    1        0.456  -0.947   1.330  0.00  0.00    +0.170 C 
ATOM     17  C   LIG    1       -0.352  -0.446   0.119  0.00  0.00    +0.010 C 
ATOM     18  C   LIG    1       -0.428   1.015   0.076  0.00  0.00    +0.200 C 
ATOM     19  O   LIG    1        0.887   1.608  -0.005  0.00  0.00    -0.360 OA
ATOM     20  C   LIG    1        1.540   1.658   1.232  0.00  0.00    +0.200 C 
ATOM     21  C   LIG    1        2.469   0.453   1.477  0.00  0.00    +0.150 C 
ENDBRANCH  14  15
ENDBRANCH  13  14
ENDBRANCH   4  13
TORSDOF 6
