REMARK  Name = ZINCpk00000y6ua5.0
REMARK                            x       y       z     vdW  Elec       q    Type
REMARK                         _______ _______ _______ _____ _____    ______ ____
ROOT
ATOM      1  N   LIG    1       -0.011   0.966   0.007  0.00  0.00    -1.110 NA
ATOM      2  H   LIG    1        0.002  -0.004   0.002  0.00  0.00    +0.420 HD
ENDROOT
BRANCH   1   3
ATOM      3  S   LIG    1        1.412   1.813  -0.002  0.00  0.00    +2.730 S 
ATOM      4  O   LIG    1        1.285   2.800  -1.017  0.00  0.00    -0.950 OA
ATOM      5  O   LIG    1        2.454   0.848   0.018  0.00  0.00    -0.940 OA
BRANCH   3   6
ATOM      6  C   LIG    1        1.510   2.683   1.528  0.00  0.00    -0.560 A 
ATOM      7  C   LIG    1        1.050   3.927   1.762  0.00  0.00    +0.260 A 
ATOM      8  N   LIG    1        1.327   4.212   3.071  0.00  0.00    -0.450 N 
ATOM      9  C   LIG    1        1.957   3.135   3.590  0.00  0.00    +0.400 A 
ATOM     10  N   LIG    1        2.063   2.225   2.661  0.00  0.00    -0.410 NA
BRANCH   8  11
ATOM     11  C   LIG    1        1.008   5.455   3.777  0.00  0.00    +0.300 C 
BRANCH  11  12
ATOM     12  C   LIG    1        2.169   6.440   3.626  0.00  0.00    -0.030 C 
ATOM     13  C   LIG    1        3.407   5.881   4.331  0.00  0.00    +0.020 C 
ATOM     14  C   LIG    1        1.786   7.781   4.255  0.00  0.00    +0.040 C 
ENDBRANCH  11  12
ENDBRANCH   8  11
ENDBRANCH   3   6
ENDBRANCH   1   3
BRANCH   1  15
ATOM     15  C   LIG    1       -1.290   1.681   0.017  0.00  0.00    +0.290 C 
BRANCH  15  19
ATOM     16  C   LIG    1       -3.517   0.037  -2.277  0.00  0.00    +0.290 C 
ATOM     17  C   LIG    1       -4.309   1.276  -1.787  0.00  0.00    +0.040 C 
ATOM     18  C   LIG    1       -3.767   1.459  -0.348  0.00  0.00    +0.030 C 
ATOM     19  C   LIG    1       -2.417   0.716  -0.356  0.00  0.00    +0.160 C 
ATOM     20  O   LIG    1       -2.211   0.216  -1.688  0.00  0.00    -0.350 OA
BRANCH  16  25
ATOM     21  C   LIG    1       -4.184  -1.011  -7.128  0.00  0.00    +0.210 C 
ATOM     22  C   LIG    1       -3.700  -0.408  -5.835  0.00  0.00    +0.170 A 
ATOM     23  N   LIG    1       -2.815   0.535  -5.710  0.00  0.00    -0.380 NA
ATOM     24  O   LIG    1       -2.649   0.803  -4.538  0.00  0.00    +0.100 OA
ATOM     25  C   LIG    1       -3.428   0.025  -3.781  0.00  0.00    +0.190 A 
ATOM     26  N   LIG    1       -4.104  -0.747  -4.598  0.00  0.00    -0.470 NA
ENDBRANCH  16  25
ENDBRANCH  15  19
ENDBRANCH   1  15
TORSDOF 7
