REMARK  Name = ZINCpk00000kgXBV.0
REMARK                            x       y       z     vdW  Elec       q    Type
REMARK                         _______ _______ _______ _____ _____    ______ ____
ROOT
ATOM      1  C   LIG    1       -0.619   6.708   1.828  0.00  0.00    +0.520 C 
ATOM      2  N   LIG    1       -1.275   5.769   1.117  0.00  0.00    -0.730 N 
ATOM      3  H   LIG    1       -2.077   6.005   0.626  0.00  0.00    +0.400 HD
ATOM      4  O   LIG    1        0.385   6.413   2.442  0.00  0.00    -0.520 OA
ENDROOT
BRANCH   1   5
ATOM      5  C   LIG    1       -1.132   8.125   1.859  0.00  0.00    +0.120 C 
BRANCH   5   8
ATOM      6  C   LIG    1        0.396   9.892   4.833  0.00  0.00    +0.320 A 
ATOM      7  C   LIG    1       -0.464   9.110   4.074  0.00  0.00    -0.040 A 
ATOM      8  C   LIG    1       -0.226   8.969   2.717  0.00  0.00    +0.010 A 
ATOM      9  C   LIG    1        0.864   9.628   2.165  0.00  0.00    -0.060 A 
ATOM     10  C   LIG    1        1.674  10.394   2.979  0.00  0.00    +0.300 A 
ATOM     11  N   LIG    1        1.425  10.505   4.270  0.00  0.00    -0.540 NA
BRANCH   6  13
ATOM     12  C   LIG    1        1.093  10.856   6.890  0.00  0.00    +0.260 C 
ATOM     13  O   LIG    1        0.177  10.034   6.165  0.00  0.00    -0.310 OA
ENDBRANCH   6  13
ENDBRANCH   5   8
ENDBRANCH   1   5
BRANCH   2  14
ATOM     14  C   LIG    1       -0.775   4.393   1.087  0.00  0.00    +0.270 C 
BRANCH  14  15
ATOM     15  C   LIG    1       -1.623   3.564   0.119  0.00  0.00    +0.220 C 
ATOM     16  C   LIG    1       -2.889   2.980   0.759  0.00  0.00    +0.050 C 
ATOM     17  C   LIG    1       -2.542   1.756  -0.104  0.00  0.00    +0.280 C 
ATOM     18  N   LIG    1       -1.137   2.187  -0.053  0.00  0.00    -0.640 N 
ATOM     19  C   LIG    1        0.067   1.585  -0.135  0.00  0.00    +0.520 C 
ATOM     20  O   LIG    1        1.078   2.254  -0.157  0.00  0.00    -0.510 OA
BRANCH  19  21
ATOM     21  C   LIG    1        0.154   0.083  -0.206  0.00  0.00    +0.190 C 
ATOM     22  F   LIG    1        0.458  -0.305  -1.516  0.00  0.00    -0.190 F 
BRANCH  21  23
ATOM     23  C   LIG    1        1.252  -0.409   0.739  0.00  0.00    +0.070 C 
BRANCH  23  24
ATOM     24  C   LIG    1        1.259  -1.939   0.761  0.00  0.00    -0.050 C 
ATOM     25  C   LIG    1        0.926  -2.628   2.087  0.00  0.00    +0.020 C 
ATOM     26  C   LIG    1        2.364  -2.630   1.562  0.00  0.00    +0.030 C 
ENDBRANCH  23  24
ENDBRANCH  21  23
ENDBRANCH  19  21
ENDBRANCH  14  15
ENDBRANCH   2  14
TORSDOF 8
