REMARK  Name = ZINCrD0000074IJA.0
REMARK                            x       y       z     vdW  Elec       q    Type
REMARK                         _______ _______ _______ _____ _____    ______ ____
ROOT
ATOM      1  C   LIG    1        9.614   6.231   0.214  0.00  0.00    +0.070 A 
ATOM      2  C   LIG    1       10.160   4.959   0.120  0.00  0.00    +0.040 A 
ATOM      3  C   LIG    1        9.332   3.857   0.032  0.00  0.00    +0.050 A 
ATOM      4  C   LIG    1        7.954   4.022   0.038  0.00  0.00    +0.150 A 
ATOM      5  C   LIG    1        7.408   5.296   0.126  0.00  0.00    +0.010 A 
ATOM      6  C   LIG    1        8.236   6.397   0.220  0.00  0.00    +0.030 A 
ENDROOT
BRANCH   4   7
ATOM      7  N   LIG    1        7.114   2.905  -0.051  0.00  0.00    -0.670 N 
ATOM      8  H   LIG    1        6.276   2.965  -0.536  0.00  0.00    +0.420 HD
ATOM      9  C   LIG    1        7.470   1.746   0.537  0.00  0.00    +0.520 C 
ATOM     10  O   LIG    1        8.553   1.646   1.075  0.00  0.00    -0.490 OA
BRANCH   9  11
ATOM     11  C   LIG    1        6.524   0.573   0.526  0.00  0.00    +0.270 C 
BRANCH  11  12
ATOM     12  O   LIG    1        7.134  -0.548   1.217  0.00  0.00    -0.330 OA
BRANCH  12  13
ATOM     13  C   LIG    1        6.413  -1.684   1.297  0.00  0.00    +0.550 C 
ATOM     14  O   LIG    1        5.304  -1.736   0.802  0.00  0.00    -0.520 OA
BRANCH  13  15
ATOM     15  C   LIG    1        6.968  -2.862   1.984  0.00  0.00    -0.290 A 
ATOM     16  C   LIG    1        6.349  -4.087   2.143  0.00  0.00    +0.330 A 
ATOM     17  N   LIG    1        7.191  -4.877   2.827  0.00  0.00    -0.360 N 
ATOM     18  N   LIG    1        8.358  -4.154   3.098  0.00  0.00    -0.300 NA
ATOM     19  C   LIG    1        6.933  -6.264   3.221  0.00  0.00    +0.370 C 
ATOM     20  C   LIG    1        8.235  -2.953   2.604  0.00  0.00    +0.310 A 
ENDBRANCH  13  15
ENDBRANCH  12  13
ENDBRANCH  11  12
ENDBRANCH   9  11
ENDBRANCH   4   7
BRANCH   1  21
ATOM     21  O   LIG    1       10.429   7.316   0.300  0.00  0.00    -0.260 OA
BRANCH  21  26
ATOM     22  C   LIG    1       10.995   9.805   5.321  0.00  0.00    +0.100 C 
ATOM     23  C   LIG    1       10.844   9.139   3.977  0.00  0.00    -0.120 A 
ATOM     24  C   LIG    1       11.599   9.572   2.903  0.00  0.00    +0.050 A 
ATOM     25  C   LIG    1       11.462   8.963   1.671  0.00  0.00    -0.010 A 
ATOM     26  C   LIG    1       10.566   7.916   1.511  0.00  0.00    +0.110 A 
ATOM     27  C   LIG    1        9.805   7.487   2.590  0.00  0.00    -0.060 A 
ATOM     28  C   LIG    1        9.950   8.096   3.821  0.00  0.00    +0.050 A 
ENDBRANCH  21  26
ENDBRANCH   1  21
TORSDOF 7
