REMARK  Name = ZINCkj00000y7KtB.1
REMARK                            x       y       z     vdW  Elec       q    Type
REMARK                         _______ _______ _______ _____ _____    ______ ____
ROOT
ATOM      1  C   LIG    1       -0.549   1.513   1.259  0.00  0.00    +0.100 C 
ATOM      2  C   LIG    1        0.363   1.199   0.054  0.00  0.00    +0.020 C 
ATOM      3  C   LIG    1       -0.323   1.867  -1.156  0.00  0.00    +0.200 C 
ATOM      4  C   LIG    1       -1.594   2.528  -0.581  0.00  0.00    +0.190 C 
ATOM      5  F   LIG    1        0.516   2.835  -1.718  0.00  0.00    -0.190 F 
ATOM      6  N   LIG    1       -1.289   2.739   0.858  0.00  0.00    -0.480 NA
ENDROOT
BRANCH   1   7
ATOM      7  C   LIG    1        0.292   1.780   2.509  0.00  0.00    +0.290 C 
BRANCH   7   8
ATOM      8  N   LIG    1        1.036   0.565   2.868  0.00  0.00    -0.390 N 
ATOM      9  C   LIG    1        0.092  -0.485   3.273  0.00  0.00    +0.330 C 
ATOM     10  H   LIG    1        1.569   0.250   2.071  0.00  0.00    +0.430 HD
BRANCH   8  11
ATOM     11  C   LIG    1        1.948   0.860   3.981  0.00  0.00    +0.440 C 
BRANCH  11  14
ATOM     12  C   LIG    1        4.272  -2.448   4.766  0.00  0.00    +0.230 C 
ATOM     13  C   LIG    1        3.441  -1.265   4.485  0.00  0.00    -0.040 C 
ATOM     14  C   LIG    1        2.779  -0.322   4.261  0.00  0.00    -0.310 C 
ENDBRANCH  11  14
ENDBRANCH   8  11
ENDBRANCH   7   8
ENDBRANCH   1   7
BRANCH   6  15
ATOM     15  C   LIG    1       -2.523   2.890   1.641  0.00  0.00    +0.290 C 
BRANCH  15  16
ATOM     16  C   LIG    1       -3.302   1.601   1.603  0.00  0.00    -0.250 A 
ATOM     17  C   LIG    1       -4.189   1.338   0.571  0.00  0.00    +0.330 A 
ATOM     18  N   LIG    1       -4.853   0.193   0.569  0.00  0.00    -0.510 NA
ATOM     19  C   LIG    1       -4.686  -0.686   1.536  0.00  0.00    +0.510 A 
ATOM     20  N   LIG    1       -3.856  -0.468   2.536  0.00  0.00    -0.510 NA
ATOM     21  C   LIG    1       -3.154   0.652   2.603  0.00  0.00    +0.310 A 
ENDBRANCH  15  16
ENDBRANCH   6  15
TORSDOF 6
