REMARK  Name = ZINCkj00000y7KtB.0
REMARK                            x       y       z     vdW  Elec       q    Type
REMARK                         _______ _______ _______ _____ _____    ______ ____
ROOT
ATOM      1  C   LIG    1       -1.026   3.468   2.723  0.00  0.00    +0.180 C 
ATOM      2  C   LIG    1       -1.090   5.010   2.755  0.00  0.00    +0.010 C 
ATOM      3  C   LIG    1       -0.466   5.357   4.132  0.00  0.00    +0.200 C 
ATOM      4  C   LIG    1        0.628   4.268   4.264  0.00  0.00    +0.190 C 
ATOM      5  F   LIG    1        0.100   6.637   4.118  0.00  0.00    -0.190 F 
ATOM      6  N   LIG    1        0.026   3.055   3.670  0.00  0.00    -0.500 NA
ENDROOT
BRANCH   1   7
ATOM      7  C   LIG    1       -0.674   2.991   1.313  0.00  0.00    +0.250 C 
BRANCH   7   8
ATOM      8  N   LIG    1       -1.819   3.216   0.420  0.00  0.00    -0.380 N 
ATOM      9  C   LIG    1       -2.027   4.660   0.245  0.00  0.00    +0.300 C 
ATOM     10  H   LIG    1       -2.646   2.803   0.824  0.00  0.00    +0.430 HD
BRANCH   8  11
ATOM     11  C   LIG    1       -1.550   2.599  -0.885  0.00  0.00    +0.440 C 
BRANCH  11  14
ATOM     12  C   LIG    1       -4.886   2.937  -3.276  0.00  0.00    +0.230 C 
ATOM     13  C   LIG    1       -3.694   2.816  -2.421  0.00  0.00    -0.040 C 
ATOM     14  C   LIG    1       -2.743   2.719  -1.740  0.00  0.00    -0.310 C 
ENDBRANCH  11  14
ENDBRANCH   8  11
ENDBRANCH   7   8
ENDBRANCH   1   7
BRANCH   6  15
ATOM     15  C   LIG    1        1.045   2.236   3.000  0.00  0.00    +0.250 C 
BRANCH  15  16
ATOM     16  C   LIG    1        2.153   1.919   3.971  0.00  0.00    -0.210 A 
ATOM     17  C   LIG    1        3.252   2.754   4.091  0.00  0.00    +0.320 A 
ATOM     18  N   LIG    1        4.203   2.446   4.959  0.00  0.00    -0.510 NA
ATOM     19  C   LIG    1        4.118   1.355   5.694  0.00  0.00    +0.510 A 
ATOM     20  N   LIG    1        3.091   0.535   5.602  0.00  0.00    -0.510 NA
ATOM     21  C   LIG    1        2.100   0.781   4.761  0.00  0.00    +0.350 A 
ENDBRANCH  15  16
ENDBRANCH   6  15
TORSDOF 6
