REMARK  Name = ZINCkj00000dE5SY.1
REMARK                            x       y       z     vdW  Elec       q    Type
REMARK                         _______ _______ _______ _____ _____    ______ ____
ROOT
ATOM      1  N   LIG    1       -2.365   3.981   0.045  0.00  0.00    -0.690 NA
ATOM      2  H   LIG    1       -2.417   4.950   0.050  0.00  0.00    +0.380 HD
ATOM      3  C   LIG    1       -1.188   3.382   0.031  0.00  0.00    +0.550 C 
ATOM      4  N   LIG    1       -0.085   4.150   0.024  0.00  0.00    -0.580 NA
ATOM      5  C   LIG    1        1.115   3.613   0.010  0.00  0.00    +0.490 A 
ATOM      6  N   LIG    1        2.401   4.091   0.001  0.00  0.00    -0.460 N 
ATOM      7  H   LIG    1        2.661   5.026   0.003  0.00  0.00    +0.470 HD
ATOM      8  N   LIG    1        3.272   2.994  -0.013  0.00  0.00    -0.410 N 
ATOM      9  H   LIG    1        4.241   3.054  -0.022  0.00  0.00    +0.480 HD
ATOM     10  C   LIG    1        2.571   1.846  -0.012  0.00  0.00    +0.530 A 
ATOM     11  C   LIG    1        1.226   2.146   0.002  0.00  0.00    -0.380 A 
ATOM     12  C   LIG    1       -0.017   1.372   0.010  0.00  0.00    +0.620 C 
ATOM     13  N   LIG    1       -1.159   2.041   0.018  0.00  0.00    -0.570 N 
ATOM     14  H   LIG    1       -1.996   1.550   0.020  0.00  0.00    +0.440 HD
ENDROOT
BRANCH  12  15
ATOM     15  N   LIG    1        0.002  -0.004   0.002  0.00  0.00    -0.650 NA
ATOM     16  H   LIG    1        0.849  -0.478  -0.009  0.00  0.00    +0.440 HD
BRANCH  15  17
ATOM     17  C   LIG    1       -1.256  -0.754   0.010  0.00  0.00    +0.350 C 
BRANCH  17  18
ATOM     18  C   LIG    1       -0.961  -2.232  -0.001  0.00  0.00    -0.160 A 
ATOM     19  C   LIG    1       -1.046  -2.945  -1.182  0.00  0.00    +0.070 A 
ATOM     20  C   LIG    1       -0.771  -4.300  -1.196  0.00  0.00    +0.040 A 
ATOM     21  C   LIG    1       -0.420  -4.947  -0.027  0.00  0.00    +0.060 A 
ATOM     22  C   LIG    1       -0.339  -4.237   1.161  0.00  0.00    +0.080 A 
ATOM     23  C   LIG    1       -0.610  -2.875   1.173  0.00  0.00    +0.090 A 
ATOM     24  F   LIG    1       -0.531  -2.179   2.328  0.00  0.00    -0.130 F 
BRANCH  22  25
ATOM     25  O   LIG    1        0.007  -4.873   2.312  0.00  0.00    -0.480 OA
ATOM     26  H   LIG    1       -0.745  -5.228   2.806  0.00  0.00    +0.400 HD
ENDBRANCH  22  25
ENDBRANCH  17  18
ENDBRANCH  15  17
ENDBRANCH  12  15
TORSDOF 4
