REMARK  Name = ZINCpk00000eaQq7.0
REMARK                            x       y       z     vdW  Elec       q    Type
REMARK                         _______ _______ _______ _____ _____    ______ ____
ROOT
ATOM      1  C   LIG    1        0.585  -0.664  -1.018  0.00  0.00    +0.520 C 
ATOM      2  N   LIG    1        0.002  -0.004   0.002  0.00  0.00    -0.730 N 
ATOM      3  H   LIG    1       -0.404  -0.499   0.731  0.00  0.00    +0.400 HD
ATOM      4  O   LIG    1        1.093  -0.046  -1.929  0.00  0.00    -0.530 OA
ENDROOT
BRANCH   1   5
ATOM      5  C   LIG    1        0.606  -2.171  -1.026  0.00  0.00    +0.050 C 
BRANCH   5   6
ATOM      6  C   LIG    1        1.322  -2.665  -2.285  0.00  0.00    +0.290 C 
BRANCH   6   8
ATOM      7  C   LIG    1        1.925  -4.790  -3.313  0.00  0.00    +0.540 C 
ATOM      8  N   LIG    1        1.341  -4.130  -2.293  0.00  0.00    -0.730 N 
ATOM      9  H   LIG    1        0.935  -4.624  -1.564  0.00  0.00    +0.400 HD
ATOM     10  O   LIG    1        2.433  -4.172  -4.224  0.00  0.00    -0.530 OA
BRANCH   7  14
ATOM     11  C   LIG    1        3.229  -6.096  -5.591  0.00  0.00    +0.070 C 
ATOM     12  C   LIG    1        2.624  -6.988  -4.506  0.00  0.00    -0.010 C 
ATOM     13  C   LIG    1        3.298  -6.986  -3.132  0.00  0.00    +0.050 C 
ATOM     14  C   LIG    1        1.945  -6.297  -3.321  0.00  0.00    -0.080 C 
ENDBRANCH   7  14
ENDBRANCH   6   8
ENDBRANCH   5   6
ENDBRANCH   1   5
BRANCH   2  15
ATOM     15  C   LIG    1       -0.018   1.461   0.010  0.00  0.00    +0.320 C 
BRANCH  15  16
ATOM     16  C   LIG    1       -0.723   1.947   1.250  0.00  0.00    -0.080 A 
ATOM     17  C   LIG    1       -0.004   2.180   2.407  0.00  0.00    +0.010 A 
ATOM     18  C   LIG    1       -0.647   2.627   3.547  0.00  0.00    +0.040 A 
ATOM     19  C   LIG    1       -2.011   2.841   3.532  0.00  0.00    -0.020 A 
ATOM     20  C   LIG    1       -2.737   2.607   2.372  0.00  0.00    +0.180 A 
ATOM     21  C   LIG    1       -2.087   2.164   1.228  0.00  0.00    +0.030 A 
BRANCH  20  22
ATOM     22  N   LIG    1       -4.120   2.823   2.354  0.00  0.00    -0.570 N 
ATOM     23  C   LIG    1       -4.927   3.295   3.489  0.00  0.00    +0.260 C 
ATOM     24  C   LIG    1       -6.358   3.354   2.923  0.00  0.00    +0.260 C 
ATOM     25  O   LIG    1       -6.210   2.914   1.542  0.00  0.00    -0.320 OA
ATOM     26  C   LIG    1       -4.923   2.639   1.297  0.00  0.00    +0.640 C 
ATOM     27  O   LIG    1       -4.521   2.254   0.217  0.00  0.00    -0.500 OA
ENDBRANCH  20  22
ENDBRANCH  15  16
ENDBRANCH   2  15
TORSDOF 7
