REMARK  Name = ZINCkj00000dDx3S.0
REMARK                            x       y       z     vdW  Elec       q    Type
REMARK                         _______ _______ _______ _____ _____    ______ ____
ROOT
ATOM      1  C   LIG    1       -2.475   1.336   0.022  0.00  0.00    +0.280 C 
ENDROOT
BRANCH   1   2
ATOM      2  N   LIG    1       -1.180   2.021   0.019  0.00  0.00    -0.690 NA
ATOM      3  H   LIG    1       -1.144   2.990   0.024  0.00  0.00    +0.440 HD
BRANCH   2   4
ATOM      4  C   LIG    1       -0.015   1.290   0.009  0.00  0.00    +0.720 C 
ATOM      5  N   LIG    1        0.002  -0.004   0.002  0.00  0.00    -0.650 NA
ATOM      6  C   LIG    1        1.391  -0.490  -0.014  0.00  0.00    +0.380 C 
ATOM      7  C   LIG    1        2.224   0.798  -0.015  0.00  0.00    +0.040 C 
ATOM      8  C   LIG    1        3.527   0.911  -0.792  0.00  0.00    +0.100 C 
ATOM      9  C   LIG    1        3.541   0.903   0.740  0.00  0.00    +0.100 C 
ATOM     10  H   LIG    1       -0.785  -0.571   0.006  0.00  0.00    +0.450 HD
ATOM     11  N   LIG    1        1.227   1.870   0.000  0.00  0.00    -0.660 NA
ATOM     12  H   LIG    1        1.412   2.822   0.004  0.00  0.00    +0.450 HD
ENDBRANCH   2   4
ENDBRANCH   1   2
BRANCH   1  13
ATOM     13  C   LIG    1       -3.600   2.372   0.033  0.00  0.00    +0.110 C 
BRANCH  13  16
ATOM     14  C   LIG    1       -6.763   0.690   1.240  0.00  0.00    +0.170 A 
ATOM     15  C   LIG    1       -5.536   1.338   1.235  0.00  0.00    -0.050 A 
ATOM     16  C   LIG    1       -4.932   1.667   0.036  0.00  0.00    -0.020 A 
ATOM     17  C   LIG    1       -5.551   1.355  -1.160  0.00  0.00    -0.050 A 
ATOM     18  C   LIG    1       -6.775   0.702  -1.159  0.00  0.00    +0.170 A 
ATOM     19  C   LIG    1       -7.383   0.371   0.042  0.00  0.00    -0.150 A 
BRANCH  14  21
ATOM     20  C   LIG    1       -8.618  -0.299   2.350  0.00  0.00    +0.250 C 
ATOM     21  O   LIG    1       -7.356   0.367   2.420  0.00  0.00    -0.310 OA
ENDBRANCH  14  21
BRANCH  18  22
ATOM     22  O   LIG    1       -7.380   0.392  -2.336  0.00  0.00    -0.310 OA
ATOM     23  C   LIG    1       -8.642  -0.275  -2.260  0.00  0.00    +0.250 C 
ENDBRANCH  18  22
ENDBRANCH  13  16
ENDBRANCH   1  13
TORSDOF 6
