REMARK  Name = ZINCqH0000004Bik.1
REMARK                            x       y       z     vdW  Elec       q    Type
REMARK                         _______ _______ _______ _____ _____    ______ ____
ROOT
ATOM      1  C   LIG    1        2.834  -2.603   8.606  0.00  0.00    +0.360 C 
ENDROOT
BRANCH   1   2
ATOM      2  N   LIG    1        3.808  -3.593   8.130  0.00  0.00    -0.530 NA
ATOM      3  C   LIG    1        5.004  -2.936   7.588  0.00  0.00    +0.170 C 
ATOM      4  C   LIG    1        5.930  -3.987   6.971  0.00  0.00    +0.040 C 
ATOM      5  C   LIG    1        6.326  -5.005   8.045  0.00  0.00    +0.070 C 
ATOM      6  C   LIG    1        5.060  -5.639   8.627  0.00  0.00    +0.030 C 
ATOM      7  C   LIG    1        4.159  -4.540   9.196  0.00  0.00    +0.200 C 
BRANCH   5   8
ATOM      8  C   LIG    1        7.190  -6.076   7.431  0.00  0.00    +0.100 A 
ATOM      9  C   LIG    1        8.543  -6.103   7.424  0.00  0.00    -0.120 A 
ATOM     10  C   LIG    1        8.946  -7.264   6.757  0.00  0.00    +0.080 A 
ATOM     11  N   LIG    1        7.874  -7.912   6.378  0.00  0.00    -0.290 NA
ATOM     12  C   LIG    1       10.370  -7.695   6.516  0.00  0.00    +0.150 C 
ATOM     13  N   LIG    1        6.753  -7.184   6.796  0.00  0.00    -0.470 N 
ATOM     14  H   LIG    1        5.826  -7.431   6.653  0.00  0.00    +0.440 HD
ENDBRANCH   5   8
ENDBRANCH   1   2
BRANCH   1  18
ATOM     15  C   LIG    1        2.056  -0.328   5.934  0.00  0.00    +0.220 A 
ATOM     16  N   LIG    1        3.026   0.283   6.562  0.00  0.00    -0.370 NA
ATOM     17  O   LIG    1        3.396  -0.383   7.506  0.00  0.00    +0.080 OA
ATOM     18  C   LIG    1        2.683  -1.512   7.577  0.00  0.00    +0.180 A 
ATOM     19  N   LIG    1        1.824  -1.488   6.588  0.00  0.00    -0.450 NA
BRANCH  15  23
ATOM     20  C   LIG    1        0.000   1.080   2.488  0.00  0.00    -0.060 A 
ATOM     21  C   LIG    1       -0.350  -0.134   3.050  0.00  0.00    +0.010 A 
ATOM     22  C   LIG    1        0.319  -0.599   4.165  0.00  0.00    +0.070 A 
ATOM     23  C   LIG    1        1.339   0.163   4.731  0.00  0.00    -0.030 A 
ATOM     24  C   LIG    1        1.683   1.388   4.163  0.00  0.00    +0.050 A 
ATOM     25  C   LIG    1        1.012   1.840   3.045  0.00  0.00    +0.010 A 
BRANCH  20  27
ATOM     26  C   LIG    1       -0.013   1.086   0.008  0.00  0.00    +0.030 C 
ATOM     27  C   LIG    1       -0.729   1.579   1.267  0.00  0.00    +0.070 C 
ENDBRANCH  20  27
ENDBRANCH  15  23
ENDBRANCH   1  18
TORSDOF 5
