REMARK  Name = ZINCqH0000004Bik.0
REMARK                            x       y       z     vdW  Elec       q    Type
REMARK                         _______ _______ _______ _____ _____    ______ ____
ROOT
ATOM      1  C   LIG    1       -2.840   1.453  -2.452  0.00  0.00    +0.350 C 
ENDROOT
BRANCH   1   2
ATOM      2  N   LIG    1       -2.138   1.101  -1.210  0.00  0.00    -0.540 NA
ATOM      3  C   LIG    1       -0.754   1.594  -1.231  0.00  0.00    +0.190 C 
ATOM      4  C   LIG    1       -0.013   1.086   0.008  0.00  0.00    +0.050 C 
ATOM      5  C   LIG    1       -0.731   1.580   1.267  0.00  0.00    +0.070 C 
ATOM      6  C   LIG    1       -2.184   1.095   1.239  0.00  0.00    +0.050 C 
ATOM      7  C   LIG    1       -2.862   1.602  -0.035  0.00  0.00    +0.170 C 
BRANCH   5   8
ATOM      8  C   LIG    1       -0.039   1.034   2.489  0.00  0.00    +0.090 A 
ATOM      9  N   LIG    1        0.883   1.646   3.186  0.00  0.00    -0.290 NA
ATOM     10  N   LIG    1        1.265   0.806   4.240  0.00  0.00    -0.480 N 
ATOM     11  H   LIG    1        1.930   1.006   4.917  0.00  0.00    +0.440 HD
ATOM     12  C   LIG    1        0.546  -0.332   4.145  0.00  0.00    +0.090 A 
ATOM     13  C   LIG    1        0.635  -1.519   5.069  0.00  0.00    +0.140 C 
ATOM     14  C   LIG    1       -0.268  -0.217   3.070  0.00  0.00    -0.120 A 
ENDBRANCH   5   8
ENDBRANCH   1   2
BRANCH   1  18
ATOM     15  C   LIG    1       -6.202   0.191  -2.307  0.00  0.00    +0.210 A 
ATOM     16  N   LIG    1       -5.556  -0.772  -2.912  0.00  0.00    -0.370 NA
ATOM     17  O   LIG    1       -4.386  -0.477  -3.032  0.00  0.00    +0.090 OA
ATOM     18  C   LIG    1       -4.161   0.730  -2.503  0.00  0.00    +0.200 A 
ATOM     19  N   LIG    1       -5.305   1.165  -2.035  0.00  0.00    -0.470 NA
BRANCH  15  23
ATOM     20  C   LIG    1      -10.347   0.240  -1.358  0.00  0.00    -0.060 A 
ATOM     21  C   LIG    1       -9.802  -0.854  -2.005  0.00  0.00    +0.010 A 
ATOM     22  C   LIG    1       -8.457  -0.875  -2.315  0.00  0.00    +0.050 A 
ATOM     23  C   LIG    1       -7.649   0.208  -1.976  0.00  0.00    -0.030 A 
ATOM     24  C   LIG    1       -8.203   1.306  -1.320  0.00  0.00    +0.060 A 
ATOM     25  C   LIG    1       -9.550   1.318  -1.018  0.00  0.00    +0.010 A 
BRANCH  20  27
ATOM     26  C   LIG    1      -12.028  -0.348   0.368  0.00  0.00    +0.030 C 
ATOM     27  C   LIG    1      -11.816   0.258  -1.021  0.00  0.00    +0.070 C 
ENDBRANCH  20  27
ENDBRANCH  15  23
ENDBRANCH   1  18
TORSDOF 5
