REMARK  Name = ZINCvU0000000GvR.0
REMARK                            x       y       z     vdW  Elec       q    Type
REMARK                         _______ _______ _______ _____ _____    ______ ____
ROOT
ATOM      1  O   LIG    1        3.481  -1.529   1.248  0.00  0.00    -0.470 OA
ATOM      2  C   LIG    1        2.603  -0.724   0.984  0.00  0.00    +0.540 A 
ATOM      3  N   LIG    1        1.368  -1.141   0.661  0.00  0.00    -0.540 NA
ATOM      4  C   LIG    1        0.417  -0.294   0.377  0.00  0.00    +0.440 A 
ATOM      5  N   LIG    1        0.606   1.035   0.388  0.00  0.00    -0.590 N 
ATOM      6  H   LIG    1       -0.132   1.623   0.165  0.00  0.00    +0.420 HD
ATOM      7  C   LIG    1        1.833   1.577   0.705  0.00  0.00    +0.060 A 
ATOM      8  S   LIG    1        2.370   3.247   0.800  0.00  0.00    +0.180 S 
ATOM      9  C   LIG    1        3.995   2.773   1.257  0.00  0.00    -0.040 A 
ATOM     10  C   LIG    1        4.104   1.447   1.327  0.00  0.00    +0.010 A 
ATOM     11  C   LIG    1        2.878   0.726   1.015  0.00  0.00    -0.220 A 
ENDROOT
BRANCH  10  12
ATOM     12  C   LIG    1        5.369   0.763   1.690  0.00  0.00    -0.050 A 
ATOM     13  C   LIG    1        5.374  -0.217   2.682  0.00  0.00    +0.100 A 
ATOM     14  C   LIG    1        6.551  -0.854   3.013  0.00  0.00    -0.010 A 
ATOM     15  C   LIG    1        7.730  -0.514   2.370  0.00  0.00    +0.110 A 
ATOM     16  C   LIG    1        7.731   0.462   1.387  0.00  0.00    -0.020 A 
ATOM     17  F   LIG    1        8.883  -1.137   2.701  0.00  0.00    -0.140 F 
ATOM     18  C   LIG    1        6.557   1.101   1.045  0.00  0.00    +0.060 A 
ENDBRANCH  10  12
BRANCH   4  19
ATOM     19  C   LIG    1       -0.946  -0.828   0.023  0.00  0.00    +0.300 C 
BRANCH  19  20
ATOM     20  N   LIG    1       -0.925  -2.296   0.073  0.00  0.00    -0.510 NA
BRANCH  20  21
ATOM     21  C   LIG    1       -2.288  -2.841   0.127  0.00  0.00    +0.210 C 
BRANCH  21  22
ATOM     22  C   LIG    1       -2.842  -2.690   1.545  0.00  0.00    +0.160 C 
ATOM     23  C   LIG    1       -4.216  -3.386   1.662  0.00  0.00    +0.010 C 
ATOM     24  C   LIG    1       -5.028  -2.459   2.595  0.00  0.00    -0.010 C 
ATOM     25  C   LIG    1       -4.048  -1.313   2.931  0.00  0.00    +0.200 C 
ATOM     26  O   LIG    1       -3.107  -1.300   1.836  0.00  0.00    -0.380 OA
ENDBRANCH  21  22
ENDBRANCH  20  21
BRANCH  20  27
ATOM     27  C   LIG    1       -0.181  -2.851  -1.066  0.00  0.00    +0.270 C 
BRANCH  27  28
ATOM     28  C   LIG    1        0.158  -4.293  -0.789  0.00  0.00    -0.170 A 
ATOM     29  C   LIG    1       -0.547  -5.344  -1.212  0.00  0.00    -0.020 A 
ATOM     30  C   LIG    1       -0.042  -6.576  -0.835  0.00  0.00    -0.010 A 
ATOM     31  C   LIG    1        1.075  -6.526  -0.106  0.00  0.00    -0.070 A 
ATOM     32  S   LIG    1        1.549  -4.849   0.133  0.00  0.00    +0.170 S 
ENDBRANCH  27  28
ENDBRANCH  20  27
ENDBRANCH  19  20
ENDBRANCH   4  19
TORSDOF 7
