REMARK  Name = ZINCnE000001Paqz.1
REMARK                            x       y       z     vdW  Elec       q    Type
REMARK                         _______ _______ _______ _____ _____    ______ ____
ROOT
ATOM      1  S   LIG    1        1.940   4.790   0.010  0.00  0.00    +0.060 S 
ENDROOT
BRANCH   1   2
ATOM      2  C   LIG    1        0.829   3.423   0.013  0.00  0.00    +0.150 A 
ATOM      3  N   LIG    1       -0.484   3.486   0.025  0.00  0.00    -0.250 NA
ATOM      4  N   LIG    1       -0.987   2.302   0.019  0.00  0.00    -0.250 NA
ATOM      5  C   LIG    1       -0.017   1.406   0.010  0.00  0.00    +0.180 A 
ATOM      6  C   LIG    1        0.002  -0.004   0.002  0.00  0.00    +0.020 A 
ATOM      7  C   LIG    1        1.198  -0.652  -0.013  0.00  0.00    +0.090 A 
ATOM      8  C   LIG    1        2.396   0.087  -0.020  0.00  0.00    -0.060 A 
ATOM      9  C   LIG    1        2.366   1.436  -0.013  0.00  0.00    +0.290 A 
ATOM     10 CL   LIG    1        3.921  -0.742  -0.039  0.00  0.00    -0.020 Cl
ATOM     11 CL   LIG    1       -1.484  -0.902   0.011  0.00  0.00    -0.010 Cl
ATOM     12  N   LIG    1        1.172   2.103   0.002  0.00  0.00    -0.380 N 
ENDBRANCH   1   2
BRANCH   1  13
ATOM     13  C   LIG    1        0.826   6.221   0.028  0.00  0.00    +0.060 C 
ATOM     14  C   LIG    1        0.019   6.256  -1.272  0.00  0.00    +0.080 C 
BRANCH  13  16
ATOM     15  N   LIG    1        1.077   8.595   0.678  0.00  0.00    -0.660 NA
ATOM     16  C   LIG    1        1.635   7.487   0.151  0.00  0.00    +0.470 C 
ATOM     17  O   LIG    1        2.788   7.508  -0.224  0.00  0.00    -0.600 OA
BRANCH  15  22
ATOM     18  C   LIG    1        2.631  13.234   1.600  0.00  0.00    +0.140 C 
ATOM     19  C   LIG    1        2.532  11.789   1.185  0.00  0.00    +0.010 A 
ATOM     20  N   LIG    1        3.474  11.065   0.650  0.00  0.00    -0.420 NA
ATOM     21  O   LIG    1        3.102   9.936   0.429  0.00  0.00    +0.040 OA
ATOM     22  C   LIG    1        1.822   9.759   0.792  0.00  0.00    +0.260 A 
ATOM     23  C   LIG    1        1.401  10.955   1.301  0.00  0.00    -0.190 A 
ENDBRANCH  15  22
ENDBRANCH  13  16
ENDBRANCH   1  13
TORSDOF 4
