REMARK  Name = ZINCqH0000034eSM.0
REMARK                            x       y       z     vdW  Elec       q    Type
REMARK                         _______ _______ _______ _____ _____    ______ ____
ROOT
ATOM      1  N   LIG    1        0.002  -0.004   0.002  0.00  0.00    -0.680 N 
ATOM      2  H   LIG    1       -0.835  -0.493  -0.039  0.00  0.00    +0.410 HD
ATOM      3  C   LIG    1       -0.006   1.333   0.176  0.00  0.00    +0.710 C 
ATOM      4  N   LIG    1       -1.174   2.005   0.179  0.00  0.00    -0.730 N 
ATOM      5  H   LIG    1       -2.009   1.526   0.057  0.00  0.00    +0.400 HD
ATOM      6  O   LIG    1        1.041   1.933   0.324  0.00  0.00    -0.560 OA
ENDROOT
BRANCH   4   7
ATOM      7  C   LIG    1       -1.183   3.457   0.368  0.00  0.00    +0.330 C 
ATOM      8  C   LIG    1       -2.442   4.030  -0.263  0.00  0.00    +0.080 C 
ATOM      9  C   LIG    1       -2.457   5.559  -0.128  0.00  0.00    -0.390 C 
ATOM     10  S   LIG    1       -2.780   5.943   1.624  0.00  0.00    +2.510 S 
ATOM     11  C   LIG    1       -1.728   4.787   2.459  0.00  0.00    -0.760 A 
ATOM     12  S   LIG    1       -1.355   4.806   4.175  0.00  0.00    +0.230 S 
ATOM     13  C   LIG    1       -0.345   3.379   4.003  0.00  0.00    -0.010 A 
ATOM     14  C   LIG    1       -0.339   2.989   2.734  0.00  0.00    +0.010 A 
ATOM     15  O   LIG    1       -4.098   5.560   1.991  0.00  0.00    -0.920 OA
ATOM     16  O   LIG    1       -2.257   7.219   1.967  0.00  0.00    -0.920 OA
ATOM     17  C   LIG    1       -1.101   6.132  -0.545  0.00  0.00    +0.100 C 
ATOM     18  C   LIG    1       -1.098   3.762   1.852  0.00  0.00    +0.000 A 
ENDBRANCH   4   7
BRANCH   1  22
ATOM     19  C   LIG    1        3.627  -2.033  -0.362  0.00  0.00    -0.130 A 
ATOM     20  C   LIG    1        3.502  -0.747  -0.852  0.00  0.00    +0.070 A 
ATOM     21  C   LIG    1        2.300  -0.075  -0.737  0.00  0.00    -0.010 A 
ATOM     22  C   LIG    1        1.218  -0.687  -0.119  0.00  0.00    +0.200 A 
ATOM     23  C   LIG    1        1.341  -1.978   0.374  0.00  0.00    -0.100 A 
ATOM     24  C   LIG    1        2.547  -2.651   0.252  0.00  0.00    +0.150 A 
BRANCH  19  26
ATOM     25  C   LIG    1        4.910  -3.637  -1.752  0.00  0.00    +0.030 C 
ATOM     26  C   LIG    1        4.938  -2.765  -0.495  0.00  0.00    +0.070 C 
ENDBRANCH  19  26
BRANCH  24  27
ATOM     27  O   LIG    1        2.671  -3.916   0.733  0.00  0.00    -0.310 OA
ATOM     28  C   LIG    1        1.518  -4.491   1.352  0.00  0.00    +0.230 C 
ENDBRANCH  24  27
ENDBRANCH   1  22
TORSDOF 4
