REMARK  Name = ZINCqH0000004BEh.0
REMARK                            x       y       z     vdW  Elec       q    Type
REMARK                         _______ _______ _______ _____ _____    ______ ____
ROOT
ATOM      1  C   LIG    1        2.203   3.940  -0.031  0.00  0.00    +0.570 C 
ATOM      2  N   LIG    1        3.388   3.299  -0.047  0.00  0.00    -0.550 N 
ATOM      3  C   LIG    1        3.558   1.844  -0.137  0.00  0.00    +0.310 C 
ATOM      4  C   LIG    1        5.071   1.625  -0.125  0.00  0.00    -0.060 C 
ATOM      5  C   LIG    1        5.674   2.999  -0.015  0.00  0.00    -0.120 A 
ATOM      6  C   LIG    1        6.988   3.421   0.044  0.00  0.00    +0.040 A 
ATOM      7  C   LIG    1        7.283   4.768   0.143  0.00  0.00    -0.010 A 
ATOM      8  C   LIG    1        6.259   5.695   0.183  0.00  0.00    +0.040 A 
ATOM      9  C   LIG    1        4.945   5.280   0.124  0.00  0.00    +0.010 A 
ATOM     10  C   LIG    1        5.580   0.590   0.878  0.00  0.00    +0.040 C 
ATOM     11  C   LIG    1        5.476  -0.440  -0.262  0.00  0.00    +0.020 C 
ATOM     12  C   LIG    1        5.627   0.740  -1.240  0.00  0.00    +0.040 C 
ATOM     13  C   LIG    1        4.638   3.923   0.024  0.00  0.00    +0.140 A 
ATOM     14  O   LIG    1        2.168   5.155  -0.053  0.00  0.00    -0.500 OA
ENDROOT
BRANCH   1  18
ATOM     15  C   LIG    1       -1.413   1.715   0.094  0.00  0.00    +0.040 A 
ATOM     16  C   LIG    1       -0.207   1.060  -0.081  0.00  0.00    +0.000 A 
ATOM     17  C   LIG    1        0.971   1.777  -0.124  0.00  0.00    +0.100 A 
ATOM     18  C   LIG    1        0.945   3.165   0.015  0.00  0.00    -0.160 A 
ATOM     19  C   LIG    1       -0.275   3.820   0.197  0.00  0.00    +0.200 A 
ATOM     20  C   LIG    1       -1.446   3.091   0.238  0.00  0.00    -0.670 A 
BRANCH  20  21
ATOM     21  S   LIG    1       -2.986   3.914   0.466  0.00  0.00    +2.500 S 
ATOM     22  O   LIG    1       -3.832   3.360  -0.532  0.00  0.00    -0.920 OA
ATOM     23  O   LIG    1       -2.650   5.295   0.457  0.00  0.00    -0.930 OA
ATOM     24  C   LIG    1       -3.532   3.403   2.119  0.00  0.00    -0.250 C 
ENDBRANCH  20  21
BRANCH  15  26
ATOM     25  C   LIG    1       -3.248   0.778  -1.285  0.00  0.00    +0.060 C 
ATOM     26  C   LIG    1       -2.696   0.926   0.134  0.00  0.00    +0.050 C 
ENDBRANCH  15  26
ENDBRANCH   1  18
TORSDOF 3
