REMARK  Name = ZINCrH000004mUsv.0
REMARK                            x       y       z     vdW  Elec       q    Type
REMARK                         _______ _______ _______ _____ _____    ______ ____
ROOT
ATOM      1  C   LIG    1       -2.960   9.722   4.293  0.00  0.00    +0.090 A 
ATOM      2  C   LIG    1       -3.269   9.913   5.629  0.00  0.00    -0.030 A 
ATOM      3  C   LIG    1       -4.133   9.043   6.267  0.00  0.00    -0.050 A 
ATOM      4  C   LIG    1       -4.688   7.986   5.566  0.00  0.00    +0.120 A 
ATOM      5  C   LIG    1       -4.379   7.793   4.223  0.00  0.00    -0.070 A 
ATOM      6  C   LIG    1       -5.013   6.634   3.498  0.00  0.00    +0.240 C 
ATOM      7  C   LIG    1       -4.253   6.348   2.203  0.00  0.00    +0.170 C 
ATOM      8  N   LIG    1       -4.105   7.611   1.461  0.00  0.00    -0.510 NA
ATOM      9  C   LIG    1       -3.145   8.488   2.137  0.00  0.00    +0.250 C 
ATOM     10  C   LIG    1       -3.515   8.658   3.587  0.00  0.00    -0.060 A 
ENDROOT
BRANCH   1  12
ATOM     11  C   LIG    1       -1.575  11.648   4.448  0.00  0.00    +0.240 C 
ATOM     12  O   LIG    1       -2.110  10.578   3.667  0.00  0.00    -0.320 OA
ENDBRANCH   1  12
BRANCH   6  13
ATOM     13  O   LIG    1       -4.978   5.476   4.335  0.00  0.00    -0.550 OA
ATOM     14  H   LIG    1       -5.370   4.688   3.933  0.00  0.00    +0.380 HD
ENDBRANCH   6  13
BRANCH   4  15
ATOM     15  O   LIG    1       -5.538   7.130   6.194  0.00  0.00    -0.290 OA
ATOM     16  C   LIG    1       -5.813   7.384   7.573  0.00  0.00    +0.230 C 
ENDBRANCH   4  15
BRANCH   8  17
ATOM     17  C   LIG    1       -3.701   7.359   0.071  0.00  0.00    +0.340 C 
BRANCH  17  18
ATOM     18  C   LIG    1       -2.419   6.568   0.056  0.00  0.00    -0.040 A 
ATOM     19  C   LIG    1       -1.174   7.077   0.047  0.00  0.00    -0.030 A 
ATOM     20  O   LIG    1       -0.315   6.037   0.040  0.00  0.00    -0.190 OA
ATOM     21  C   LIG    1       -1.042   4.905   0.036  0.00  0.00    +0.260 A 
ATOM     22  C   LIG    1       -0.807   8.538   0.051  0.00  0.00    +0.190 C 
ATOM     23  N   LIG    1       -2.317   5.229   0.049  0.00  0.00    -0.460 NA
BRANCH  21  24
ATOM     24  C   LIG    1       -0.504   3.537   0.024  0.00  0.00    -0.140 A 
ATOM     25  C   LIG    1        0.819   3.212   0.011  0.00  0.00    +0.060 A 
ATOM     26  C   LIG    1        1.072   1.858   0.002  0.00  0.00    +0.010 A 
ATOM     27  C   LIG    1       -0.013   1.076   0.008  0.00  0.00    -0.040 A 
ATOM     28  S   LIG    1       -1.466   2.065   0.019  0.00  0.00    +0.210 S 
ENDBRANCH  21  24
ENDBRANCH  17  18
ENDBRANCH   8  17
TORSDOF 6
