REMARK  Name = ZINCqH0000037ML2.0
REMARK                            x       y       z     vdW  Elec       q    Type
REMARK                         _______ _______ _______ _____ _____    ______ ____
ROOT
ATOM      1  C   LIG    1       -2.874   7.258  -1.354  0.00  0.00    +0.520 C 
ATOM      2  N   LIG    1       -3.615   8.360  -1.588  0.00  0.00    -0.620 N 
ATOM      3  H   LIG    1       -3.959   8.880  -0.845  0.00  0.00    +0.430 HD
ATOM      4  O   LIG    1       -2.444   6.609  -2.283  0.00  0.00    -0.490 OA
ENDROOT
BRANCH   2   5
ATOM      5  C   LIG    1       -3.886   8.751  -2.893  0.00  0.00    +0.280 A 
ATOM      6  N   LIG    1       -4.585   9.788  -3.234  0.00  0.00    -0.490 NA
ATOM      7  C   LIG    1       -4.739  10.008  -4.539  0.00  0.00    +0.160 A 
ATOM      8  C   LIG    1       -4.142   9.112  -5.347  0.00  0.00    -0.110 A 
ATOM      9  S   LIG    1       -3.327   7.918  -4.340  0.00  0.00    +0.220 S 
BRANCH   7  10
ATOM     10  C   LIG    1       -5.512  11.156  -5.062  0.00  0.00    -0.120 A 
ATOM     11  C   LIG    1       -6.136  12.082  -4.308  0.00  0.00    +0.060 A 
ATOM     12  C   LIG    1       -6.792  13.063  -5.026  0.00  0.00    +0.030 A 
ATOM     13  C   LIG    1       -6.716  12.939  -6.354  0.00  0.00    -0.150 A 
ATOM     14 CL   LIG    1       -7.447  14.017  -7.502  0.00  0.00    -0.010 Cl
ATOM     15  S   LIG    1       -5.764  11.518  -6.764  0.00  0.00    +0.180 S 
ENDBRANCH   7  10
ENDBRANCH   2   5
BRANCH   1  16
ATOM     16  C   LIG    1       -2.581   6.834   0.062  0.00  0.00    +0.240 C 
BRANCH  16  24
ATOM     17  C   LIG    1        2.434   4.369   0.001  0.00  0.00    +0.160 C 
ATOM     18  C   LIG    1        1.154   3.574   0.010  0.00  0.00    +0.210 A 
ATOM     19  C   LIG    1        1.187   2.216   0.003  0.00  0.00    -0.040 A 
ATOM     20  C   LIG    1       -0.018   1.503   0.010  0.00  0.00    +0.240 A 
ATOM     21  N   LIG    1       -1.166   2.141   0.019  0.00  0.00    -0.460 NA
ATOM     22  C   LIG    1       -1.208   3.478   0.031  0.00  0.00    +0.460 A 
ATOM     23  N   LIG    1       -2.215   4.345   0.046  0.00  0.00    -0.510 NA
ATOM     24  C   LIG    1       -1.741   5.583   0.048  0.00  0.00    +0.290 A 
ATOM     25  N   LIG    1       -0.430   5.553   0.035  0.00  0.00    -0.320 NA
ATOM     26  C   LIG    1        0.002  -0.004   0.002  0.00  0.00    +0.170 C 
ATOM     27  N   LIG    1       -0.051   4.204   0.024  0.00  0.00    -0.330 N 
ENDBRANCH  16  24
ENDBRANCH   1  16
TORSDOF 4
