REMARK  Name = ZINCpe00000RbwaK.0
REMARK                            x       y       z     vdW  Elec       q    Type
REMARK                         _______ _______ _______ _____ _____    ______ ____
ROOT
ATOM      1  C   LIG    1        0.198   1.078   2.302  0.00  0.00    +0.150 C 
ATOM      2  C   LIG    1       -1.006   0.992   3.276  0.00  0.00    +0.060 C 
ATOM      3  C   LIG    1       -0.343   1.155   4.661  0.00  0.00    +0.230 C 
ATOM      4  N   LIG    1        0.946   1.831   4.451  0.00  0.00    -0.610 N 
ATOM      5  C   LIG    1        1.837   2.138   5.414  0.00  0.00    +0.530 C 
ATOM      6  O   LIG    1        1.565   1.939   6.579  0.00  0.00    -0.530 OA
ATOM      7  C   LIG    1        1.101   2.117   3.013  0.00  0.00    +0.240 C 
ENDROOT
BRANCH   1   9
ATOM      8  C   LIG    1        0.617   1.110  -0.058  0.00  0.00    +0.210 C 
ATOM      9  O   LIG    1       -0.214   1.551   1.018  0.00  0.00    -0.370 OA
ENDBRANCH   1   9
BRANCH   5  10
ATOM     10  C   LIG    1        3.172   2.730   5.043  0.00  0.00    +0.070 C 
BRANCH  10  11
ATOM     11  C   LIG    1        3.988   2.984   6.312  0.00  0.00    +0.130 C 
BRANCH  11  12
ATOM     12  C   LIG    1        5.324   3.576   5.942  0.00  0.00    +0.180 A 
ATOM     13  C   LIG    1        5.736   4.779   6.492  0.00  0.00    -0.080 A 
ATOM     14  C   LIG    1        6.974   5.282   6.125  0.00  0.00    +0.330 A 
ATOM     15  N   LIG    1        7.712   4.607   5.259  0.00  0.00    -0.520 NA
ATOM     16  C   LIG    1        7.285   3.467   4.752  0.00  0.00    +0.320 A 
ATOM     17  C   LIG    1        8.157   2.730   3.769  0.00  0.00    +0.180 C 
ATOM     18  N   LIG    1        6.116   2.956   5.082  0.00  0.00    -0.520 NA
ENDBRANCH  11  12
ENDBRANCH  10  11
ENDBRANCH   5  10
BRANCH   3  19
ATOM     19  C   LIG    1       -0.113  -0.220   5.291  0.00  0.00    +0.320 C 
BRANCH  19  20
ATOM     20  N   LIG    1       -1.405  -0.833   5.611  0.00  0.00    -0.370 N 
ATOM     21  C   LIG    1       -1.837  -2.038   5.184  0.00  0.00    +0.250 A 
ATOM     22  C   LIG    1       -3.072  -2.241   5.698  0.00  0.00    -0.160 A 
ATOM     23  C   LIG    1       -3.412  -1.113   6.462  0.00  0.00    +0.340 A 
ATOM     24  N   LIG    1       -2.409  -0.269   6.408  0.00  0.00    -0.350 NA
BRANCH  23  25
ATOM     25  N   LIG    1       -4.611  -0.922   7.158  0.00  0.00    -0.850 N 
ATOM     26  H   LIG    1       -5.297  -1.607   7.138  0.00  0.00    +0.410 HD
ATOM     27  H   LIG    1       -4.755  -0.105   7.661  0.00  0.00    +0.400 HD
ENDBRANCH  23  25
ENDBRANCH  19  20
ENDBRANCH   3  19
TORSDOF 7
