REMARK  Name = ZINCrD000000fv0o.0
REMARK                            x       y       z     vdW  Elec       q    Type
REMARK                         _______ _______ _______ _____ _____    ______ ____
ROOT
ATOM      1  S   LIG    1       -2.120  -0.896  -1.250  0.00  0.00    +0.050 S 
ENDROOT
BRANCH   1   3
ATOM      2  N   LIG    1       -4.362  -2.213  -2.280  0.00  0.00    -0.450 N 
ATOM      3  C   LIG    1       -3.575  -1.889  -1.213  0.00  0.00    +0.160 A 
ATOM      4  N   LIG    1       -4.103  -2.461  -0.152  0.00  0.00    -0.280 NA
ATOM      5  N   LIG    1       -5.164  -3.108  -0.481  0.00  0.00    -0.250 NA
ATOM      6  C   LIG    1       -5.373  -2.997  -1.773  0.00  0.00    +0.220 A 
BRANCH   6   7
ATOM      7  C   LIG    1       -6.484  -3.600  -2.538  0.00  0.00    +0.030 A 
ATOM      8  C   LIG    1       -6.406  -3.745  -3.928  0.00  0.00    -0.030 A 
ATOM      9  C   LIG    1       -7.463  -4.319  -4.601  0.00  0.00    +0.270 A 
ATOM     10  N   LIG    1       -8.542  -4.719  -3.954  0.00  0.00    -0.480 NA
ATOM     11  C   LIG    1       -8.659  -4.596  -2.645  0.00  0.00    +0.280 A 
ATOM     12  C   LIG    1       -7.647  -4.039  -1.892  0.00  0.00    +0.020 A 
ENDBRANCH   6   7
BRANCH   2  13
ATOM     13  C   LIG    1       -4.169  -1.810  -3.675  0.00  0.00    +0.340 C 
BRANCH  13  15
ATOM     14  C   LIG    1       -3.542  -3.363  -5.452  0.00  0.00    +0.080 C 
ATOM     15  C   LIG    1       -3.203  -2.756  -4.342  0.00  0.00    -0.060 C 
ENDBRANCH  13  15
ENDBRANCH   2  13
ENDBRANCH   1   3
BRANCH   1  16
ATOM     16  C   LIG    1       -1.670  -0.934   0.503  0.00  0.00    +0.220 C 
BRANCH  16  17
ATOM     17  C   LIG    1       -0.415  -0.126   0.716  0.00  0.00    +0.380 A 
ATOM     18  N   LIG    1        0.744  -0.733   0.621  0.00  0.00    -0.530 NA
ATOM     19  C   LIG    1        1.885  -0.051   0.804  0.00  0.00    +0.190 A 
ATOM     20  C   LIG    1        3.140  -0.667   0.709  0.00  0.00    +0.030 A 
ATOM     21  C   LIG    1        4.269   0.073   0.903  0.00  0.00    +0.070 A 
ATOM     22  C   LIG    1        4.194   1.432   1.195  0.00  0.00    +0.000 A 
ATOM     23  C   LIG    1        2.989   2.062   1.294  0.00  0.00    +0.060 A 
ATOM     24  C   LIG    1        1.812   1.331   1.101  0.00  0.00    -0.200 A 
ATOM     25  C   LIG    1        0.531   1.929   1.190  0.00  0.00    +0.480 A 
ATOM     26  N   LIG    1       -0.533   1.163   0.992  0.00  0.00    -0.590 NA
BRANCH  25  27
ATOM     27  N   LIG    1        0.394   3.271   1.476  0.00  0.00    -0.820 N 
ATOM     28  H   LIG    1        1.181   3.819   1.619  0.00  0.00    +0.410 HD
ATOM     29  H   LIG    1       -0.490   3.667   1.534  0.00  0.00    +0.410 HD
ENDBRANCH  25  27
ENDBRANCH  16  17
ENDBRANCH   1  16
TORSDOF 7
