REMARK  Name = ZINCvU0000000Icp.0
REMARK                            x       y       z     vdW  Elec       q    Type
REMARK                         _______ _______ _______ _____ _____    ______ ____
ROOT
ATOM      1  C   LIG    1       -3.561  -4.884  -0.198  0.00  0.00    -0.380 A 
ATOM      2  C   LIG    1       -3.648  -6.234  -0.316  0.00  0.00    +0.320 A 
ATOM      3  C   LIG    1       -5.006  -6.734  -0.395  0.00  0.00    -0.150 A 
ATOM      4  C   LIG    1       -5.474  -8.074  -0.511  0.00  0.00    +0.080 A 
ATOM      5  C   LIG    1       -6.854  -8.307  -0.572  0.00  0.00    -0.100 A 
ATOM      6  C   LIG    1       -7.716  -7.239  -0.538  0.00  0.00    +0.200 A 
ATOM      7  N   LIG    1       -7.252  -6.003  -0.426  0.00  0.00    -0.460 NA
ATOM      8  C   LIG    1       -9.211  -7.402  -0.652  0.00  0.00    +0.110 C 
ATOM      9  C   LIG    1       -9.726  -8.450   0.337  0.00  0.00    +0.030 C 
ATOM     10  C   LIG    1       -9.771  -9.794  -0.385  0.00  0.00    +0.010 C 
ATOM     11  C   LIG    1       -8.633  -9.870  -1.404  0.00  0.00    +0.020 C 
ATOM     12  C   LIG    1       -7.307  -9.744  -0.656  0.00  0.00    +0.100 C 
ATOM     13  C   LIG    1       -5.955  -5.709  -0.348  0.00  0.00    +0.110 A 
ATOM     14  S   LIG    1       -5.153  -4.151  -0.190  0.00  0.00    +0.180 S 
ENDROOT
BRANCH   4  15
ATOM     15  C   LIG    1       -4.522  -9.197  -0.568  0.00  0.00    +0.000 A 
ATOM     16  C   LIG    1       -3.619  -9.431  -1.561  0.00  0.00    -0.020 A 
ATOM     17  C   LIG    1       -2.923 -10.601  -1.208  0.00  0.00    -0.050 A 
ATOM     18  C   LIG    1       -3.427 -11.022  -0.029  0.00  0.00    +0.190 A 
ATOM     19  O   LIG    1       -4.389 -10.169   0.356  0.00  0.00    -0.160 OA
ENDBRANCH   4  15
BRANCH   1  22
ATOM     20  N   LIG    1       -2.365  -2.821   0.010  0.00  0.00    -0.670 N 
ATOM     21  H   LIG    1       -3.211  -2.354   0.098  0.00  0.00    +0.410 HD
ATOM     22  C   LIG    1       -2.346  -4.164  -0.099  0.00  0.00    +0.610 C 
ATOM     23  O   LIG    1       -1.283  -4.759  -0.113  0.00  0.00    -0.530 OA
BRANCH  20  28
ATOM     24  C   LIG    1        1.089  -1.830  -0.779  0.00  0.00    +0.150 A 
ATOM     25  C   LIG    1        1.207  -0.672  -0.023  0.00  0.00    -0.090 A 
ATOM     26  C   LIG    1        0.139  -0.227   0.733  0.00  0.00    +0.070 A 
ATOM     27  C   LIG    1       -1.045  -0.938   0.747  0.00  0.00    -0.050 A 
ATOM     28  C   LIG    1       -1.167  -2.101  -0.004  0.00  0.00    +0.190 A 
ATOM     29  C   LIG    1       -0.097  -2.547  -0.768  0.00  0.00    -0.010 A 
BRANCH  24  31
ATOM     30  C   LIG    1        3.330  -1.475  -1.491  0.00  0.00    +0.250 C 
ATOM     31  O   LIG    1        2.138  -2.263  -1.527  0.00  0.00    -0.320 OA
ENDBRANCH  24  31
ENDBRANCH  20  28
ENDBRANCH   1  22
BRANCH   2  32
ATOM     32  N   LIG    1       -2.534  -7.063  -0.355  0.00  0.00    -0.820 N 
ATOM     33  H   LIG    1       -2.646  -8.023  -0.441  0.00  0.00    +0.400 HD
ATOM     34  H   LIG    1       -1.644  -6.682  -0.296  0.00  0.00    +0.420 HD
ENDBRANCH   2  32
TORSDOF 5
