REMARK  Name = ZINCvU0000000Dys.0
REMARK                            x       y       z     vdW  Elec       q    Type
REMARK                         _______ _______ _______ _____ _____    ______ ____
ROOT
ATOM      1  N   LIG    1       -4.008   3.918  -2.747  0.00  0.00    -0.490 N 
ATOM      2  C   LIG    1       -5.215   3.292  -3.027  0.00  0.00    +0.120 A 
ATOM      3  C   LIG    1       -6.540   3.678  -2.878  0.00  0.00    +0.030 A 
ATOM      4  C   LIG    1       -7.553   2.820  -3.256  0.00  0.00    +0.050 A 
ATOM      5  C   LIG    1       -7.253   1.575  -3.783  0.00  0.00    +0.020 A 
ATOM      6  C   LIG    1       -5.938   1.181  -3.936  0.00  0.00    +0.060 A 
ATOM      7  C   LIG    1       -4.912   2.036  -3.559  0.00  0.00    +0.100 A 
ATOM      8  N   LIG    1       -3.523   1.923  -3.592  0.00  0.00    -0.320 N 
ATOM      9  N   LIG    1       -2.474   1.065  -3.946  0.00  0.00    -0.290 NA
ATOM     10  C   LIG    1       -1.335   1.651  -3.698  0.00  0.00    +0.150 A 
ATOM     11  C   LIG    1       -1.603   2.927  -3.155  0.00  0.00    -0.340 A 
ATOM     12  C   LIG    1        0.031   1.063  -3.941  0.00  0.00    +0.170 C 
ATOM     13  C   LIG    1       -2.993   3.064  -3.105  0.00  0.00    +0.340 A 
ENDROOT
BRANCH  11  14
ATOM     14  C   LIG    1       -0.610   3.920  -2.726  0.00  0.00    +0.470 C 
ATOM     15  O   LIG    1       -0.258   3.966  -1.559  0.00  0.00    -0.440 OA
BRANCH  14  16
ATOM     16  C   LIG    1       -0.042   4.855  -3.698  0.00  0.00    -0.090 C 
ATOM     17  C   LIG    1        0.949   5.695  -3.329  0.00  0.00    +0.130 C 
BRANCH  17  18
ATOM     18  C   LIG    1        1.519   6.633  -4.305  0.00  0.00    -0.060 A 
ATOM     19  C   LIG    1        1.038   6.659  -5.620  0.00  0.00    +0.020 A 
ATOM     20  C   LIG    1        1.576   7.541  -6.532  0.00  0.00    +0.050 A 
ATOM     21  C   LIG    1        2.591   8.405  -6.156  0.00  0.00    -0.050 A 
ATOM     22  C   LIG    1        3.078   8.392  -4.858  0.00  0.00    +0.110 A 
ATOM     23  C   LIG    1        2.544   7.512  -3.924  0.00  0.00    +0.090 A 
BRANCH  23  24
ATOM     24  O   LIG    1        3.014   7.500  -2.650  0.00  0.00    -0.320 OA
ATOM     25  C   LIG    1        4.108   6.624  -2.371  0.00  0.00    +0.230 C 
ENDBRANCH  23  24
BRANCH  22  26
ATOM     26  O   LIG    1        4.075   9.243  -4.498  0.00  0.00    -0.300 OA
BRANCH  26  27
ATOM     27  C   LIG    1        4.574  10.123  -5.507  0.00  0.00    +0.170 C 
ATOM     28  C   LIG    1        5.682  10.998  -4.919  0.00  0.00    +0.070 C 
ENDBRANCH  26  27
ENDBRANCH  22  26
ENDBRANCH  17  18
ENDBRANCH  14  16
ENDBRANCH  11  14
BRANCH   1  29
ATOM     29  C   LIG    1       -3.845   5.257  -2.175  0.00  0.00    +0.350 C 
BRANCH  29  31
ATOM     30  C   LIG    1       -2.789   5.660  -0.011  0.00  0.00    +0.070 C 
ATOM     31  C   LIG    1       -3.803   5.160  -0.672  0.00  0.00    -0.080 C 
ENDBRANCH  29  31
ENDBRANCH   1  29
TORSDOF 8
