REMARK  Name = ZINCc70000002kIp.0
REMARK                            x       y       z     vdW  Elec       q    Type
REMARK                         _______ _______ _______ _____ _____    ______ ____
ROOT
ATOM      1  C   LIG    1        3.542   0.555  -0.034  0.00  0.00    +0.200 C 
ATOM      2  C   LIG    1        2.036   0.607  -0.017  0.00  0.00    +0.180 A 
ATOM      3  N   LIG    1        1.223  -0.417  -0.014  0.00  0.00    -0.300 NA
ATOM      4  N   LIG    1        0.002  -0.004   0.002  0.00  0.00    -0.290 NA
ATOM      5  C   LIG    1       -0.015   1.294   0.009  0.00  0.00    +0.180 A 
ATOM      6  C   LIG    1       -1.208   2.217   0.020  0.00  0.00    +0.170 C 
ATOM      7  C   LIG    1       -0.730   3.621  -0.372  0.00  0.00    +0.050 C 
ATOM      8  C   LIG    1        0.509   3.985   0.451  0.00  0.00    -0.010 C 
ATOM      9  C   LIG    1        1.693   3.119   0.006  0.00  0.00    +0.300 C 
ATOM     10  N   LIG    1        1.274   1.718  -0.001  0.00  0.00    -0.470 N 
ENDROOT
BRANCH   8  11
ATOM     11  C   LIG    1        0.848   5.461   0.235  0.00  0.00    +0.190 C 
BRANCH  11  12
ATOM     12  O   LIG    1       -0.206   6.273   0.756  0.00  0.00    -0.570 OA
ATOM     13  H   LIG    1       -0.058   7.223   0.653  0.00  0.00    +0.390 HD
ENDBRANCH  11  12
ENDBRANCH   8  11
TORSDOF 2
