REMARK  Name = ZINCrH000004nYFc.0
REMARK                            x       y       z     vdW  Elec       q    Type
REMARK                         _______ _______ _______ _____ _____    ______ ____
ROOT
ATOM      1  C   LIG    1       -0.098  -0.147  -0.194  0.00  0.00    +0.200 A 
ATOM      2  N   LIG    1        1.057  -0.801  -0.216  0.00  0.00    -0.510 NA
ATOM      3  C   LIG    1        1.093  -2.120  -0.062  0.00  0.00    +0.440 A 
ATOM      4  N   LIG    1       -0.013  -2.839   0.121  0.00  0.00    -0.510 NA
ATOM      5  C   LIG    1       -1.200  -2.265   0.157  0.00  0.00    +0.240 A 
ATOM      6  C   LIG    1       -2.442  -3.094   0.365  0.00  0.00    +0.170 C 
ATOM      7  C   LIG    1       -1.292  -0.877   0.004  0.00  0.00    -0.240 A 
ENDROOT
BRANCH   3   8
ATOM      8  C   LIG    1        2.395  -2.808  -0.094  0.00  0.00    +0.010 A 
ATOM      9  C   LIG    1        3.608  -2.216  -0.277  0.00  0.00    +0.040 A 
ATOM     10  C   LIG    1        4.570  -3.241  -0.233  0.00  0.00    -0.060 A 
ATOM     11  C   LIG    1        3.905  -4.399  -0.037  0.00  0.00    +0.210 A 
ATOM     12  O   LIG    1        2.593  -4.134   0.047  0.00  0.00    -0.150 OA
ENDBRANCH   3   8
BRANCH   7  13
ATOM     13  C   LIG    1       -2.596  -0.197   0.043  0.00  0.00    +0.580 C 
ATOM     14  N   LIG    1       -3.087   0.253   1.215  0.00  0.00    -0.660 N 
ATOM     15  H   LIG    1       -2.618   0.062   2.042  0.00  0.00    +0.410 HD
ATOM     16  O   LIG    1       -3.231  -0.041  -0.983  0.00  0.00    -0.490 OA
BRANCH  14  17
ATOM     17  C   LIG    1       -4.273   0.996   1.238  0.00  0.00    +0.150 A 
ATOM     18  C   LIG    1       -4.581   1.846   0.184  0.00  0.00    +0.040 A 
ATOM     19  C   LIG    1       -5.754   2.576   0.204  0.00  0.00    +0.050 A 
ATOM     20  C   LIG    1       -6.621   2.472   1.281  0.00  0.00    +0.040 A 
ATOM     21  O   LIG    1       -7.768   3.207   1.287  0.00  0.00    -0.310 OA
ATOM     22  C   LIG    1       -8.790   2.796   2.202  0.00  0.00    +0.220 C 
ATOM     23  C   LIG    1       -8.137   2.534   3.566  0.00  0.00    +0.220 C 
ATOM     24  O   LIG    1       -7.155   1.506   3.403  0.00  0.00    -0.310 OA
ATOM     25  C   LIG    1       -6.314   1.625   2.340  0.00  0.00    +0.070 A 
ATOM     26  C   LIG    1       -5.139   0.888   2.317  0.00  0.00    +0.000 A 
ENDBRANCH  14  17
ENDBRANCH   7  13
BRANCH   1  28
ATOM     27  C   LIG    1        1.627   1.940  -0.594  0.00  0.00    +0.170 C 
ATOM     28  S   LIG    1       -0.141   1.603  -0.399  0.00  0.00    -0.010 S 
ENDBRANCH   1  28
TORSDOF 4
