REMARK  Name = ZINCvU0000000DZa.0
REMARK                            x       y       z     vdW  Elec       q    Type
REMARK                         _______ _______ _______ _____ _____    ______ ____
ROOT
ATOM      1  C   LIG    1       -1.271   5.606   0.699  0.00  0.00    -0.210 A 
ATOM      2  C   LIG    1       -2.292   6.459   0.473  0.00  0.00    +0.260 A 
ATOM      3  N   LIG    1       -3.208   5.820  -0.301  0.00  0.00    -0.310 N 
ATOM      4  N   LIG    1       -2.729   4.530  -0.564  0.00  0.00    -0.250 NA
ATOM      5  C   LIG    1       -1.565   4.393   0.041  0.00  0.00    +0.170 A 
ENDROOT
BRANCH   1  12
ATOM      6  C   LIG    1        0.436   9.719   1.087  0.00  0.00    +0.120 C 
ATOM      7  C   LIG    1        0.287   8.261   0.737  0.00  0.00    +0.550 C 
ATOM      8  N   LIG    1        0.123   7.346   1.712  0.00  0.00    -0.470 N 
ATOM      9  N   LIG    1        0.072   7.614   3.082  0.00  0.00    -0.230 NA
ATOM     10  C   LIG    1       -0.091   6.570   3.818  0.00  0.00    +0.140 C 
ATOM     11  C   LIG    1       -0.181   5.342   2.941  0.00  0.00    +0.090 C 
ATOM     12  C   LIG    1       -0.034   5.897   1.510  0.00  0.00    +0.300 C 
ATOM     13  O   LIG    1        0.315   7.911  -0.425  0.00  0.00    -0.510 OA
BRANCH  10  14
ATOM     14  C   LIG    1       -0.176   6.572   5.291  0.00  0.00    -0.020 A 
ATOM     15  C   LIG    1       -0.079   7.772   5.998  0.00  0.00    +0.060 A 
ATOM     16  C   LIG    1       -0.160   7.767   7.375  0.00  0.00    +0.030 A 
ATOM     17  C   LIG    1       -0.337   6.577   8.057  0.00  0.00    +0.050 A 
ATOM     18  C   LIG    1       -0.434   5.382   7.363  0.00  0.00    -0.040 A 
ATOM     19 CL   LIG    1       -0.656   3.893   8.228  0.00  0.00    -0.060 Cl
ATOM     20  C   LIG    1       -0.360   5.373   5.984  0.00  0.00    +0.060 A 
ENDBRANCH  10  14
ENDBRANCH   1  12
BRANCH   3  21
ATOM     21  C   LIG    1       -4.417   6.358  -0.760  0.00  0.00    +0.160 A 
ATOM     22  C   LIG    1       -4.772   7.658  -0.424  0.00  0.00    -0.010 A 
ATOM     23  C   LIG    1       -5.962   8.187  -0.883  0.00  0.00    +0.050 A 
ATOM     24  C   LIG    1       -6.805   7.421  -1.667  0.00  0.00    +0.000 A 
ATOM     25  C   LIG    1       -6.457   6.124  -1.999  0.00  0.00    +0.040 A 
ATOM     26  C   LIG    1       -5.265   5.591  -1.548  0.00  0.00    +0.020 A 
ENDBRANCH   3  21
BRANCH   5  27
ATOM     27  C   LIG    1       -0.715   3.184   0.026  0.00  0.00    +0.040 A 
ATOM     28  C   LIG    1       -1.157   1.899   0.017  0.00  0.00    -0.010 A 
ATOM     29  C   LIG    1       -0.013   1.076   0.008  0.00  0.00    -0.050 A 
ATOM     30  C   LIG    1        1.060   1.891   0.002  0.00  0.00    +0.190 A 
ATOM     31  O   LIG    1        0.631   3.165   0.013  0.00  0.00    -0.170 OA
ENDBRANCH   5  27
TORSDOF 4
