REMARK  Name = ZINCpk00000y6xU4.0
REMARK                            x       y       z     vdW  Elec       q    Type
REMARK                         _______ _______ _______ _____ _____    ______ ____
ROOT
ATOM      1  C   LIG    1       -1.204  -0.907   0.009  0.00  0.00    +0.240 C 
ATOM      2  O   LIG    1       -2.240  -0.313   0.794  0.00  0.00    -0.360 OA
ATOM      3  C   LIG    1       -3.427  -1.103   0.888  0.00  0.00    +0.210 C 
ATOM      4  C   LIG    1       -4.014  -1.309  -0.510  0.00  0.00    +0.010 C 
ATOM      5  C   LIG    1       -2.963  -1.975  -1.404  0.00  0.00    +0.020 C 
ATOM      6  C   LIG    1       -1.702  -1.105  -1.425  0.00  0.00    +0.220 C 
ENDROOT
BRANCH   1   9
ATOM      7  N   LIG    1        2.067   0.704  -0.014  0.00  0.00    -0.370 N 
ATOM      8  C   LIG    1        1.295  -0.403  -0.013  0.00  0.00    +0.240 A 
ATOM      9  C   LIG    1        0.002  -0.004   0.002  0.00  0.00    -0.240 A 
ATOM     10  C   LIG    1       -0.017   1.395   0.010  0.00  0.00    +0.260 A 
ATOM     11  N   LIG    1        1.220   1.820   0.000  0.00  0.00    -0.290 NA
BRANCH   7  13
ATOM     12  C   LIG    1        4.014   1.577  -1.210  0.00  0.00    +0.040 C 
ATOM     13  C   LIG    1        3.532   0.734  -0.028  0.00  0.00    +0.310 C 
ENDBRANCH   7  13
ENDBRANCH   1   9
BRANCH   6  14
ATOM     14  N   LIG    1       -0.663  -1.769  -2.217  0.00  0.00    -0.700 N 
ATOM     15  H   LIG    1        0.001  -2.322  -1.778  0.00  0.00    +0.410 HD
ATOM     16  C   LIG    1       -0.631  -1.610  -3.555  0.00  0.00    +0.590 C 
ATOM     17  O   LIG    1       -1.464  -0.915  -4.104  0.00  0.00    -0.530 OA
BRANCH  16  18
ATOM     18  C   LIG    1        0.417  -2.279  -4.354  0.00  0.00    -0.060 A 
ATOM     19  C   LIG    1        0.447  -2.119  -5.738  0.00  0.00    +0.360 A 
ATOM     20  N   LIG    1        1.387  -2.712  -6.451  0.00  0.00    -0.510 NA
ATOM     21  C   LIG    1        2.296  -3.470  -5.850  0.00  0.00    +0.370 A 
ATOM     22  C   LIG    1        2.263  -3.635  -4.461  0.00  0.00    +0.160 A 
ATOM     23  N   LIG    1        1.330  -3.040  -3.751  0.00  0.00    -0.380 NA
BRANCH  21  24
ATOM     24  N   LIG    1        3.278  -4.098  -6.597  0.00  0.00    -0.600 N 
ATOM     25  C   LIG    1        3.381  -3.839  -8.036  0.00  0.00    +0.310 C 
ATOM     26  C   LIG    1        4.214  -5.021  -5.950  0.00  0.00    +0.310 C 
ENDBRANCH  21  24
ENDBRANCH  16  18
ENDBRANCH   6  14
TORSDOF 5
