REMARK  Name = ZINCrH000004pipP.0
REMARK                            x       y       z     vdW  Elec       q    Type
REMARK                         _______ _______ _______ _____ _____    ______ ____
ROOT
ATOM      1  N   LIG    1       -0.830  -4.244  -0.990  0.00  0.00    -0.740 N 
ATOM      2  H   LIG    1        0.102  -4.169  -1.251  0.00  0.00    +0.410 HD
ATOM      3  C   LIG    1       -1.608  -5.199  -1.536  0.00  0.00    +0.520 C 
ATOM      4  O   LIG    1       -2.773  -5.292  -1.210  0.00  0.00    -0.520 OA
ENDROOT
BRANCH   1   6
ATOM      5  C   LIG    1       -1.329  -3.956   1.387  0.00  0.00    +0.080 C 
ATOM      6  C   LIG    1       -1.390  -3.318  -0.003  0.00  0.00    +0.370 C 
BRANCH   6   7
ATOM      7  C   LIG    1       -0.593  -2.039  -0.004  0.00  0.00    +0.180 A 
ATOM      8  N   LIG    1       -1.075  -0.822   0.008  0.00  0.00    -0.460 NA
ATOM      9  C   LIG    1        0.002  -0.004   0.002  0.00  0.00    +0.220 A 
ATOM     10  N   LIG    1        1.065  -0.766  -0.018  0.00  0.00    -0.370 NA
ATOM     11  O   LIG    1        0.740  -1.935  -0.016  0.00  0.00    +0.090 OA
BRANCH   9  12
ATOM     12  C   LIG    1       -0.018   1.480   0.010  0.00  0.00    -0.040 A 
ATOM     13  C   LIG    1       -1.233   2.162   0.020  0.00  0.00    +0.110 A 
ATOM     14  C   LIG    1       -1.247   3.541   0.032  0.00  0.00    -0.010 A 
ATOM     15  C   LIG    1       -0.056   4.248   0.024  0.00  0.00    +0.120 A 
ATOM     16  C   LIG    1        1.155   3.574   0.010  0.00  0.00    -0.010 A 
ATOM     17  F   LIG    1       -0.074   5.599   0.031  0.00  0.00    -0.130 F 
ATOM     18  C   LIG    1        1.178   2.195   0.003  0.00  0.00    +0.090 A 
ENDBRANCH   9  12
ENDBRANCH   6   7
ENDBRANCH   1   6
BRANCH   3  19
ATOM     19  C   LIG    1       -1.032  -6.151  -2.552  0.00  0.00    +0.150 C 
BRANCH  19  20
ATOM     20  C   LIG    1       -2.101  -7.113  -3.003  0.00  0.00    -0.160 A 
ATOM     21  C   LIG    1       -2.331  -8.339  -2.509  0.00  0.00    +0.240 A 
ATOM     22  N   LIG    1       -3.384  -8.917  -3.166  0.00  0.00    -0.590 N 
ATOM     23  H   LIG    1       -3.735  -9.802  -2.984  0.00  0.00    +0.420 HD
ATOM     24  C   LIG    1       -3.869  -8.054  -4.122  0.00  0.00    +0.090 A 
ATOM     25  C   LIG    1       -4.903  -8.134  -5.048  0.00  0.00    -0.010 A 
ATOM     26  C   LIG    1       -5.150  -7.074  -5.893  0.00  0.00    +0.020 A 
ATOM     27  C   LIG    1       -4.375  -5.924  -5.830  0.00  0.00    -0.020 A 
ATOM     28  C   LIG    1       -3.354  -5.824  -4.928  0.00  0.00    +0.050 A 
ATOM     29  C   LIG    1       -3.091  -6.883  -4.058  0.00  0.00    -0.090 A 
ENDBRANCH  19  20
ENDBRANCH   3  19
TORSDOF 5
