REMARK  Name = ZINCrH000004rkJL.0
REMARK                            x       y       z     vdW  Elec       q    Type
REMARK                         _______ _______ _______ _____ _____    ______ ____
ROOT
ATOM      1  N   LIG    1        6.866   4.303   1.343  0.00  0.00    -0.550 N 
ATOM      2  C   LIG    1        6.423   4.445   2.593  0.00  0.00    +0.540 C 
ATOM      3  C   LIG    1        4.968   4.556   2.949  0.00  0.00    +0.080 C 
ATOM      4  C   LIG    1        4.154   4.919   1.704  0.00  0.00    +0.070 C 
ATOM      5  C   LIG    1        4.561   3.975   0.566  0.00  0.00    +0.000 C 
ATOM      6  O   LIG    1        7.238   4.488   3.490  0.00  0.00    -0.530 OA
ATOM      7  C   LIG    1        6.004   4.283   0.164  0.00  0.00    +0.350 C 
ENDROOT
BRANCH   1  12
ATOM      8  C   LIG    1       12.456   3.737   0.554  0.00  0.00    +0.100 C 
ATOM      9  C   LIG    1       10.971   3.887   0.763  0.00  0.00    -0.080 A 
ATOM     10  C   LIG    1       10.311   4.991   0.255  0.00  0.00    +0.010 A 
ATOM     11  C   LIG    1        8.950   5.132   0.445  0.00  0.00    +0.010 A 
ATOM     12  C   LIG    1        8.245   4.163   1.148  0.00  0.00    +0.130 A 
ATOM     13  C   LIG    1        8.912   3.059   1.662  0.00  0.00    +0.040 A 
ATOM     14  C   LIG    1       10.272   2.921   1.464  0.00  0.00    +0.010 A 
ENDBRANCH   1  12
BRANCH   7  15
ATOM     15  C   LIG    1        6.489   3.228  -0.797  0.00  0.00    -0.230 A 
ATOM     16  C   LIG    1        6.530   3.356  -2.124  0.00  0.00    +0.030 A 
ATOM     17  C   LIG    1        7.018   2.252  -2.802  0.00  0.00    +0.000 A 
ATOM     18  C   LIG    1        7.365   1.224  -2.026  0.00  0.00    -0.070 A 
ATOM     19  S   LIG    1        7.081   1.636  -0.340  0.00  0.00    +0.190 S 
ENDBRANCH   7  15
BRANCH   5  20
ATOM     20  C   LIG    1        4.461   2.546   1.034  0.00  0.00    +0.510 C 
ATOM     21  N   LIG    1        3.428   1.778   0.636  0.00  0.00    -0.630 N 
ATOM     22  H   LIG    1        2.749   2.144   0.048  0.00  0.00    +0.420 HD
ATOM     23  O   LIG    1        5.310   2.088   1.769  0.00  0.00    -0.450 OA
BRANCH  21  24
ATOM     24  C   LIG    1        3.336   0.467   1.065  0.00  0.00    +0.400 C 
ATOM     25  N   LIG    1        4.177  -0.115   1.840  0.00  0.00    -0.510 NA
ATOM     26  C   LIG    1        3.972  -1.495   2.219  0.00  0.00    +0.250 C 
ATOM     27  C   LIG    1        2.694  -2.063   1.583  0.00  0.00    +0.110 C 
ATOM     28  S   LIG    1        2.043  -0.655   0.626  0.00  0.00    -0.190 S 
ENDBRANCH  21  24
ENDBRANCH   5  20
TORSDOF 4
