REMARK  Name = ZINCqH0000007aTV.0
REMARK                            x       y       z     vdW  Elec       q    Type
REMARK                         _______ _______ _______ _____ _____    ______ ____
ROOT
ATOM      1  C   LIG    1       -4.081   5.011  -0.965  0.00  0.00    +0.290 C 
ENDROOT
BRANCH   1   2
ATOM      2  C   LIG    1       -3.525   6.374  -0.643  0.00  0.00    +0.450 A 
ATOM      3  N   LIG    1       -2.249   6.578  -0.814  0.00  0.00    -0.550 NA
ATOM      4  C   LIG    1       -1.679   7.769  -0.549  0.00  0.00    +0.530 A 
ATOM      5  C   LIG    1       -2.541   8.855  -0.053  0.00  0.00    -0.210 A 
ATOM      6  C   LIG    1       -2.040  10.120   0.248  0.00  0.00    +0.140 A 
ATOM      7  C   LIG    1       -2.888  11.091   0.705  0.00  0.00    +0.010 A 
ATOM      8  C   LIG    1       -4.241  10.827   0.872  0.00  0.00    +0.020 A 
ATOM      9  C   LIG    1       -4.757   9.579   0.579  0.00  0.00    -0.010 A 
ATOM     10 CL   LIG    1       -5.295  12.077   1.454  0.00  0.00    -0.050 Cl
ATOM     11  C   LIG    1       -3.912   8.582   0.114  0.00  0.00    +0.190 A 
ATOM     12  O   LIG    1       -0.484   7.943  -0.715  0.00  0.00    -0.470 OA
ATOM     13  N   LIG    1       -4.373   7.319  -0.199  0.00  0.00    -0.630 N 
ATOM     14  H   LIG    1       -5.315   7.110  -0.095  0.00  0.00    +0.420 HD
ENDBRANCH   1   2
BRANCH   1  15
ATOM     15  N   LIG    1       -2.979   4.102  -1.307  0.00  0.00    -0.480 NA
BRANCH  15  16
ATOM     16  C   LIG    1       -3.470   2.939  -2.059  0.00  0.00    +0.090 C 
ATOM     17  C   LIG    1       -2.703   2.540  -3.322  0.00  0.00    +0.040 C 
ATOM     18  C   LIG    1       -4.080   3.197  -3.439  0.00  0.00    +0.020 C 
ENDBRANCH  15  16
BRANCH  15  19
ATOM     19  C   LIG    1       -2.251   3.680  -0.102  0.00  0.00    +0.240 C 
BRANCH  19  23
ATOM     20  C   LIG    1        1.318   1.625  -1.241  0.00  0.00    +0.130 A 
ATOM     21  C   LIG    1        0.138   0.919  -1.058  0.00  0.00    -0.030 A 
ATOM     22  C   LIG    1       -1.016   1.586  -0.695  0.00  0.00    +0.050 A 
ATOM     23  C   LIG    1       -0.993   2.955  -0.504  0.00  0.00    -0.110 A 
ATOM     24  C   LIG    1        0.182   3.661  -0.686  0.00  0.00    +0.080 A 
ATOM     25  C   LIG    1        1.337   2.999  -1.054  0.00  0.00    -0.080 A 
BRANCH  20  27
ATOM     26  C   LIG    1        3.631   1.762  -1.775  0.00  0.00    +0.250 C 
ATOM     27  O   LIG    1        2.453   0.971  -1.604  0.00  0.00    -0.320 OA
ENDBRANCH  20  27
ENDBRANCH  19  23
ENDBRANCH  15  19
ENDBRANCH   1  15
TORSDOF 6
