REMARK  Name = ZINCpk000000oEn8.0
REMARK                            x       y       z     vdW  Elec       q    Type
REMARK                         _______ _______ _______ _____ _____    ______ ____
ROOT
ATOM      1  N   LIG    1        0.043  -1.987   1.434  0.00  0.00    -0.730 N 
ATOM      2  H   LIG    1        0.041  -2.467   0.591  0.00  0.00    +0.400 HD
ATOM      3  C   LIG    1        0.063  -2.667   2.597  0.00  0.00    +0.530 C 
ATOM      4  O   LIG    1        0.065  -2.066   3.651  0.00  0.00    -0.530 OA
ENDROOT
BRANCH   3   5
ATOM      5  C   LIG    1        0.083  -4.173   2.589  0.00  0.00    +0.000 C 
ATOM      6  C   LIG    1        1.421  -4.706   2.023  0.00  0.00    +0.080 C 
ATOM      7  C   LIG    1        1.715  -5.932   2.859  0.00  0.00    +0.520 C 
ATOM      8  N   LIG    1        0.961  -5.925   3.972  0.00  0.00    -0.620 N 
ATOM      9  O   LIG    1        2.515  -6.795   2.568  0.00  0.00    -0.510 OA
ATOM     10  C   LIG    1        0.105  -4.734   4.028  0.00  0.00    +0.290 C 
BRANCH   8  11
ATOM     11  C   LIG    1        0.991  -6.971   4.997  0.00  0.00    +0.320 C 
BRANCH  11  12
ATOM     12  C   LIG    1       -0.038  -8.050   4.655  0.00  0.00    +0.150 C 
BRANCH  12  13
ATOM     13  O   LIG    1        0.340  -8.700   3.440  0.00  0.00    -0.380 OA
ATOM     14  C   LIG    1       -0.560  -9.731   3.029  0.00  0.00    +0.200 C 
ENDBRANCH  12  13
ENDBRANCH  11  12
ENDBRANCH   8  11
ENDBRANCH   3   5
BRANCH   1  15
ATOM     15  C   LIG    1        0.023  -0.522   1.442  0.00  0.00    +0.240 C 
BRANCH  15  16
ATOM     16  C   LIG    1        0.002  -0.004   0.002  0.00  0.00    +0.270 C 
BRANCH  16  17
ATOM     17  N   LIG    1       -0.018   1.461   0.010  0.00  0.00    -0.620 N 
BRANCH  17  18
ATOM     18  C   LIG    1       -1.237   2.143   0.020  0.00  0.00    +0.220 A 
ATOM     19  C   LIG    1       -2.431   1.433   0.016  0.00  0.00    -0.080 A 
ATOM     20  C   LIG    1       -3.635   2.111   0.029  0.00  0.00    +0.050 A 
ATOM     21  C   LIG    1       -3.652   3.493   0.037  0.00  0.00    -0.060 A 
ATOM     22  C   LIG    1       -2.464   4.203   0.036  0.00  0.00    -0.040 A 
ATOM     23  C   LIG    1       -2.488   5.710   0.044  0.00  0.00    +0.090 C 
ATOM     24  C   LIG    1       -1.257   3.532   0.027  0.00  0.00    -0.070 A 
ENDBRANCH  17  18
BRANCH  17  26
ATOM     25  C   LIG    1        1.665   2.479  -1.443  0.00  0.00    +0.020 C 
ATOM     26  C   LIG    1        1.241   2.211   0.002  0.00  0.00    +0.270 C 
ENDBRANCH  17  26
ENDBRANCH  16  17
ENDBRANCH  15  16
ENDBRANCH   1  15
TORSDOF 9
