REMARK  Name = ZINCpk00000KfLDA.1
REMARK                            x       y       z     vdW  Elec       q    Type
REMARK                         _______ _______ _______ _____ _____    ______ ____
ROOT
ATOM      1  N   LIG    1       -2.691   1.258  -0.810  0.00  0.00    -0.460 N 
ATOM      2  C   LIG    1       -1.264   1.092  -1.121  0.00  0.00    +0.230 C 
ATOM      3  C   LIG    1       -0.529   0.592   0.125  0.00  0.00    +0.270 C 
ATOM      4  N   LIG    1       -0.700   1.560   1.216  0.00  0.00    -0.390 N 
ATOM      5  C   LIG    1       -2.128   1.696   1.532  0.00  0.00    +0.290 C 
ATOM      6  H   LIG    1       -0.331   2.455   0.933  0.00  0.00    +0.420 HD
ATOM      7  C   LIG    1       -2.877   2.206   0.298  0.00  0.00    +0.150 C 
ATOM      8  C   LIG    1       -4.367   2.329   0.621  0.00  0.00    +0.080 C 
ENDROOT
BRANCH   4   9
ATOM      9  C   LIG    1        0.021   1.088   2.406  0.00  0.00    +0.180 C 
ATOM     10  C   LIG    1        1.485   1.526   2.328  0.00  0.00    +0.070 C 
ATOM     11  C   LIG    1        1.604   2.885   1.662  0.00  0.00    +0.010 C 
ATOM     12  C   LIG    1        1.000   4.019   2.470  0.00  0.00    +0.030 C 
ATOM     13  C   LIG    1       -0.520   3.873   2.562  0.00  0.00    +0.260 C 
ATOM     14  N   LIG    1       -0.841   3.004   3.706  0.00  0.00    -0.570 N 
ATOM     15  C   LIG    1       -0.600   1.690   3.649  0.00  0.00    +0.500 C 
ATOM     16  O   LIG    1       -0.872   0.980   4.594  0.00  0.00    -0.490 OA
BRANCH  14  17
ATOM     17  C   LIG    1       -1.433   3.582   4.916  0.00  0.00    +0.210 C 
BRANCH  17  18
ATOM     18  C   LIG    1       -2.935   3.561   4.799  0.00  0.00    +0.490 C 
ATOM     19  O   LIG    1       -3.623   3.999   5.705  0.00  0.00    -0.670 OA
ATOM     20  O   LIG    1       -3.462   3.105   3.799  0.00  0.00    -0.690 OA
ENDBRANCH  17  18
ENDBRANCH  14  17
ENDBRANCH   4   9
BRANCH   1  25
ATOM     21  C   LIG    1       -3.728   4.131  -4.591  0.00  0.00    +0.160 C 
ATOM     22  C   LIG    1       -3.917   2.946  -3.679  0.00  0.00    +0.070 A 
ATOM     23  C   LIG    1       -4.887   2.049  -3.855  0.00  0.00    -0.080 A 
ATOM     24  S   LIG    1       -4.752   0.840  -2.581  0.00  0.00    +0.200 S 
ATOM     25  C   LIG    1       -3.400   1.660  -1.931  0.00  0.00    +0.190 A 
ATOM     26  N   LIG    1       -3.138   2.716  -2.637  0.00  0.00    -0.490 NA
ENDBRANCH   1  25
TORSDOF 4
