REMARK  Name = ZINCpk00000KfLDA.2
REMARK                            x       y       z     vdW  Elec       q    Type
REMARK                         _______ _______ _______ _____ _____    ______ ____
ROOT
ATOM      1  N   LIG    1       -0.943   4.800  -0.066  0.00  0.00    -0.450 N 
ATOM      2  C   LIG    1       -0.338   5.597  -1.143  0.00  0.00    +0.240 C 
ATOM      3  C   LIG    1       -0.937   7.005  -1.129  0.00  0.00    +0.290 C 
ATOM      4  N   LIG    1       -0.680   7.635   0.173  0.00  0.00    -0.370 N 
ATOM      5  C   LIG    1       -1.311   6.841   1.236  0.00  0.00    +0.280 C 
ATOM      6  H   LIG    1        0.316   7.680   0.334  0.00  0.00    +0.420 HD
ATOM      7  C   LIG    1       -0.715   5.431   1.242  0.00  0.00    +0.200 C 
ATOM      8  C   LIG    1        0.788   5.513   1.513  0.00  0.00    +0.040 C 
ENDROOT
BRANCH   4   9
ATOM      9  C   LIG    1       -1.239   8.993   0.179  0.00  0.00    +0.160 C 
ATOM     10  C   LIG    1       -0.964   9.656   1.531  0.00  0.00    +0.050 C 
ATOM     11  C   LIG    1       -1.983  10.744   1.814  0.00  0.00    +0.040 C 
ATOM     12  C   LIG    1       -1.883  11.934   0.877  0.00  0.00    +0.020 C 
ATOM     13  C   LIG    1       -2.268  11.539  -0.550  0.00  0.00    +0.280 C 
ATOM     14  N   LIG    1       -1.074  11.014  -1.232  0.00  0.00    -0.540 N 
ATOM     15  C   LIG    1       -0.579   9.820  -0.904  0.00  0.00    +0.500 C 
ATOM     16  O   LIG    1        0.402   9.395  -1.476  0.00  0.00    -0.550 OA
BRANCH  14  17
ATOM     17  C   LIG    1       -0.424  11.809  -2.276  0.00  0.00    +0.220 C 
BRANCH  17  18
ATOM     18  C   LIG    1       -1.028  11.471  -3.615  0.00  0.00    +0.490 C 
ATOM     19  O   LIG    1       -0.626  12.026  -4.623  0.00  0.00    -0.680 OA
ATOM     20  O   LIG    1       -1.920  10.642  -3.689  0.00  0.00    -0.690 OA
ENDBRANCH  17  18
ENDBRANCH  14  17
ENDBRANCH   4   9
BRANCH   1  25
ATOM     21  C   LIG    1        2.477   1.348   0.026  0.00  0.00    +0.160 C 
ATOM     22  C   LIG    1        1.068   1.878  -0.043  0.00  0.00    +0.070 A 
ATOM     23  C   LIG    1        0.002   1.083  -0.136  0.00  0.00    -0.080 A 
ATOM     24  S   LIG    1       -1.436   2.099  -0.197  0.00  0.00    +0.210 S 
ATOM     25  C   LIG    1       -0.463   3.500  -0.081  0.00  0.00    +0.180 A 
ATOM     26  N   LIG    1        0.789   3.169  -0.015  0.00  0.00    -0.480 NA
ENDBRANCH   1  25
TORSDOF 4
