REMARK  Name = ZINCpk000000oE5E.2
REMARK                            x       y       z     vdW  Elec       q    Type
REMARK                         _______ _______ _______ _____ _____    ______ ____
ROOT
ATOM      1  N   LIG    1       -0.035   1.202   2.508  0.00  0.00    -0.520 NA
ENDROOT
BRANCH   1   3
ATOM      2  C   LIG    1       -2.245   1.168   1.452  0.00  0.00    -0.010 C 
ATOM      3  C   LIG    1       -0.780   1.584   1.301  0.00  0.00    +0.200 C 
ENDBRANCH   1   3
BRANCH   1   4
ATOM      4  C   LIG    1       -0.593   1.854   3.700  0.00  0.00    +0.220 C 
BRANCH   4   5
ATOM      5  C   LIG    1       -0.377   3.365   3.603  0.00  0.00    +0.150 C 
ATOM      6  C   LIG    1       -0.931   4.049   4.860  0.00  0.00    +0.230 C 
ATOM      7  O   LIG    1       -0.701   5.457   4.742  0.00  0.00    -0.310 OA
ATOM      8  C   LIG    1        0.540   5.843   4.339  0.00  0.00    +0.040 A 
ATOM      9  C   LIG    1        0.946   7.152   4.543  0.00  0.00    +0.020 A 
ATOM     10  C   LIG    1        2.203   7.559   4.135  0.00  0.00    +0.010 A 
ATOM     11  C   LIG    1        3.058   6.662   3.524  0.00  0.00    +0.020 A 
ATOM     12  C   LIG    1        2.660   5.354   3.318  0.00  0.00    +0.030 A 
ATOM     13  C   LIG    1        1.401   4.939   3.725  0.00  0.00    +0.050 A 
ATOM     14  O   LIG    1        1.024   3.648   3.519  0.00  0.00    -0.280 OA
ENDBRANCH   4   5
ENDBRANCH   1   4
BRANCH   1  15
ATOM     15  C   LIG    1       -0.010  -0.258   2.670  0.00  0.00    +0.170 C 
BRANCH  15  16
ATOM     16  C   LIG    1        0.950  -0.868   1.646  0.00  0.00    +0.330 C 
BRANCH  16  17
ATOM     17  N   LIG    1        1.069  -2.308   1.886  0.00  0.00    -0.580 N 
ATOM     18  C   LIG    1        0.282  -3.232   1.323  0.00  0.00    +0.700 C 
ATOM     19  N   LIG    1        0.599  -4.481   1.707  0.00  0.00    -0.720 N 
ATOM     20  H   LIG    1        0.165  -5.302   1.426  0.00  0.00    +0.440 HD
ATOM     21  C   LIG    1        1.735  -4.361   2.638  0.00  0.00    +0.120 C 
ATOM     22  C   LIG    1        2.960  -5.093   2.089  0.00  0.00    +0.090 C 
ATOM     23  C   LIG    1        1.359  -4.902   4.018  0.00  0.00    +0.090 C 
ATOM     24  O   LIG    1       -0.619  -2.971   0.550  0.00  0.00    -0.540 OA
ATOM     25  C   LIG    1        1.989  -2.868   2.697  0.00  0.00    +0.530 C 
ATOM     26  O   LIG    1        2.842  -2.295   3.341  0.00  0.00    -0.450 OA
ENDBRANCH  16  17
ENDBRANCH  15  16
ENDBRANCH   1  15
TORSDOF 6
