REMARK  Name = ZINCpk00000e93cB.0
REMARK                            x       y       z     vdW  Elec       q    Type
REMARK                         _______ _______ _______ _____ _____    ______ ____
ROOT
ATOM      1  C   LIG    1       -5.177  -1.105   2.557  0.00  0.00    +0.530 C 
ATOM      2  N   LIG    1       -4.027  -1.740   2.856  0.00  0.00    -0.610 N 
ATOM      3  C   LIG    1       -3.667  -2.039   4.252  0.00  0.00    +0.250 C 
ATOM      4  C   LIG    1       -2.237  -1.543   4.498  0.00  0.00    +0.220 C 
ATOM      5  O   LIG    1       -1.373  -2.076   3.492  0.00  0.00    -0.370 OA
ATOM      6  C   LIG    1       -1.692  -1.655   2.163  0.00  0.00    +0.150 C 
ATOM      7  C   LIG    1       -3.094  -2.156   1.797  0.00  0.00    +0.270 C 
ATOM      8  O   LIG    1       -5.410  -0.779   1.413  0.00  0.00    -0.530 OA
ENDROOT
BRANCH   1  10
ATOM      9  C   LIG    1       -6.470  -2.074   4.438  0.00  0.00    +0.040 C 
ATOM     10  C   LIG    1       -6.174  -0.799   3.646  0.00  0.00    -0.070 C 
ATOM     11  C   LIG    1       -5.595   0.262   4.584  0.00  0.00    +0.070 C 
BRANCH  10  12
ATOM     12  C   LIG    1       -7.468  -0.276   3.019  0.00  0.00    +0.100 C 
BRANCH  12  13
ATOM     13  C   LIG    1       -8.465   0.030   4.108  0.00  0.00    -0.090 A 
ATOM     14  C   LIG    1       -9.345  -0.948   4.532  0.00  0.00    +0.030 A 
ATOM     15  C   LIG    1      -10.255  -0.672   5.534  0.00  0.00    -0.010 A 
ATOM     16  C   LIG    1      -10.294   0.591   6.105  0.00  0.00    +0.100 A 
ATOM     17  C   LIG    1       -9.414   1.573   5.673  0.00  0.00    -0.010 A 
ATOM     18  C   LIG    1       -8.502   1.290   4.676  0.00  0.00    +0.030 A 
BRANCH  16  19
ATOM     19  O   LIG    1      -11.193   0.867   7.087  0.00  0.00    -0.500 OA
ATOM     20  H   LIG    1      -12.039   1.204   6.762  0.00  0.00    +0.390 HD
ENDBRANCH  16  19
ENDBRANCH  12  13
ENDBRANCH  10  12
ENDBRANCH   1  10
BRANCH   6  21
ATOM     21  C   LIG    1       -0.670  -2.235   1.184  0.00  0.00    +0.360 C 
BRANCH  21  22
ATOM     22  N   LIG    1        0.651  -1.665   1.462  0.00  0.00    -0.380 N 
ATOM     23  C   LIG    1        1.784  -2.342   1.716  0.00  0.00    +0.480 A 
ATOM     24  N   LIG    1        2.742  -1.473   1.910  0.00  0.00    -0.550 NA
ATOM     25  C   LIG    1        2.261  -0.236   1.789  0.00  0.00    +0.420 A 
ATOM     26  N   LIG    1        0.985  -0.302   1.514  0.00  0.00    -0.320 NA
ENDBRANCH  21  22
ENDBRANCH   6  21
TORSDOF 6
