REMARK  Name = ZINCqH0000036m6j.0
REMARK                            x       y       z     vdW  Elec       q    Type
REMARK                         _______ _______ _______ _____ _____    ______ ____
ROOT
ATOM      1  C   LIG    1       -1.188  -0.713   0.010  0.00  0.00    +0.080 A 
ATOM      2  C   LIG    1       -1.284  -2.083  -0.002  0.00  0.00    -0.240 A 
ATOM      3  C   LIG    1       -2.599  -2.554   0.014  0.00  0.00    +0.070 A 
ATOM      4  C   LIG    1       -3.521  -1.581   0.027  0.00  0.00    -0.230 A 
ATOM      5  S   LIG    1       -2.741  -0.007   0.028  0.00  0.00    +0.330 S 
ENDROOT
BRANCH   4   6
ATOM      6  C   LIG    1       -4.983  -1.800   0.040  0.00  0.00    -0.000 A 
ATOM      7  C   LIG    1       -5.497  -3.098   0.033  0.00  0.00    +0.010 A 
ATOM      8  C   LIG    1       -6.862  -3.296   0.050  0.00  0.00    +0.020 A 
ATOM      9  C   LIG    1       -7.721  -2.211   0.064  0.00  0.00    +0.000 A 
ATOM     10  C   LIG    1       -7.218  -0.922   0.065  0.00  0.00    +0.020 A 
ATOM     11  C   LIG    1       -5.855  -0.711   0.053  0.00  0.00    +0.000 A 
ENDBRANCH   4   6
BRANCH   2  12
ATOM     12  C   LIG    1       -0.115  -2.969  -0.025  0.00  0.00    +0.590 C 
ATOM     13  O   LIG    1        1.006  -2.496  -0.035  0.00  0.00    -0.560 OA
ATOM     14  N   LIG    1       -0.283  -4.306  -0.036  0.00  0.00    -0.850 N 
ATOM     15  H   LIG    1        0.490  -4.892  -0.052  0.00  0.00    +0.410 HD
ATOM     16  H   LIG    1       -1.177  -4.683  -0.029  0.00  0.00    +0.400 HD
ENDBRANCH   2  12
BRANCH   1  18
ATOM     17  C   LIG    1       -0.016   1.344   0.009  0.00  0.00    +0.510 C 
ATOM     18  N   LIG    1        0.002  -0.004   0.002  0.00  0.00    -0.620 N 
ATOM     19  H   LIG    1        0.849  -0.478  -0.009  0.00  0.00    +0.430 HD
ATOM     20  O   LIG    1       -1.075   1.936   0.018  0.00  0.00    -0.490 OA
BRANCH  17  21
ATOM     21  C   LIG    1        1.278   2.115   0.001  0.00  0.00    +0.150 C 
BRANCH  21  27
ATOM     22  C   LIG    1        0.750   4.245   1.214  0.00  0.00    +0.150 A 
ATOM     23  C   LIG    1        0.485   5.607   1.221  0.00  0.00    -0.080 A 
ATOM     24  C   LIG    1        0.441   6.307   0.031  0.00  0.00    +0.060 A 
ATOM     25  C   LIG    1        0.667   5.653  -1.166  0.00  0.00    -0.030 A 
ATOM     26  C   LIG    1        0.938   4.297  -1.175  0.00  0.00    +0.060 A 
ATOM     27  C   LIG    1        0.983   3.592   0.012  0.00  0.00    -0.110 A 
BRANCH  22  29
ATOM     28  C   LIG    1        0.538   4.290   3.582  0.00  0.00    +0.250 C 
ATOM     29  O   LIG    1        0.788   3.553   2.383  0.00  0.00    -0.320 OA
ENDBRANCH  22  29
ENDBRANCH  21  27
ENDBRANCH  17  21
ENDBRANCH   1  18
TORSDOF 6
