REMARK  Name = ZINCrD0000074DyN.0
REMARK                            x       y       z     vdW  Elec       q    Type
REMARK                         _______ _______ _______ _____ _____    ______ ____
ROOT
ATOM      1  N   LIG    1        1.140   2.156   0.003  0.00  0.00    -0.720 N 
ATOM      2  H   LIG    1        1.986   1.683  -0.008  0.00  0.00    +0.400 HD
ATOM      3  C   LIG    1       -0.018   1.466   0.010  0.00  0.00    +0.590 C 
ATOM      4  O   LIG    1       -1.079   2.060   0.018  0.00  0.00    -0.500 OA
ENDROOT
BRANCH   3   5
ATOM      5  C   LIG    1        0.002  -0.004   0.002  0.00  0.00    +0.010 A 
ATOM      6  C   LIG    1       -1.094  -0.807   0.014  0.00  0.00    +0.060 A 
ATOM      7  C   LIG    1       -0.645  -2.150  -0.003  0.00  0.00    -0.130 A 
ATOM      8  C   LIG    1       -1.306  -3.385  -0.002  0.00  0.00    +0.080 A 
ATOM      9  C   LIG    1       -0.582  -4.542  -0.014  0.00  0.00    -0.020 A 
ATOM     10  C   LIG    1        0.806  -4.507  -0.028  0.00  0.00    -0.050 A 
ATOM     11  C   LIG    1        1.479  -3.305  -0.029  0.00  0.00    -0.020 A 
ATOM     12  C   LIG    1        1.584  -5.798  -0.042  0.00  0.00    +0.090 C 
ATOM     13  C   LIG    1        0.763  -2.112  -0.016  0.00  0.00    +0.120 A 
ATOM     14  N   LIG    1        1.139  -0.789  -0.013  0.00  0.00    -0.580 N 
ATOM     15  H   LIG    1        2.051  -0.462  -0.020  0.00  0.00    +0.420 HD
ENDBRANCH   3   5
BRANCH   1  19
ATOM     16  N   LIG    1        1.964   5.150   1.574  0.00  0.00    -0.620 N 
ATOM     17  C   LIG    1        2.665   5.430   0.315  0.00  0.00    +0.270 C 
ATOM     18  C   LIG    1        2.439   4.183  -0.569  0.00  0.00    +0.050 C 
ATOM     19  C   LIG    1        1.120   3.621   0.011  0.00  0.00    +0.250 C 
ATOM     20  C   LIG    1        1.083   4.142   1.431  0.00  0.00    +0.500 C 
ATOM     21  O   LIG    1        0.366   3.713   2.309  0.00  0.00    -0.500 OA
BRANCH  16  22
ATOM     22  C   LIG    1        2.192   5.876   2.826  0.00  0.00    +0.350 C 
BRANCH  22  27
ATOM     23  C   LIG    1       -1.388  10.403   3.108  0.00  0.00    +0.090 C 
ATOM     24  C   LIG    1       -0.455   9.223   3.035  0.00  0.00    -0.080 A 
ATOM     25  C   LIG    1       -0.846   7.999   3.545  0.00  0.00    +0.000 A 
ATOM     26  C   LIG    1        0.011   6.916   3.478  0.00  0.00    +0.040 A 
ATOM     27  C   LIG    1        1.258   7.057   2.899  0.00  0.00    -0.120 A 
ATOM     28  C   LIG    1        1.652   8.281   2.393  0.00  0.00    +0.020 A 
ATOM     29  C   LIG    1        0.793   9.363   2.457  0.00  0.00    -0.010 A 
ENDBRANCH  22  27
ENDBRANCH  16  22
ENDBRANCH   1  19
TORSDOF 4
