REMARK  Name = ZINCrH00000tj0ON.0
REMARK                            x       y       z     vdW  Elec       q    Type
REMARK                         _______ _______ _______ _____ _____    ______ ____
ROOT
ATOM      1  C   LIG    1        1.207   3.671  -0.393  0.00  0.00    +0.260 C 
ENDROOT
BRANCH   1   4
ATOM      2  O   LIG    1       -0.791   2.070  -1.238  0.00  0.00    -0.510 OA
ATOM      3  C   LIG    1        0.330   1.643  -1.421  0.00  0.00    +0.530 C 
ATOM      4  N   LIG    1        1.398   2.369  -1.037  0.00  0.00    -0.730 N 
ATOM      5  H   LIG    1        2.295   2.030  -1.188  0.00  0.00    +0.400 HD
BRANCH   3   6
ATOM      6  C   LIG    1        0.527   0.304  -2.084  0.00  0.00    +0.080 C 
BRANCH   6   7
ATOM      7  S   LIG    1       -1.089  -0.419  -2.478  0.00  0.00    -0.000 S 
BRANCH   7   8
ATOM      8  C   LIG    1       -0.663  -1.953  -3.232  0.00  0.00    -0.140 A 
ATOM      9  C   LIG    1        0.670  -2.309  -3.382  0.00  0.00    +0.020 A 
ATOM     10  C   LIG    1        1.001  -3.513  -3.974  0.00  0.00    +0.020 A 
ATOM     11  C   LIG    1        0.006  -4.364  -4.418  0.00  0.00    +0.040 A 
ATOM     12  C   LIG    1       -1.324  -4.014  -4.272  0.00  0.00    +0.010 A 
ATOM     13  C   LIG    1       -1.663  -2.814  -3.675  0.00  0.00    +0.120 A 
ATOM     14  F   LIG    1       -2.963  -2.475  -3.527  0.00  0.00    -0.130 F 
ENDBRANCH   7   8
ENDBRANCH   6   7
ENDBRANCH   3   6
ENDBRANCH   1   4
BRANCH   1  15
ATOM     15  C   LIG    1        2.551   4.186   0.126  0.00  0.00    +0.210 C 
BRANCH  15  16
ATOM     16  C   LIG    1        2.375   5.574   0.686  0.00  0.00    -0.070 A 
ATOM     17  C   LIG    1        2.321   5.766   2.053  0.00  0.00    +0.050 A 
ATOM     18  C   LIG    1        2.159   7.040   2.567  0.00  0.00    +0.010 A 
ATOM     19  C   LIG    1        2.051   8.121   1.713  0.00  0.00    +0.030 A 
ATOM     20  C   LIG    1        2.104   7.930   0.345  0.00  0.00    +0.030 A 
ATOM     21  C   LIG    1        2.272   6.657  -0.169  0.00  0.00    -0.030 A 
ATOM     22 CL   LIG    1        2.348   6.418  -1.887  0.00  0.00    -0.070 Cl
ENDBRANCH  15  16
BRANCH  15  23
ATOM     23  N   LIG    1        3.043   3.291   1.182  0.00  0.00    -0.520 NA
ATOM     24  C   LIG    1        3.828   2.186   0.612  0.00  0.00    +0.150 C 
ATOM     25  C   LIG    1        4.370   1.314   1.747  0.00  0.00    +0.220 C 
ATOM     26  O   LIG    1        3.280   0.848   2.547  0.00  0.00    -0.380 OA
ATOM     27  C   LIG    1        2.495   1.898   3.118  0.00  0.00    +0.220 C 
ATOM     28  C   LIG    1        1.933   2.776   1.996  0.00  0.00    +0.150 C 
ENDBRANCH  15  23
ENDBRANCH   1  15
TORSDOF 7
