REMARK  Name = ZINCpk000000oOYc.0
REMARK                            x       y       z     vdW  Elec       q    Type
REMARK                         _______ _______ _______ _____ _____    ______ ____
ROOT
ATOM      1  N   LIG    1        3.401   2.254  -0.018  0.00  0.00    -0.430 N 
ATOM      2  C   LIG    1        4.190   2.065   1.227  0.00  0.00    +0.200 C 
ATOM      3  C   LIG    1        5.062   3.334   1.331  0.00  0.00    +0.040 C 
ATOM      4  C   LIG    1        4.307   4.407   0.520  0.00  0.00    +0.040 C 
ATOM      5  C   LIG    1        3.042   3.695  -0.007  0.00  0.00    +0.230 C 
ENDROOT
BRANCH   1   9
ATOM      6  C   LIG    1        0.002  -0.004   0.002  0.00  0.00    -0.010 A 
ATOM      7  C   LIG    1        1.226  -0.684  -0.013  0.00  0.00    +0.120 A 
ATOM      8  C   LIG    1        2.387   0.069  -0.020  0.00  0.00    +0.030 A 
ATOM      9  C   LIG    1        2.267   1.460  -0.012  0.00  0.00    +0.270 A 
ATOM     10  N   LIG    1        1.062   2.021   0.003  0.00  0.00    -0.280 NA
ATOM     11  N   LIG    1       -0.016   1.324   0.009  0.00  0.00    -0.190 NA
BRANCH   6  14
ATOM     12  N   LIG    1       -2.444  -0.107   0.024  0.00  0.00    -0.710 N 
ATOM     13  H   LIG    1       -2.459   0.863   0.029  0.00  0.00    +0.410 HD
ATOM     14  C   LIG    1       -1.267  -0.763   0.010  0.00  0.00    +0.580 C 
ATOM     15  O   LIG    1       -1.248  -1.978   0.003  0.00  0.00    -0.530 OA
BRANCH  12  17
ATOM     16  C   LIG    1       -4.880   0.118   0.047  0.00  0.00    +0.030 C 
ATOM     17  C   LIG    1       -3.702  -0.859   0.031  0.00  0.00    +0.250 C 
ENDBRANCH  12  17
ENDBRANCH   6  14
ENDBRANCH   1   9
BRANCH   5  18
ATOM     18  C   LIG    1        2.716   4.167  -1.401  0.00  0.00    +0.030 A 
ATOM     19  C   LIG    1        1.885   5.262  -1.586  0.00  0.00    +0.090 A 
ATOM     20  C   LIG    1        1.612   5.661  -2.885  0.00  0.00    -0.030 A 
ATOM     21  C   LIG    1        2.190   4.935  -3.925  0.00  0.00    +0.340 A 
ATOM     22  N   LIG    1        2.971   3.901  -3.649  0.00  0.00    -0.310 NA
ATOM     23  N   LIG    1        3.224   3.541  -2.443  0.00  0.00    -0.170 NA
BRANCH  21  24
ATOM     24  N   LIG    1        1.948   5.294  -5.247  0.00  0.00    -0.610 N 
ATOM     25  C   LIG    1        2.466   4.465  -6.338  0.00  0.00    +0.300 C 
ATOM     26  C   LIG    1        1.174   6.501  -5.547  0.00  0.00    +0.300 C 
ENDBRANCH  21  24
ENDBRANCH   5  18
TORSDOF 5
