REMARK  Name = ZINCtV000002rn4m.0
REMARK                            x       y       z     vdW  Elec       q    Type
REMARK                         _______ _______ _______ _____ _____    ______ ____
ROOT
ATOM      1  N   LIG    1       -0.840   0.890  -0.545  0.00  0.00    -0.510 N 
ATOM      2  C   LIG    1       -0.692  -0.412  -0.231  0.00  0.00    +0.530 C 
ATOM      3  O   LIG    1        0.417  -0.871  -0.051  0.00  0.00    -0.470 OA
ENDROOT
BRANCH   1   4
ATOM      4  C   LIG    1       -2.094   1.390  -0.854  0.00  0.00    +0.330 A 
ATOM      5  N   LIG    1       -2.326   2.583  -1.279  0.00  0.00    -0.490 NA
ATOM      6  C   LIG    1       -3.603   2.923  -1.541  0.00  0.00    +0.110 A 
ATOM      7  C   LIG    1       -4.111   4.151  -2.015  0.00  0.00    +0.060 A 
ATOM      8  C   LIG    1       -5.458   4.313  -2.219  0.00  0.00    +0.030 A 
ATOM      9  C   LIG    1       -6.341   3.275  -1.965  0.00  0.00    +0.020 A 
ATOM     10  C   LIG    1       -5.868   2.067  -1.502  0.00  0.00    +0.060 A 
ATOM     11  C   LIG    1       -4.504   1.884  -1.289  0.00  0.00    -0.220 A 
ATOM     12  S   LIG    1       -3.596   0.487  -0.714  0.00  0.00    +0.120 S 
ENDBRANCH   1   4
BRANCH   1  13
ATOM     13  C   LIG    1        0.327   1.776  -0.566  0.00  0.00    +0.310 C 
BRANCH  13  15
ATOM     14  C   LIG    1        1.947   2.963  -2.052  0.00  0.00    +0.040 C 
ATOM     15  C   LIG    1        0.849   1.899  -1.999  0.00  0.00    -0.030 C 
ATOM     16  C   LIG    1        1.420   0.553  -2.451  0.00  0.00    +0.010 C 
ENDBRANCH  13  15
ENDBRANCH   1  13
BRANCH   2  17
ATOM     17  C   LIG    1       -1.903  -1.299  -0.103  0.00  0.00    +0.070 C 
BRANCH  17  18
ATOM     18  C   LIG    1       -2.651  -0.949   1.159  0.00  0.00    -0.070 A 
ATOM     19  C   LIG    1       -2.146   0.009   2.018  0.00  0.00    +0.000 A 
ATOM     20  C   LIG    1       -2.833   0.333   3.172  0.00  0.00    +0.010 A 
ATOM     21  C   LIG    1       -4.021  -0.308   3.473  0.00  0.00    +0.020 A 
ATOM     22  C   LIG    1       -4.523  -1.269   2.616  0.00  0.00    +0.020 A 
ATOM     23  C   LIG    1       -3.838  -1.590   1.459  0.00  0.00    +0.040 A 
ENDBRANCH  17  18
BRANCH  17  24
ATOM     24  C   LIG    1       -1.468  -2.740  -0.045  0.00  0.00    -0.070 A 
ATOM     25  C   LIG    1       -0.746  -3.201   1.040  0.00  0.00    +0.050 A 
ATOM     26  C   LIG    1       -0.350  -4.524   1.096  0.00  0.00    +0.000 A 
ATOM     27  C   LIG    1       -0.667  -5.384   0.061  0.00  0.00    +0.010 A 
ATOM     28  C   LIG    1       -1.385  -4.922  -1.027  0.00  0.00    +0.010 A 
ATOM     29  C   LIG    1       -1.785  -3.600  -1.080  0.00  0.00    +0.010 A 
ENDBRANCH  17  24
ENDBRANCH   2  17
TORSDOF 6
