REMARK  Name = ZINCrD0000075du2.0
REMARK                            x       y       z     vdW  Elec       q    Type
REMARK                         _______ _______ _______ _____ _____    ______ ____
ROOT
ATOM      1  N   LIG    1       -3.468  -6.487   0.002  0.00  0.00    -0.670 N 
ATOM      2  H   LIG    1       -2.625  -6.958  -0.083  0.00  0.00    +0.410 HD
ATOM      3  C   LIG    1       -3.490  -5.139   0.011  0.00  0.00    +0.520 C 
ATOM      4  O   LIG    1       -4.549  -4.549   0.033  0.00  0.00    -0.510 OA
ENDROOT
BRANCH   1   8
ATOM      5  C   LIG    1       -7.029  -8.631   0.341  0.00  0.00    -0.140 A 
ATOM      6  C   LIG    1       -7.007  -7.426  -0.350  0.00  0.00    +0.100 A 
ATOM      7  C   LIG    1       -5.828  -6.716  -0.462  0.00  0.00    +0.020 A 
ATOM      8  C   LIG    1       -4.665  -7.207   0.116  0.00  0.00    +0.180 A 
ATOM      9  C   LIG    1       -4.686  -8.414   0.802  0.00  0.00    -0.020 A 
ATOM     10  C   LIG    1       -5.865  -9.121   0.919  0.00  0.00    +0.100 A 
BRANCH   5  11
ATOM     11  S   LIG    1       -8.534  -9.536   0.484  0.00  0.00    +0.080 S 
BRANCH  11  17
ATOM     12  C   LIG    1      -10.417 -12.041  -0.462  0.00  0.00    +0.330 C 
ATOM     13  N   LIG    1       -9.200 -11.665  -1.186  0.00  0.00    -0.450 N 
ATOM     14  C   LIG    1       -8.696 -12.274  -2.313  0.00  0.00    +0.130 A 
ATOM     15  C   LIG    1       -7.569 -11.620  -2.642  0.00  0.00    +0.150 A 
ATOM     16  N   LIG    1       -7.379 -10.631  -1.752  0.00  0.00    -0.480 NA
ATOM     17  C   LIG    1       -8.354 -10.645  -0.874  0.00  0.00    +0.170 A 
ENDBRANCH  11  17
ENDBRANCH   5  11
ENDBRANCH   1   8
BRANCH   3  18
ATOM     18  C   LIG    1       -2.197  -4.365  -0.006  0.00  0.00    +0.070 C 
BRANCH  18  19
ATOM     19  C   LIG    1       -2.500  -2.865   0.009  0.00  0.00    +0.290 C 
BRANCH  19  20
ATOM     20  N   LIG    1       -1.243  -2.113  -0.008  0.00  0.00    -0.730 N 
ATOM     21  H   LIG    1       -0.396  -2.584  -0.025  0.00  0.00    +0.400 HD
ATOM     22  C   LIG    1       -1.264  -0.765   0.002  0.00  0.00    +0.560 C 
ATOM     23  O   LIG    1       -2.326  -0.174   0.024  0.00  0.00    -0.530 OA
BRANCH  22  24
ATOM     24  C   LIG    1        0.004  -0.005  -0.015  0.00  0.00    -0.140 A 
ATOM     25  C   LIG    1       -0.015   1.390  -0.006  0.00  0.00    +0.080 A 
ATOM     26  C   LIG    1        1.172   2.093  -0.021  0.00  0.00    +0.000 A 
ATOM     27  C   LIG    1        2.380   1.417  -0.046  0.00  0.00    +0.040 A 
ATOM     28  C   LIG    1        2.405   0.034  -0.055  0.00  0.00    +0.000 A 
ATOM     29  C   LIG    1        1.225  -0.681  -0.040  0.00  0.00    +0.030 A 
ENDBRANCH  22  24
ENDBRANCH  19  20
ENDBRANCH  18  19
ENDBRANCH   3  18
TORSDOF 7
