REMARK  Name = ZINCpk00000y6tRx.0
REMARK                            x       y       z     vdW  Elec       q    Type
REMARK                         _______ _______ _______ _____ _____    ______ ____
ROOT
ATOM      1  N   LIG    1       -0.806   3.062  -1.200  0.00  0.00    -0.540 NA
ATOM      2  C   LIG    1       -0.754   1.593  -1.231  0.00  0.00    +0.200 C 
ATOM      3  C   LIG    1       -0.013   1.086   0.008  0.00  0.00    +0.200 C 
ATOM      4  N   LIG    1       -0.701   1.560   1.216  0.00  0.00    -0.540 NA
ATOM      5  C   LIG    1       -0.754   3.029   1.247  0.00  0.00    +0.280 C 
ATOM      6  C   LIG    1       -0.062   1.031   2.429  0.00  0.00    +0.200 C 
ATOM      7  C   LIG    1       -1.495   3.536   0.008  0.00  0.00    +0.210 C 
ENDROOT
BRANCH   5   8
ATOM      8  C   LIG    1       -1.481   3.480   2.487  0.00  0.00    +0.190 A 
ATOM      9  N   LIG    1       -1.114   4.441   3.301  0.00  0.00    -0.470 NA
ATOM     10  C   LIG    1       -2.059   4.486   4.257  0.00  0.00    +0.200 A 
ATOM     11  N   LIG    1       -2.936   3.567   3.982  0.00  0.00    -0.380 NA
ATOM     12  O   LIG    1       -2.625   2.982   2.966  0.00  0.00    +0.100 OA
BRANCH  10  13
ATOM     13  C   LIG    1       -2.095   5.429   5.432  0.00  0.00    +0.060 C 
ATOM     14  C   LIG    1       -3.152   5.176   6.509  0.00  0.00    +0.050 C 
ATOM     15  C   LIG    1       -3.302   6.362   5.553  0.00  0.00    +0.050 C 
ENDBRANCH  10  13
ENDBRANCH   5   8
BRANCH   1  16
ATOM     16  C   LIG    1       -1.445   3.591  -2.413  0.00  0.00    +0.320 C 
BRANCH  16  19
ATOM     17  C   LIG    1        0.828   5.383  -3.604  0.00  0.00    +0.340 C 
ATOM     18  N   LIG    1        0.401   4.077  -4.112  0.00  0.00    -0.460 N 
ATOM     19  C   LIG    1       -0.580   3.288  -3.609  0.00  0.00    +0.180 A 
ATOM     20  N   LIG    1       -0.640   2.220  -4.357  0.00  0.00    -0.280 NA
ATOM     21  N   LIG    1        0.243   2.293  -5.288  0.00  0.00    -0.290 NA
ATOM     22  C   LIG    1        0.907   3.411  -5.178  0.00  0.00    +0.210 A 
BRANCH  22  23
ATOM     23  C   LIG    1        2.027   3.878  -6.072  0.00  0.00    +0.030 C 
ATOM     24  C   LIG    1        2.302   3.067  -7.340  0.00  0.00    +0.070 C 
ATOM     25  C   LIG    1        3.274   2.997  -6.161  0.00  0.00    +0.050 C 
ENDBRANCH  22  23
ENDBRANCH  16  19
ENDBRANCH   1  16
TORSDOF 5
