REMARK  Name = ZINCtV00000L6jwi.0
REMARK                            x       y       z     vdW  Elec       q    Type
REMARK                         _______ _______ _______ _____ _____    ______ ____
ROOT
ATOM      1  C   LIG    1       -1.621   9.115   2.062  0.00  0.00    -0.090 A 
ATOM      2  C   LIG    1       -1.851   7.872   1.505  0.00  0.00    +0.030 A 
ATOM      3  C   LIG    1       -0.920   7.313   0.650  0.00  0.00    -0.090 A 
ATOM      4  C   LIG    1        0.246   7.993   0.353  0.00  0.00    +0.030 A 
ATOM      5  C   LIG    1        0.479   9.239   0.903  0.00  0.00    -0.090 A 
ATOM      6  C   LIG    1       -0.454   9.803   1.762  0.00  0.00    +0.120 A 
ENDROOT
BRANCH   1   8
ATOM      7  C   LIG    1       -3.819   8.767   3.155  0.00  0.00    +0.030 C 
ATOM      8  C   LIG    1       -2.636   9.724   2.994  0.00  0.00    -0.020 C 
ATOM      9  C   LIG    1       -3.129  11.052   2.416  0.00  0.00    +0.030 C 
ATOM     10  C   LIG    1       -1.991   9.970   4.360  0.00  0.00    +0.030 C 
ENDBRANCH   1   8
BRANCH   5  11
ATOM     11  C   LIG    1        1.748   9.983   0.575  0.00  0.00    -0.020 C 
ATOM     12  C   LIG    1        2.536  10.238   1.861  0.00  0.00    +0.030 C 
ATOM     13  C   LIG    1        1.400  11.320  -0.083  0.00  0.00    +0.030 C 
ATOM     14  C   LIG    1        2.595   9.147  -0.386  0.00  0.00    +0.030 C 
ENDBRANCH   5  11
BRANCH   6  15
ATOM     15  O   LIG    1       -0.225  11.025   2.308  0.00  0.00    -0.480 OA
ATOM     16  H   LIG    1        0.244  10.997   3.154  0.00  0.00    +0.380 HD
ENDBRANCH   6  15
BRANCH   3  17
ATOM     17  C   LIG    1       -1.174   5.956   0.044  0.00  0.00    +0.340 C 
BRANCH  17  18
ATOM     18  C   LIG    1       -1.679   6.122  -1.366  0.00  0.00    -0.100 A 
ATOM     19  C   LIG    1       -0.791   6.382  -2.392  0.00  0.00    +0.030 A 
ATOM     20  C   LIG    1       -1.254   6.529  -3.686  0.00  0.00    +0.000 A 
ATOM     21  C   LIG    1       -2.607   6.427  -3.952  0.00  0.00    +0.000 A 
ATOM     22  C   LIG    1       -3.496   6.172  -2.925  0.00  0.00    +0.000 A 
ATOM     23  C   LIG    1       -3.032   6.020  -1.631  0.00  0.00    +0.010 A 
ENDBRANCH  17  18
BRANCH  17  24
ATOM     24  N   LIG    1        0.073   5.187   0.029  0.00  0.00    -0.720 N 
ATOM     25  H   LIG    1        0.927   5.648   0.023  0.00  0.00    +0.400 HD
BRANCH  24  26
ATOM     26  C   LIG    1        0.033   3.798   0.022  0.00  0.00    +0.410 A 
ATOM     27  C   LIG    1       -1.195   3.144   0.030  0.00  0.00    -0.110 A 
ATOM     28  C   LIG    1       -1.220   1.761   0.017  0.00  0.00    +0.100 A 
ATOM     29  C   LIG    1       -0.013   1.076   0.008  0.00  0.00    -0.100 A 
ATOM     30  C   LIG    1        1.169   1.789   0.001  0.00  0.00    +0.300 A 
ATOM     31  N   LIG    1        1.163   3.109   0.008  0.00  0.00    -0.540 NA
ENDBRANCH  24  26
ENDBRANCH  17  24
ENDBRANCH   3  17
TORSDOF 7
