REMARK  Name = ZINCtV00000mHCCx.0
REMARK                            x       y       z     vdW  Elec       q    Type
REMARK                         _______ _______ _______ _____ _____    ______ ____
ROOT
ATOM      1  C   LIG    1        7.215   0.872  -0.066  0.00  0.00    -0.220 A 
ATOM      2  C   LIG    1        7.052  -0.513   0.034  0.00  0.00    +0.120 A 
ATOM      3  C   LIG    1        8.157  -1.336   0.029  0.00  0.00    -0.070 A 
ATOM      4  C   LIG    1        9.430  -0.799  -0.074  0.00  0.00    +0.100 A 
ATOM      5  C   LIG    1        9.608   0.566  -0.173  0.00  0.00    -0.090 A 
ATOM      6  C   LIG    1        8.506   1.412  -0.177  0.00  0.00    +0.290 A 
ENDROOT
BRANCH   1   8
ATOM      7  O   LIG    1        6.186   2.964  -0.042  0.00  0.00    -0.520 OA
ATOM      8  C   LIG    1        6.038   1.758  -0.061  0.00  0.00    +0.530 C 
BRANCH   8   9
ATOM      9  O   LIG    1        4.798   1.232  -0.079  0.00  0.00    -0.340 OA
BRANCH   9  10
ATOM     10  C   LIG    1        3.685   2.165  -0.073  0.00  0.00    +0.290 C 
BRANCH  10  11
ATOM     11  C   LIG    1        2.387   1.399  -0.094  0.00  0.00    -0.070 A 
ATOM     12  C   LIG    1        2.399   0.019  -0.116  0.00  0.00    +0.060 A 
ATOM     13  C   LIG    1        1.208  -0.684  -0.135  0.00  0.00    +0.020 A 
ATOM     14  C   LIG    1        0.002  -0.008  -0.133  0.00  0.00    +0.030 A 
ATOM     15  C   LIG    1       -0.018   1.373  -0.111  0.00  0.00    +0.010 A 
ATOM     16  C   LIG    1        1.177   2.082  -0.092  0.00  0.00    -0.090 A 
BRANCH  16  17
ATOM     17  S   LIG    1        1.157   3.844  -0.065  0.00  0.00    -0.090 S 
BRANCH  17  18
ATOM     18  C   LIG    1       -0.615   4.232  -0.071  0.00  0.00    +0.430 C 
ATOM     19  F   LIG    1       -1.220   3.670   1.059  0.00  0.00    -0.180 F 
ATOM     20  F   LIG    1       -1.204   3.705  -1.226  0.00  0.00    -0.180 F 
ENDBRANCH  17  18
ENDBRANCH  16  17
ENDBRANCH  10  11
ENDBRANCH   9  10
ENDBRANCH   8   9
ENDBRANCH   1   8
BRANCH   6  21
ATOM     21  N   LIG    1        8.681   2.785  -0.283  0.00  0.00    -0.730 N 
ATOM     22  H   LIG    1        7.919   3.379  -0.201  0.00  0.00    +0.420 HD
BRANCH  21  23
ATOM     23  C   LIG    1       10.018   3.337  -0.517  0.00  0.00    +0.260 C 
BRANCH  23  24
ATOM     24  C   LIG    1        9.934   4.863  -0.593  0.00  0.00    +0.070 C 
BRANCH  24  25
ATOM     25  C   LIG    1       11.309   5.431  -0.834  0.00  0.00    -0.080 A 
ATOM     26  C   LIG    1       12.117   5.764   0.236  0.00  0.00    +0.010 A 
ATOM     27  C   LIG    1       13.380   6.280   0.015  0.00  0.00    +0.000 A 
ATOM     28  C   LIG    1       13.831   6.472  -1.278  0.00  0.00    +0.000 A 
ATOM     29  C   LIG    1       13.021   6.144  -2.348  0.00  0.00    +0.000 A 
ATOM     30  C   LIG    1       11.760   5.622  -2.127  0.00  0.00    +0.010 A 
ENDBRANCH  24  25
ENDBRANCH  23  24
ENDBRANCH  21  23
ENDBRANCH   6  21
TORSDOF 10
