REMARK  Name = ZINCpk00000RnSHW.1
REMARK                            x       y       z     vdW  Elec       q    Type
REMARK                         _______ _______ _______ _____ _____    ______ ____
ROOT
ATOM      1  C   LIG    1       -5.898   2.309   5.633  0.00  0.00    +0.560 C 
ATOM      2  N   LIG    1       -5.733   2.892   4.430  0.00  0.00    -0.670 N 
ATOM      3  H   LIG    1       -5.981   3.821   4.303  0.00  0.00    +0.410 HD
ATOM      4  O   LIG    1       -5.503   1.174   5.818  0.00  0.00    -0.520 OA
ENDROOT
BRANCH   1   8
ATOM      5  C   LIG    1       -7.795   4.434   8.782  0.00  0.00    +0.210 A 
ATOM      6  C   LIG    1       -7.344   3.135   8.995  0.00  0.00    +0.030 A 
ATOM      7  C   LIG    1       -6.729   2.443   7.976  0.00  0.00    +0.110 A 
ATOM      8  C   LIG    1       -6.557   3.047   6.727  0.00  0.00    -0.170 A 
ATOM      9  C   LIG    1       -7.007   4.354   6.518  0.00  0.00    +0.070 A 
ATOM     10  C   LIG    1       -7.626   5.038   7.540  0.00  0.00    -0.030 A 
BRANCH   5  11
ATOM     11  N   LIG    1       -8.417   5.132   9.815  0.00  0.00    -0.660 N 
ATOM     12  H   LIG    1       -9.126   5.763   9.616  0.00  0.00    +0.420 HD
BRANCH  11  15
ATOM     13  N   LIG    1       -7.000   4.163  11.378  0.00  0.00    -0.800 NA
ATOM     14  H   LIG    1       -6.724   4.018  12.297  0.00  0.00    +0.340 HD
ATOM     15  C   LIG    1       -8.024   4.926  11.119  0.00  0.00    +0.630 C 
BRANCH  15  16
ATOM     16  N   LIG    1       -8.713   5.526  12.147  0.00  0.00    -0.890 N 
ATOM     17  H   LIG    1       -8.436   5.381  13.066  0.00  0.00    +0.410 HD
ATOM     18  H   LIG    1       -9.475   6.094  11.954  0.00  0.00    +0.390 HD
ENDBRANCH  15  16
ENDBRANCH  11  15
ENDBRANCH   5  11
ENDBRANCH   1   8
BRANCH   2  19
ATOM     19  C   LIG    1       -5.206   2.158   3.363  0.00  0.00    +0.160 A 
ATOM     20  C   LIG    1       -4.393   2.780   2.424  0.00  0.00    -0.020 A 
ATOM     21  C   LIG    1       -3.874   2.052   1.372  0.00  0.00    +0.070 A 
ATOM     22  C   LIG    1       -4.163   0.705   1.251  0.00  0.00    -0.130 A 
ATOM     23  C   LIG    1       -4.977   0.084   2.181  0.00  0.00    +0.050 A 
ATOM     24  C   LIG    1       -5.495   0.805   3.239  0.00  0.00    +0.020 A 
BRANCH  22  25
ATOM     25  C   LIG    1       -3.596  -0.086   0.101  0.00  0.00    +0.380 C 
BRANCH  25  26
ATOM     26  N   LIG    1       -2.300  -0.650   0.488  0.00  0.00    -0.380 N 
ATOM     27  C   LIG    1       -1.938  -1.944   0.442  0.00  0.00    +0.470 A 
ATOM     28  N   LIG    1       -0.704  -2.035   0.864  0.00  0.00    -0.550 NA
ATOM     29  C   LIG    1       -0.248  -0.827   1.193  0.00  0.00    +0.420 A 
ATOM     30  N   LIG    1       -1.190   0.054   0.983  0.00  0.00    -0.310 NA
ENDBRANCH  25  26
ENDBRANCH  22  25
ENDBRANCH   2  19
TORSDOF 7
