REMARK  Name = ZINCqH0000034xJd.0
REMARK                            x       y       z     vdW  Elec       q    Type
REMARK                         _______ _______ _______ _____ _____    ______ ____
ROOT
ATOM      1  C   LIG    1       -4.872   1.034   0.264  0.00  0.00    -0.120 A 
ATOM      2  C   LIG    1       -4.876  -0.362   0.247  0.00  0.00    +0.030 A 
ATOM      3  C   LIG    1       -6.069  -1.049   0.349  0.00  0.00    +0.040 A 
ATOM      4  C   LIG    1       -7.262  -0.360   0.457  0.00  0.00    +0.020 A 
ATOM      5  C   LIG    1       -7.269   1.030   0.469  0.00  0.00    +0.140 A 
ATOM      6  C   LIG    1       -6.076   1.730   0.373  0.00  0.00    +0.100 A 
ENDROOT
BRANCH   1   9
ATOM      7  N   LIG    1       -2.433   1.099   0.054  0.00  0.00    -0.660 N 
ATOM      8  H   LIG    1       -2.439   0.133  -0.037  0.00  0.00    +0.410 HD
ATOM      9  C   LIG    1       -3.595   1.773   0.160  0.00  0.00    +0.560 C 
ATOM     10  O   LIG    1       -3.594   2.989   0.169  0.00  0.00    -0.510 OA
BRANCH   7  14
ATOM     11  C   LIG    1        1.186   3.078   0.081  0.00  0.00    +0.390 A 
ATOM     12  C   LIG    1        0.102   3.675   0.717  0.00  0.00    -0.080 A 
ATOM     13  C   LIG    1       -1.120   3.028   0.715  0.00  0.00    +0.110 A 
ATOM     14  C   LIG    1       -1.216   1.793   0.076  0.00  0.00    +0.030 A 
ATOM     15  C   LIG    1       -0.094   1.261  -0.541  0.00  0.00    +0.290 A 
ATOM     16  N   LIG    1        1.057   1.906  -0.520  0.00  0.00    -0.520 NA
BRANCH  11  18
ATOM     17  C   LIG    1        2.602   4.964   0.832  0.00  0.00    +0.280 C 
ATOM     18  N   LIG    1        2.421   3.721   0.077  0.00  0.00    -0.620 N 
ATOM     19  C   LIG    1        3.539   3.155  -0.681  0.00  0.00    +0.290 C 
ENDBRANCH  11  18
ENDBRANCH   7  14
ENDBRANCH   1   9
BRANCH   5  20
ATOM     20  N   LIG    1       -8.479   1.723   0.579  0.00  0.00    -0.670 N 
ATOM     21  H   LIG    1       -9.197   1.362   1.122  0.00  0.00    +0.410 HD
ATOM     22  C   LIG    1       -8.647   2.891  -0.071  0.00  0.00    +0.590 C 
ATOM     23  O   LIG    1       -7.720   3.386  -0.684  0.00  0.00    -0.500 OA
BRANCH  22  24
ATOM     24  C   LIG    1       -9.948   3.566  -0.041  0.00  0.00    -0.280 A 
ATOM     25  C   LIG    1      -10.242   4.750  -0.657  0.00  0.00    +0.120 A 
ATOM     26  C   LIG    1      -11.542   5.155  -0.465  0.00  0.00    +0.000 A 
ATOM     27  C   LIG    1      -12.287   4.333   0.283  0.00  0.00    -0.050 A 
ATOM     28  S   LIG    1      -11.382   2.978   0.789  0.00  0.00    +0.200 S 
ENDBRANCH  22  24
ENDBRANCH   5  20
TORSDOF 5
