REMARK  Name = ZINCvU00000008P7.0
REMARK                            x       y       z     vdW  Elec       q    Type
REMARK                         _______ _______ _______ _____ _____    ______ ____
ROOT
ATOM      1  C   LIG    1       -1.252   3.530   0.033  0.00  0.00    +0.300 C 
ENDROOT
BRANCH   1   2
ATOM      2  C   LIG    1       -1.131   4.045  -1.378  0.00  0.00    -0.110 A 
ATOM      3  C   LIG    1       -1.800   3.408  -2.406  0.00  0.00    +0.030 A 
ATOM      4  C   LIG    1       -1.693   3.883  -3.700  0.00  0.00    +0.000 A 
ATOM      5  C   LIG    1       -0.910   4.990  -3.967  0.00  0.00    +0.010 A 
ATOM      6  C   LIG    1       -0.237   5.625  -2.939  0.00  0.00    +0.010 A 
ATOM      7  C   LIG    1       -0.348   5.152  -1.645  0.00  0.00    +0.010 A 
ENDBRANCH   1   2
BRANCH   1  10
ATOM      8  N   LIG    1       -2.787   5.333   0.749  0.00  0.00    -0.660 N 
ATOM      9  H   LIG    1       -2.100   5.973   0.506  0.00  0.00    +0.410 HD
ATOM     10  C   LIG    1       -2.547   4.012   0.635  0.00  0.00    +0.520 C 
ATOM     11  O   LIG    1       -3.374   3.210   1.016  0.00  0.00    -0.500 OA
BRANCH   8  16
ATOM     12  C   LIG    1       -5.932   5.508   2.652  0.00  0.00    +0.150 A 
ATOM     13  C   LIG    1       -6.482   6.674   2.140  0.00  0.00    -0.090 A 
ATOM     14  C   LIG    1       -5.806   7.391   1.170  0.00  0.00    +0.070 A 
ATOM     15  C   LIG    1       -4.580   6.952   0.712  0.00  0.00    -0.050 A 
ATOM     16  C   LIG    1       -4.027   5.781   1.217  0.00  0.00    +0.180 A 
ATOM     17  C   LIG    1       -4.704   5.061   2.191  0.00  0.00    -0.010 A 
BRANCH  12  19
ATOM     18  C   LIG    1       -7.858   5.324   4.034  0.00  0.00    +0.250 C 
ATOM     19  O   LIG    1       -6.597   4.804   3.606  0.00  0.00    -0.310 OA
ENDBRANCH  12  19
ENDBRANCH   8  16
ENDBRANCH   1  10
BRANCH   1  20
ATOM     20  N   LIG    1       -1.234   2.065   0.021  0.00  0.00    -0.730 N 
ATOM     21  H   LIG    1       -2.068   1.570   0.015  0.00  0.00    +0.410 HD
BRANCH  20  22
ATOM     22  C   LIG    1       -0.016   1.382   0.018  0.00  0.00    +0.220 A 
ATOM     23  C   LIG    1        1.179   2.091   0.021  0.00  0.00    -0.070 A 
ATOM     24  C   LIG    1        2.386   1.418   0.012  0.00  0.00    +0.060 A 
ATOM     25  C   LIG    1        2.412   0.038   0.001  0.00  0.00    -0.040 A 
ATOM     26  C   LIG    1        1.218  -0.682  -0.001  0.00  0.00    +0.020 A 
ATOM     27  C   LIG    1        0.001  -0.005   0.007  0.00  0.00    -0.020 A 
BRANCH  26  28
ATOM     28  C   LIG    1        1.244  -2.165  -0.014  0.00  0.00    +0.110 A 
ATOM     29  C   LIG    1        2.388  -2.879  -0.028  0.00  0.00    -0.070 A 
ATOM     30  S   LIG    1        1.959  -4.588  -0.037  0.00  0.00    +0.130 S 
ATOM     31  C   LIG    1        0.298  -4.184  -0.029  0.00  0.00    +0.050 A 
ATOM     32  C   LIG    1       -0.829  -5.185  -0.035  0.00  0.00    +0.180 C 
ATOM     33  N   LIG    1        0.145  -2.905  -0.018  0.00  0.00    -0.470 NA
ENDBRANCH  26  28
ENDBRANCH  20  22
ENDBRANCH   1  20
TORSDOF 7
