REMARK  Name = ZINCrD000000BzjI.0
REMARK                            x       y       z     vdW  Elec       q    Type
REMARK                         _______ _______ _______ _____ _____    ______ ____
ROOT
ATOM      1  N   LIG    1       -0.016   1.344   0.009  0.00  0.00    -0.520 N 
ATOM      2  H   LIG    1       -0.863   1.817   0.016  0.00  0.00    +0.430 HD
ATOM      3  C   LIG    1        0.002  -0.004   0.002  0.00  0.00    +0.600 C 
ATOM      4  O   LIG    1        1.064  -0.598  -0.011  0.00  0.00    -0.520 OA
ENDROOT
BRANCH   3   5
ATOM      5  C   LIG    1       -1.256  -0.754   0.010  0.00  0.00    -0.260 A 
ATOM      6  C   LIG    1       -1.361  -2.116   0.004  0.00  0.00    +0.130 A 
ATOM      7  C   LIG    1       -2.644  -2.591   0.013  0.00  0.00    +0.020 A 
ATOM      8  C   LIG    1       -3.611  -1.628   0.028  0.00  0.00    -0.110 A 
ATOM      9  S   LIG    1       -2.862  -0.037   0.037  0.00  0.00    +0.180 S 
BRANCH   8  10
ATOM     10  C   LIG    1       -5.066  -1.883   0.041  0.00  0.00    -0.040 A 
ATOM     11  C   LIG    1       -5.547  -3.194   0.034  0.00  0.00    +0.080 A 
ATOM     12  C   LIG    1       -6.906  -3.427   0.051  0.00  0.00    -0.010 A 
ATOM     13  C   LIG    1       -7.794  -2.362   0.066  0.00  0.00    +0.110 A 
ATOM     14  C   LIG    1       -7.322  -1.059   0.068  0.00  0.00    -0.010 A 
ATOM     15  F   LIG    1       -9.125  -2.596   0.078  0.00  0.00    -0.130 F 
ATOM     16  C   LIG    1       -5.965  -0.815   0.055  0.00  0.00    +0.050 A 
ENDBRANCH   8  10
ENDBRANCH   3   5
BRANCH   1  19
ATOM     17  O   LIG    1        0.108   4.002   0.022  0.00  0.00    -0.530 OA
ATOM     18  C   LIG    1        1.169   3.408   0.009  0.00  0.00    +0.570 C 
ATOM     19  N   LIG    1        1.187   2.061   0.002  0.00  0.00    -0.510 N 
ATOM     20  H   LIG    1        2.034   1.587  -0.009  0.00  0.00    +0.430 HD
BRANCH  18  21
ATOM     21  C   LIG    1        2.437   4.163   0.001  0.00  0.00    -0.120 A 
ATOM     22  C   LIG    1        3.657   3.483  -0.014  0.00  0.00    +0.070 A 
ATOM     23  C   LIG    1        4.840   4.190  -0.022  0.00  0.00    +0.040 A 
ATOM     24  C   LIG    1        4.825   5.578  -0.014  0.00  0.00    +0.070 A 
ATOM     25  O   LIG    1        5.838   6.491  -0.019  0.00  0.00    -0.300 OA
ATOM     26  C   LIG    1        5.243   7.731   0.406  0.00  0.00    +0.440 C 
ATOM     27  O   LIG    1        3.865   7.605   0.006  0.00  0.00    -0.300 OA
ATOM     28  C   LIG    1        3.609   6.264   0.001  0.00  0.00    +0.030 A 
ATOM     29  C   LIG    1        2.420   5.561   0.003  0.00  0.00    +0.120 A 
ENDBRANCH  18  21
ENDBRANCH   1  19
TORSDOF 4
