REMARK  Name = ZINCvU0000000Dsd.1
REMARK                            x       y       z     vdW  Elec       q    Type
REMARK                         _______ _______ _______ _____ _____    ______ ____
ROOT
ATOM      1  C   LIG    1        5.946   4.064  -0.035  0.00  0.00    +0.580 C 
ATOM      2  N   LIG    1        4.629   4.352  -0.020  0.00  0.00    -0.460 N 
ATOM      3  N   LIG    1        3.595   3.417  -0.009  0.00  0.00    -0.230 NA
ATOM      4  C   LIG    1        2.416   3.936  -0.000  0.00  0.00    +0.150 C 
ATOM      5  C   LIG    1        2.528   5.444   0.007  0.00  0.00    +0.100 C 
ATOM      6  C   LIG    1        4.048   5.704  -0.007  0.00  0.00    +0.330 C 
ATOM      7  O   LIG    1        6.762   4.961  -0.039  0.00  0.00    -0.490 OA
ENDROOT
BRANCH   4   8
ATOM      8  C   LIG    1        1.152   3.177   0.008  0.00  0.00    -0.030 A 
ATOM      9  C   LIG    1        1.173   1.780   0.000  0.00  0.00    +0.080 A 
ATOM     10  C   LIG    1       -0.013   1.076   0.008  0.00  0.00    +0.030 A 
ATOM     11  C   LIG    1       -1.222   1.750   0.017  0.00  0.00    -0.020 A 
ATOM     12  C   LIG    1       -1.250   3.135   0.031  0.00  0.00    +0.030 A 
ATOM     13 CL   LIG    1       -2.710   0.856   0.019  0.00  0.00    -0.060 Cl
ATOM     14  C   LIG    1       -0.071   3.851   0.023  0.00  0.00    +0.070 A 
ENDBRANCH   4   8
BRANCH   6  15
ATOM     15  C   LIG    1        4.445   6.463  -1.246  0.00  0.00    -0.030 A 
ATOM     16  C   LIG    1        4.674   7.787  -1.318  0.00  0.00    -0.030 A 
ATOM     17  C   LIG    1        5.020   8.071  -2.659  0.00  0.00    -0.060 A 
ATOM     18  C   LIG    1        4.973   6.905  -3.329  0.00  0.00    +0.170 A 
ATOM     19  O   LIG    1        4.625   5.935  -2.468  0.00  0.00    -0.170 OA
ENDBRANCH   6  15
BRANCH   1  20
ATOM     20  C   LIG    1        6.403   2.628  -0.048  0.00  0.00    +0.140 C 
BRANCH  20  21
ATOM     21  S   LIG    1        8.212   2.572  -0.067  0.00  0.00    +0.070 S 
BRANCH  21  28
ATOM     22  C   LIG    1       10.619  -4.744  -0.129  0.00  0.00    +0.100 C 
ATOM     23  C   LIG    1        9.721  -3.534  -0.114  0.00  0.00    -0.070 A 
ATOM     24  C   LIG    1        8.345  -3.697  -0.101  0.00  0.00    +0.010 A 
ATOM     25  C   LIG    1        7.511  -2.601  -0.087  0.00  0.00    +0.070 A 
ATOM     26  C   LIG    1        8.055  -1.315  -0.085  0.00  0.00    +0.050 A 
ATOM     27  N   LIG    1        7.510  -0.070  -0.073  0.00  0.00    -0.490 NA
ATOM     28  C   LIG    1        8.464   0.828  -0.078  0.00  0.00    +0.250 A 
ATOM     29  N   LIG    1        9.683   0.211  -0.100  0.00  0.00    -0.580 N 
ATOM     30  H   LIG    1       10.549   0.648  -0.111  0.00  0.00    +0.430 HD
ATOM     31  C   LIG    1        9.451  -1.155  -0.099  0.00  0.00    +0.060 A 
ATOM     32  C   LIG    1       10.275  -2.269  -0.113  0.00  0.00    +0.010 A 
ENDBRANCH  21  28
ENDBRANCH  20  21
ENDBRANCH   1  20
TORSDOF 5
