REMARK  Name = ZINCvU0000000Dsd.0
REMARK                            x       y       z     vdW  Elec       q    Type
REMARK                         _______ _______ _______ _____ _____    ______ ____
ROOT
ATOM      1  C   LIG    1        8.011  -1.363  -0.081  0.00  0.00    +0.580 C 
ATOM      2  N   LIG    1        8.469  -2.630  -0.093  0.00  0.00    -0.460 N 
ATOM      3  N   LIG    1        7.679  -3.777  -0.093  0.00  0.00    -0.230 NA
ATOM      4  C   LIG    1        8.348  -4.878  -0.106  0.00  0.00    +0.150 C 
ATOM      5  C   LIG    1        9.828  -4.569  -0.118  0.00  0.00    +0.100 C 
ATOM      6  C   LIG    1        9.886  -3.028  -0.114  0.00  0.00    +0.330 C 
ATOM      7  O   LIG    1        8.793  -0.435  -0.083  0.00  0.00    -0.490 OA
ENDROOT
BRANCH   4   8
ATOM      8  C   LIG    1        7.761  -6.231  -0.109  0.00  0.00    -0.030 A 
ATOM      9  C   LIG    1        8.590  -7.355  -0.129  0.00  0.00    +0.070 A 
ATOM     10  C   LIG    1        8.035  -8.617  -0.125  0.00  0.00    +0.030 A 
ATOM     11  C   LIG    1        6.659  -8.772  -0.114  0.00  0.00    -0.020 A 
ATOM     12  C   LIG    1        5.832  -7.662  -0.100  0.00  0.00    +0.030 A 
ATOM     13 CL   LIG    1        5.968 -10.365  -0.117  0.00  0.00    -0.060 Cl
ATOM     14  C   LIG    1        6.374  -6.394  -0.097  0.00  0.00    +0.080 A 
ENDBRANCH   4   8
BRANCH   6  15
ATOM     15  C   LIG    1       10.595  -2.529   1.118  0.00  0.00    -0.030 A 
ATOM     16  C   LIG    1       11.851  -2.050   1.163  0.00  0.00    -0.030 A 
ATOM     17  C   LIG    1       12.107  -1.697   2.508  0.00  0.00    -0.060 A 
ATOM     18  C   LIG    1       10.995  -1.990   3.206  0.00  0.00    +0.170 A 
ATOM     19  O   LIG    1       10.083  -2.493   2.359  0.00  0.00    -0.170 OA
ENDBRANCH   6  15
BRANCH   1  20
ATOM     20  C   LIG    1        6.528  -1.097  -0.066  0.00  0.00    +0.140 C 
BRANCH  20  21
ATOM     21  S   LIG    1        6.234   0.689  -0.053  0.00  0.00    +0.070 S 
BRANCH  21  29
ATOM     22  C   LIG    1       -1.296  -0.770   0.010  0.00  0.00    +0.100 C 
ATOM     23  C   LIG    1        0.002  -0.004   0.002  0.00  0.00    -0.090 A 
ATOM     24  C   LIG    1       -0.017   1.382   0.010  0.00  0.00    +0.030 A 
ATOM     25  C   LIG    1        1.164   2.098   0.002  0.00  0.00    +0.020 A 
ATOM     26  C   LIG    1        2.377   1.427  -0.013  0.00  0.00    +0.050 A 
ATOM     27  N   LIG    1        3.700   1.836  -0.023  0.00  0.00    -0.580 N 
ATOM     28  H   LIG    1        4.019   2.752  -0.021  0.00  0.00    +0.430 HD
ATOM     29  C   LIG    1        4.472   0.709  -0.037  0.00  0.00    +0.250 A 
ATOM     30  N   LIG    1        3.707  -0.355  -0.036  0.00  0.00    -0.490 NA
ATOM     31  C   LIG    1        2.402   0.022  -0.021  0.00  0.00    +0.060 A 
ATOM     32  C   LIG    1        1.198  -0.687  -0.013  0.00  0.00    +0.060 A 
ENDBRANCH  21  29
ENDBRANCH  20  21
ENDBRANCH   1  20
TORSDOF 5
