REMARK  Name = ZINCpk00001AZiy9.0
REMARK                            x       y       z     vdW  Elec       q    Type
REMARK                         _______ _______ _______ _____ _____    ______ ____
ROOT
ATOM      1  C   LIG    1        1.693  -1.342  -0.053  0.00  0.00    +0.220 C 
ENDROOT
BRANCH   1   6
ATOM      2  N   LIG    1        1.807   1.202  -0.197  0.00  0.00    -0.300 N 
ATOM      3  N   LIG    1        0.990   2.173   0.036  0.00  0.00    -0.090 NA
ATOM      4  N   LIG    1       -0.133   1.685   0.433  0.00  0.00    -0.070 NA
ATOM      5  N   LIG    1       -0.055   0.399   0.460  0.00  0.00    -0.270 NA
ATOM      6  C   LIG    1        1.150   0.058   0.070  0.00  0.00    +0.200 A 
BRANCH   2   8
ATOM      7  C   LIG    1        3.203   1.440  -2.191  0.00  0.00    +0.060 C 
ATOM      8  C   LIG    1        3.190   1.322  -0.666  0.00  0.00    +0.320 C 
ENDBRANCH   2   8
ENDBRANCH   1   6
BRANCH   1   9
ATOM      9  C   LIG    1        1.656  -2.026   1.315  0.00  0.00    +0.120 C 
ATOM     10  F   LIG    1        2.270  -3.280   1.226  0.00  0.00    -0.180 F 
ATOM     11  C   LIG    1        0.202  -2.201   1.758  0.00  0.00    +0.090 C 
BRANCH   9  12
ATOM     12  C   LIG    1        2.400  -1.164   2.337  0.00  0.00    +0.100 C 
ATOM     13  F   LIG    1        1.829   0.113   2.374  0.00  0.00    -0.190 F 
ATOM     14  C   LIG    1        3.872  -1.053   1.934  0.00  0.00    +0.050 C 
ATOM     15  C   LIG    1        2.297  -1.810   3.720  0.00  0.00    +0.070 C 
ENDBRANCH   9  12
ENDBRANCH   1   9
BRANCH   1  16
ATOM     16  N   LIG    1        0.873  -2.103  -1.004  0.00  0.00    -0.500 NA
ATOM     17  C   LIG    1        0.620  -1.324  -2.223  0.00  0.00    +0.210 C 
BRANCH  16  18
ATOM     18  C   LIG    1        1.500  -3.393  -1.325  0.00  0.00    +0.210 C 
BRANCH  18  19
ATOM     19  C   LIG    1        0.560  -4.209  -2.216  0.00  0.00    +0.170 C 
ATOM     20  C   LIG    1        1.213  -5.553  -2.551  0.00  0.00    +0.150 C 
ATOM     21  N   LIG    1        0.275  -6.363  -3.342  0.00  0.00    -0.540 NA
ATOM     22  C   LIG    1       -0.977  -6.581  -2.602  0.00  0.00    +0.140 C 
ATOM     23  C   LIG    1       -1.607  -5.227  -2.267  0.00  0.00    +0.220 C 
ATOM     24  C   LIG    1        0.884  -7.641  -3.733  0.00  0.00    +0.190 C 
ATOM     25  O   LIG    1       -0.671  -4.440  -1.525  0.00  0.00    -0.360 OA
ENDBRANCH  18  19
ENDBRANCH  16  18
ENDBRANCH   1  16
TORSDOF 7
