REMARK  Name = ZINCvU00000006Av.0
REMARK                            x       y       z     vdW  Elec       q    Type
REMARK                         _______ _______ _______ _____ _____    ______ ____
ROOT
ATOM      1  C   LIG    1        2.462   5.035   0.717  0.00  0.00    +0.520 C 
ATOM      2  N   LIG    1        2.466   3.764   0.271  0.00  0.00    -0.500 N 
ATOM      3  C   LIG    1        1.384   2.927   0.574  0.00  0.00    +0.140 A 
ATOM      4  C   LIG    1        0.093   3.430   0.585  0.00  0.00    -0.010 A 
ATOM      5  C   LIG    1       -0.972   2.598   0.881  0.00  0.00    +0.060 A 
ATOM      6  C   LIG    1       -0.758   1.262   1.161  0.00  0.00    +0.030 A 
ATOM      7  C   LIG    1        0.528   0.750   1.161  0.00  0.00    +0.080 A 
ATOM      8  C   LIG    1        1.597   1.577   0.866  0.00  0.00    -0.130 A 
ATOM      9  S   LIG    1        3.245   0.947   0.855  0.00  0.00    +0.030 S 
ATOM     10  C   LIG    1        4.025   2.003  -0.325  0.00  0.00    -0.130 A 
ATOM     11  C   LIG    1        5.092   1.548  -1.080  0.00  0.00    +0.070 A 
ATOM     12  C   LIG    1        5.692   2.391  -1.999  0.00  0.00    +0.030 A 
ATOM     13  C   LIG    1        5.227   3.682  -2.162  0.00  0.00    +0.050 A 
ATOM     14  C   LIG    1        4.161   4.143  -1.409  0.00  0.00    +0.040 A 
ATOM     15  C   LIG    1        3.551   3.306  -0.488  0.00  0.00    +0.140 A 
ATOM     16  O   LIG    1        3.430   5.744   0.539  0.00  0.00    -0.470 OA
ENDROOT
BRANCH   1  17
ATOM     17  C   LIG    1        1.254   5.577   1.438  0.00  0.00    +0.280 C 
BRANCH  17  18
ATOM     18  O   LIG    1        1.584   6.856   2.041  0.00  0.00    -0.330 OA
BRANCH  18  19
ATOM     19  C   LIG    1        0.606   7.479   2.727  0.00  0.00    +0.520 C 
ATOM     20  O   LIG    1       -0.492   6.967   2.819  0.00  0.00    -0.500 OA
BRANCH  19  24
ATOM     21  C   LIG    1        1.362  11.229   4.568  0.00  0.00    +0.170 A 
ATOM     22  C   LIG    1        0.104  10.646   4.674  0.00  0.00    -0.030 A 
ATOM     23  C   LIG    1       -0.145   9.430   4.079  0.00  0.00    +0.140 A 
ATOM     24  C   LIG    1        0.868   8.782   3.366  0.00  0.00    -0.170 A 
ATOM     25  C   LIG    1        2.133   9.369   3.266  0.00  0.00    +0.130 A 
ATOM     26  C   LIG    1        2.372  10.588   3.861  0.00  0.00    -0.090 A 
BRANCH  21  27
ATOM     27  O   LIG    1        1.604  12.428   5.157  0.00  0.00    -0.310 OA
BRANCH  27  28
ATOM     28  C   LIG    1        2.917  12.970   5.008  0.00  0.00    +0.190 C 
BRANCH  28  29
ATOM     29  C   LIG    1        2.999  14.315   5.734  0.00  0.00    +0.040 C 
BRANCH  29  31
ATOM     30  C   LIG    1        4.487  16.240   6.300  0.00  0.00    +0.030 C 
ATOM     31  C   LIG    1        4.405  14.896   5.575  0.00  0.00    +0.020 C 
ENDBRANCH  29  31
ENDBRANCH  28  29
ENDBRANCH  27  28
ENDBRANCH  21  27
ENDBRANCH  19  24
ENDBRANCH  18  19
ENDBRANCH  17  18
ENDBRANCH   1  17
TORSDOF 8
