REMARK  Name = ZINCrD000000fL6m.0
REMARK                            x       y       z     vdW  Elec       q    Type
REMARK                         _______ _______ _______ _____ _____    ______ ____
ROOT
ATOM      1  N   LIG    1        0.709  -1.442  -2.213  0.00  0.00    -0.420 N 
ATOM      2  C   LIG    1        1.394  -1.151  -3.363  0.00  0.00    +0.400 A 
ATOM      3  N   LIG    1        1.578   0.139  -3.388  0.00  0.00    -0.280 NA
ATOM      4  N   LIG    1        1.057   0.681  -2.345  0.00  0.00    -0.290 NA
ATOM      5  C   LIG    1        0.514  -0.242  -1.585  0.00  0.00    +0.150 A 
ENDROOT
BRANCH   1  10
ATOM      6  C   LIG    1       -0.808  -4.799  -2.190  0.00  0.00    +0.160 A 
ATOM      7  C   LIG    1       -0.525  -5.204  -0.891  0.00  0.00    +0.040 A 
ATOM      8  C   LIG    1        0.163  -4.362  -0.039  0.00  0.00    +0.060 A 
ATOM      9  C   LIG    1        0.577  -3.119  -0.476  0.00  0.00    +0.020 A 
ATOM     10  C   LIG    1        0.293  -2.707  -1.772  0.00  0.00    +0.120 A 
ATOM     11  C   LIG    1       -0.398  -3.549  -2.630  0.00  0.00    +0.010 A 
BRANCH   6  14
ATOM     12  C   LIG    1       -1.977  -7.892  -3.989  0.00  0.00    +0.110 C 
ATOM     13  C   LIG    1       -1.305  -6.983  -2.992  0.00  0.00    +0.510 C 
ATOM     14  N   LIG    1       -1.506  -5.652  -3.053  0.00  0.00    -0.680 N 
ATOM     15  H   LIG    1       -2.133  -5.285  -3.695  0.00  0.00    +0.410 HD
ATOM     16  O   LIG    1       -0.585  -7.450  -2.135  0.00  0.00    -0.520 OA
ENDBRANCH   6  14
ENDBRANCH   1  10
BRANCH   5  17
ATOM     17  S   LIG    1       -0.315   0.016  -0.052  0.00  0.00    +0.090 S 
BRANCH  17  18
ATOM     18  C   LIG    1       -0.157   1.814   0.091  0.00  0.00    +0.020 C 
ATOM     19  C   LIG    1        1.319   2.186   0.238  0.00  0.00    +0.080 C 
BRANCH  18  20
ATOM     20  C   LIG    1       -0.918   2.290   1.301  0.00  0.00    +0.540 C 
ATOM     21  N   LIG    1       -1.377   3.556   1.354  0.00  0.00    -0.660 N 
ATOM     22  H   LIG    1       -1.282   4.139   0.584  0.00  0.00    +0.410 HD
ATOM     23  O   LIG    1       -1.119   1.533   2.228  0.00  0.00    -0.500 OA
BRANCH  21  24
ATOM     24  C   LIG    1       -1.989   4.030   2.519  0.00  0.00    +0.140 A 
ATOM     25  C   LIG    1       -3.018   4.959   2.436  0.00  0.00    -0.010 A 
ATOM     26  C   LIG    1       -3.624   5.422   3.587  0.00  0.00    +0.030 A 
ATOM     27  C   LIG    1       -3.200   4.970   4.823  0.00  0.00    -0.010 A 
ATOM     28  C   LIG    1       -2.172   4.048   4.910  0.00  0.00    +0.030 A 
ATOM     29  C   LIG    1       -1.566   3.578   3.762  0.00  0.00    +0.010 A 
ENDBRANCH  21  24
ENDBRANCH  18  20
ENDBRANCH  17  18
ENDBRANCH   5  17
TORSDOF 6
