REMARK  Name = ZINCpk000005NQpM.0
REMARK                            x       y       z     vdW  Elec       q    Type
REMARK                         _______ _______ _______ _____ _____    ______ ____
ROOT
ATOM      1  C   LIG    1       -2.250  -1.183   3.675  0.00  0.00    +0.090 C 
ATOM      2  C   LIG    1       -1.246  -1.207   4.830  0.00  0.00    +0.060 C 
ATOM      3  C   LIG    1       -2.651  -1.781   5.025  0.00  0.00    +0.040 C 
ENDROOT
BRANCH   1   4
ATOM      4  C   LIG    1       -2.015  -2.152   2.515  0.00  0.00    +0.270 C 
ATOM      5  C   LIG    1       -3.346  -2.823   2.114  0.00  0.00    +0.040 C 
ATOM      6  C   LIG    1       -3.247  -2.893   0.567  0.00  0.00    +0.040 C 
ATOM      7  C   LIG    1       -2.499  -1.573   0.245  0.00  0.00    +0.250 C 
ATOM      8  N   LIG    1       -1.525  -1.417   1.340  0.00  0.00    -0.620 N 
ATOM      9  C   LIG    1       -0.378  -0.712   1.277  0.00  0.00    +0.560 C 
ATOM     10  O   LIG    1        0.348  -0.648   2.246  0.00  0.00    -0.510 OA
BRANCH   9  11
ATOM     11  C   LIG    1        0.002  -0.004   0.002  0.00  0.00    -0.070 C 
ATOM     12  C   LIG    1       -0.019   1.526   0.010  0.00  0.00    +0.060 C 
ATOM     13  C   LIG    1        1.317   0.779  -0.006  0.00  0.00    -0.090 C 
ATOM     14  C   LIG    1        2.144   0.783   1.280  0.00  0.00    +0.080 C 
ATOM     15  C   LIG    1        2.120   0.797  -1.308  0.00  0.00    +0.070 C 
ENDBRANCH   9  11
ENDBRANCH   1   4
BRANCH   1  17
ATOM     16  C   LIG    1       -3.075   1.034   4.261  0.00  0.00    +0.620 C 
ATOM     17  N   LIG    1       -2.830   0.112   3.309  0.00  0.00    -0.670 N 
ATOM     18  H   LIG    1       -3.038   0.305   2.382  0.00  0.00    +0.410 HD
ATOM     19  O   LIG    1       -2.814   0.791   5.423  0.00  0.00    -0.510 OA
BRANCH  16  23
ATOM     20  C   LIG    1       -4.981   4.797   1.606  0.00  0.00    +0.200 C 
ATOM     21  C   LIG    1       -4.477   3.949   2.745  0.00  0.00    +0.210 A 
ATOM     22  N   LIG    1       -3.989   2.738   2.649  0.00  0.00    -0.480 NA
ATOM     23  C   LIG    1       -3.660   2.340   3.892  0.00  0.00    +0.140 A 
ATOM     24  N   LIG    1       -3.946   3.322   4.719  0.00  0.00    -0.250 NA
ATOM     25  N   LIG    1       -4.440   4.301   4.043  0.00  0.00    -0.300 N 
ATOM     26  C   LIG    1       -4.887   5.583   4.595  0.00  0.00    +0.370 C 
ENDBRANCH  16  23
ENDBRANCH   1  17
TORSDOF 4
