REMARK  Name = ZINCkj000005h93x.1
REMARK                            x       y       z     vdW  Elec       q    Type
REMARK                         _______ _______ _______ _____ _____    ______ ____
ROOT
ATOM      1  N   LIG    1        0.145   1.250  -0.227  0.00  0.00    -0.760 N 
ATOM      2  H   LIG    1       -0.650   1.803  -0.269  0.00  0.00    +0.390 HD
ATOM      3  C   LIG    1        1.365   1.813  -0.336  0.00  0.00    +0.710 C 
ATOM      4  N   LIG    1        1.479   3.146  -0.497  0.00  0.00    -0.730 N 
ATOM      5  H   LIG    1        0.683   3.700  -0.534  0.00  0.00    +0.400 HD
ATOM      6  O   LIG    1        2.362   1.119  -0.289  0.00  0.00    -0.570 OA
ENDROOT
BRANCH   1   7
ATOM      7  C   LIG    1        0.021  -0.200  -0.053  0.00  0.00    +0.340 C 
BRANCH   7   8
ATOM      8  C   LIG    1       -1.452  -0.566   0.143  0.00  0.00    +0.300 C 
BRANCH   8   9
ATOM      9  C   LIG    1       -1.955   0.044   1.426  0.00  0.00    -0.110 A 
ATOM     10  C   LIG    1       -2.103  -0.601   2.598  0.00  0.00    +0.030 A 
ATOM     11  C   LIG    1       -2.595   0.345   3.526  0.00  0.00    -0.050 A 
ATOM     12  C   LIG    1       -2.726   1.509   2.864  0.00  0.00    +0.230 A 
ATOM     13  O   LIG    1       -2.337   1.320   1.592  0.00  0.00    -0.180 OA
ENDBRANCH   8   9
BRANCH   8  15
ATOM     14  C   LIG    1       -1.730  -0.621  -2.240  0.00  0.00    +0.330 C 
ATOM     15  N   LIG    1       -2.238  -0.049  -0.986  0.00  0.00    -0.390 N 
ATOM     16  C   LIG    1       -3.648  -0.425  -0.812  0.00  0.00    +0.330 C 
ATOM     17  H   LIG    1       -2.160   0.956  -1.018  0.00  0.00    +0.420 HD
ENDBRANCH   8  15
ENDBRANCH   7   8
ENDBRANCH   1   7
BRANCH   4  18
ATOM     18  C   LIG    1        2.804   3.759  -0.615  0.00  0.00    +0.310 C 
BRANCH  18  19
ATOM     19  C   LIG    1        2.654   5.272  -0.788  0.00  0.00    +0.140 C 
ATOM     20  C   LIG    1        4.031   5.924  -1.040  0.00  0.00    +0.010 C 
ATOM     21  C   LIG    1        3.955   7.267  -0.280  0.00  0.00    +0.000 C 
ATOM     22  C   LIG    1        2.540   7.268   0.341  0.00  0.00    +0.200 C 
ATOM     23  O   LIG    1        2.179   5.872   0.437  0.00  0.00    -0.370 OA
ENDBRANCH  18  19
ENDBRANCH   4  18
TORSDOF 6
