REMARK  Name = ZINCpk00000FiBvG.0
REMARK                            x       y       z     vdW  Elec       q    Type
REMARK                         _______ _______ _______ _____ _____    ______ ____
ROOT
ATOM      1  C   LIG    1        6.723   0.567  -0.064  0.00  0.00    +0.290 C 
ENDROOT
BRANCH   1   2
ATOM      2  N   LIG    1        5.384   1.171  -0.048  0.00  0.00    -0.370 N 
ATOM      3  C   LIG    1        4.644   0.746  -1.242  0.00  0.00    +0.250 C 
ATOM      4  C   LIG    1        3.277   1.434  -1.272  0.00  0.00    +0.060 C 
ATOM      5  C   LIG    1        2.490   1.048  -0.016  0.00  0.00    +0.040 C 
ATOM      6  C   LIG    1        3.305   1.428   1.223  0.00  0.00    +0.070 C 
ATOM      7  C   LIG    1        4.671   0.740   1.160  0.00  0.00    +0.250 C 
ATOM      8  H   LIG    1        5.470   2.176  -0.047  0.00  0.00    +0.430 HD
BRANCH   5   9
ATOM      9  C   LIG    1        1.175   1.783   0.000  0.00  0.00    -0.090 A 
ATOM     10  C   LIG    1       -0.013   1.076   0.008  0.00  0.00    +0.010 A 
ATOM     11  C   LIG    1       -1.219   1.751   0.017  0.00  0.00    +0.020 A 
ATOM     12  C   LIG    1       -1.238   3.133   0.030  0.00  0.00    +0.020 A 
ATOM     13  C   LIG    1       -0.050   3.840   0.022  0.00  0.00    +0.010 A 
ATOM     14  C   LIG    1        1.156   3.165   0.008  0.00  0.00    +0.000 A 
ENDBRANCH   5   9
ENDBRANCH   1   2
BRANCH   1  17
ATOM     15  N   LIG    1        8.795   0.681   1.282  0.00  0.00    -0.680 N 
ATOM     16  H   LIG    1        9.190   0.039   0.672  0.00  0.00    +0.410 HD
ATOM     17  C   LIG    1        7.527   1.098   1.095  0.00  0.00    +0.490 C 
ATOM     18  O   LIG    1        7.034   1.900   1.858  0.00  0.00    -0.540 OA
BRANCH  15  19
ATOM     19  C   LIG    1        9.577   1.197   2.409  0.00  0.00    +0.400 C 
BRANCH  19  23
ATOM     20  C   LIG    1       13.047   0.191   2.015  0.00  0.00    +0.080 A 
ATOM     21  N   LIG    1       12.553  -0.758   2.763  0.00  0.00    -0.350 NA
ATOM     22  N   LIG    1       11.309  -0.525   2.992  0.00  0.00    -0.350 NA
ATOM     23  C   LIG    1       10.951   0.578   2.393  0.00  0.00    +0.030 A 
ATOM     24  N   LIG    1       12.044   1.066   1.759  0.00  0.00    -0.570 NA
BRANCH  20  25
ATOM     25  C   LIG    1       14.469   0.294   1.526  0.00  0.00    +0.280 C 
BRANCH  25  27
ATOM     26  C   LIG    1       16.618   1.183   2.107  0.00  0.00    +0.190 C 
ATOM     27  O   LIG    1       15.246   1.026   2.476  0.00  0.00    -0.390 OA
ENDBRANCH  25  27
ENDBRANCH  20  25
ENDBRANCH  19  23
ENDBRANCH  15  19
ENDBRANCH   1  17
TORSDOF 7
