REMARK  Name = ZINCbw0000000HiF.1
REMARK                            x       y       z     vdW  Elec       q    Type
REMARK                         _______ _______ _______ _____ _____    ______ ____
ROOT
ATOM      1  C   LIG    1       -3.095  -0.019   0.032  0.00  0.00    +0.160 C 
ATOM      2  C   LIG    1       -2.572   1.394   0.035  0.00  0.00    +0.120 A 
ATOM      3  C   LIG    1       -1.242   1.770   0.018  0.00  0.00    -0.210 A 
ATOM      4  C   LIG    1       -0.013   1.076   0.008  0.00  0.00    +0.110 A 
ATOM      5  C   LIG    1        1.150   1.774   0.001  0.00  0.00    -0.010 A 
ATOM      6  C   LIG    1        1.167   3.172   0.007  0.00  0.00    -0.040 A 
ATOM      7  C   LIG    1        0.023   3.901   0.022  0.00  0.00    +0.070 A 
ATOM      8 BR   LIG    1        2.831   4.071  -0.005  0.00  0.00    -0.040 Br
ATOM      9  C   LIG    1       -1.224   3.241   0.031  0.00  0.00    +0.110 A 
ATOM     10  N   LIG    1       -2.484   3.636   0.045  0.00  0.00    -0.300 NA
ATOM     11  N   LIG    1       -3.315   2.510   0.048  0.00  0.00    -0.420 N 
ATOM     12  H   LIG    1       -4.284   2.533   0.058  0.00  0.00    +0.440 HD
ENDROOT
TORSDOF 0
