REMARK  Name = ZINCbw0000000HiF.0
REMARK                            x       y       z     vdW  Elec       q    Type
REMARK                         _______ _______ _______ _____ _____    ______ ____
ROOT
ATOM      1  C   LIG    1       -0.013   1.086   0.008  0.00  0.00    +0.170 C 
ATOM      2  C   LIG    1       -0.718   1.572   1.248  0.00  0.00    +0.100 A 
ATOM      3  N   LIG    1       -0.161   1.829   2.397  0.00  0.00    -0.240 NA
ATOM      4  N   LIG    1       -1.126   2.259   3.313  0.00  0.00    -0.510 N 
ATOM      5  H   LIG    1       -0.955   2.510   4.234  0.00  0.00    +0.440 HD
ATOM      6  C   LIG    1       -2.352   2.270   2.701  0.00  0.00    +0.130 A 
ATOM      7  C   LIG    1       -3.637   2.602   3.122  0.00  0.00    +0.030 A 
ATOM      8  C   LIG    1       -4.691   2.504   2.240  0.00  0.00    -0.040 A 
ATOM      9  C   LIG    1       -4.485   2.077   0.933  0.00  0.00    +0.000 A 
ATOM     10  C   LIG    1       -3.234   1.746   0.499  0.00  0.00    +0.110 A 
ATOM     11 BR   LIG    1       -6.436   2.956   2.814  0.00  0.00    -0.040 Br
ATOM     12  C   LIG    1       -2.147   1.844   1.374  0.00  0.00    -0.170 A 
ENDROOT
TORSDOF 0
