REMARK  Name = ZINCrg000000rb2v.0
REMARK                            x       y       z     vdW  Elec       q    Type
REMARK                         _______ _______ _______ _____ _____    ______ ____
ROOT
ATOM      1  C   LIG    1       -0.185   1.132   0.348  0.00  0.00    +0.550 C 
ATOM      2  N   LIG    1       -0.354  -0.203   0.417  0.00  0.00    -0.600 N 
ATOM      3  C   LIG    1       -1.699  -0.797   0.363  0.00  0.00    +0.280 C 
ATOM      4  C   LIG    1       -1.699  -1.894  -0.713  0.00  0.00    +0.170 C 
ATOM      5  N   LIG    1       -0.612  -2.843  -0.437  0.00  0.00    -0.530 NA
ATOM      6  C   LIG    1        0.701  -2.190  -0.523  0.00  0.00    +0.170 C 
ATOM      7  C   LIG    1        0.799  -1.105   0.555  0.00  0.00    +0.290 C 
ATOM      8  O   LIG    1        0.931   1.605   0.399  0.00  0.00    -0.520 OA
ENDROOT
BRANCH   1  10
ATOM      9  C   LIG    1       -1.829   2.056  -1.262  0.00  0.00    +0.110 C 
ATOM     10  C   LIG    1       -1.381   2.037   0.201  0.00  0.00    -0.460 C 
BRANCH  10  11
ATOM     11  S   LIG    1       -0.935   3.717   0.719  0.00  0.00    +2.450 S 
ATOM     12  O   LIG    1       -0.011   4.250  -0.220  0.00  0.00    -0.910 OA
ATOM     13  O   LIG    1       -0.585   3.689   2.096  0.00  0.00    -0.920 OA
BRANCH  11  14
ATOM     14  C   LIG    1       -2.512   4.595   0.541  0.00  0.00    -0.440 C 
ATOM     15  C   LIG    1       -2.341   6.052   0.983  0.00  0.00    +0.030 C 
ATOM     16  C   LIG    1       -3.694   6.763   0.906  0.00  0.00    +0.240 C 
ATOM     17  O   LIG    1       -4.643   6.072   1.722  0.00  0.00    -0.380 OA
ATOM     18  C   LIG    1       -4.879   4.720   1.325  0.00  0.00    +0.230 C 
ATOM     19  C   LIG    1       -3.573   3.926   1.420  0.00  0.00    +0.040 C 
ENDBRANCH  11  14
ENDBRANCH  10  11
ENDBRANCH   1  10
BRANCH   5  20
ATOM     20  C   LIG    1       -0.683  -4.002  -1.337  0.00  0.00    +0.230 C 
BRANCH  20  21
ATOM     21  C   LIG    1       -2.105  -4.496  -1.409  0.00  0.00    -0.070 A 
ATOM     22  C   LIG    1       -2.965  -3.990  -2.367  0.00  0.00    -0.010 A 
ATOM     23  C   LIG    1       -4.270  -4.441  -2.435  0.00  0.00    +0.030 A 
ATOM     24  C   LIG    1       -4.718  -5.399  -1.546  0.00  0.00    -0.010 A 
ATOM     25  C   LIG    1       -3.857  -5.909  -0.584  0.00  0.00    +0.110 A 
ATOM     26  C   LIG    1       -2.547  -5.457  -0.521  0.00  0.00    +0.010 A 
BRANCH  25  27
ATOM     27  O   LIG    1       -4.296  -6.851   0.291  0.00  0.00    -0.500 OA
ATOM     28  H   LIG    1       -4.173  -7.760  -0.016  0.00  0.00    +0.390 HD
ENDBRANCH  25  27
ENDBRANCH  20  21
ENDBRANCH   5  20
TORSDOF 6
