REMARK  Name = ZINCvU00000005D1.0
REMARK                            x       y       z     vdW  Elec       q    Type
REMARK                         _______ _______ _______ _____ _____    ______ ____
ROOT
ATOM      1  C   LIG    1       -2.956   9.113  -0.391  0.00  0.00    +0.350 C 
ENDROOT
BRANCH   1   4
ATOM      2  C   LIG    1       -1.286   5.910   0.086  0.00  0.00    +0.270 A 
ATOM      3  N   LIG    1       -1.419   7.183  -0.117  0.00  0.00    -0.470 NA
ATOM      4  C   LIG    1       -2.651   7.655  -0.162  0.00  0.00    +0.080 A 
ATOM      5  C   LIG    1       -3.604   6.737   0.010  0.00  0.00    -0.060 A 
ATOM      6  S   LIG    1       -2.822   5.174   0.236  0.00  0.00    +0.150 S 
BRANCH   2   9
ATOM      7  C   LIG    1        2.402   5.198   0.112  0.00  0.00    +0.110 C 
ATOM      8  C   LIG    1        1.085   5.930   0.128  0.00  0.00    +0.510 C 
ATOM      9  N   LIG    1       -0.070   5.238   0.163  0.00  0.00    -0.480 N 
ATOM     10  O   LIG    1        1.066   7.143   0.110  0.00  0.00    -0.470 OA
BRANCH   9  11
ATOM     11  C   LIG    1       -0.047   3.842   0.278  0.00  0.00    +0.100 A 
ATOM     12  C   LIG    1       -0.179   3.244   1.525  0.00  0.00    +0.030 A 
ATOM     13  C   LIG    1       -0.155   1.868   1.635  0.00  0.00    +0.030 A 
ATOM     14  C   LIG    1       -0.001   1.085   0.505  0.00  0.00    +0.030 A 
ATOM     15  C   LIG    1        0.136   1.677  -0.737  0.00  0.00    +0.030 A 
ATOM     16  C   LIG    1        0.107   3.053  -0.854  0.00  0.00    +0.030 A 
ENDBRANCH   9  11
ENDBRANCH   2   9
ENDBRANCH   1   4
BRANCH   1  17
ATOM     17  O   LIG    1       -4.394   9.313  -0.388  0.00  0.00    -0.360 OA
BRANCH  17  18
ATOM     18  C   LIG    1       -4.836  10.566  -0.580  0.00  0.00    +0.470 C 
ATOM     19  O   LIG    1       -4.047  11.466  -0.745  0.00  0.00    -0.500 OA
BRANCH  18  20
ATOM     20  C   LIG    1       -6.316  10.850  -0.589  0.00  0.00    +0.130 C 
BRANCH  20  21
ATOM     21  C   LIG    1       -6.547  12.344  -0.825  0.00  0.00    +0.130 C 
BRANCH  21  22
ATOM     22  C   LIG    1       -8.027  12.628  -0.835  0.00  0.00    +0.160 A 
ATOM     23  N   LIG    1       -8.799  11.965  -1.662  0.00  0.00    -0.470 NA
ATOM     24  C   LIG    1      -10.118  12.179  -1.704  0.00  0.00    +0.130 A 
ATOM     25  C   LIG    1      -10.941  11.462  -2.589  0.00  0.00    +0.050 A 
ATOM     26  C   LIG    1      -12.280  11.704  -2.613  0.00  0.00    +0.030 A 
ATOM     27  C   LIG    1      -12.853  12.655  -1.771  0.00  0.00    +0.010 A 
ATOM     28  C   LIG    1      -12.088  13.370  -0.900  0.00  0.00    +0.030 A 
ATOM     29  C   LIG    1      -10.703  13.145  -0.849  0.00  0.00    -0.110 A 
ATOM     30  C   LIG    1       -9.877  13.862   0.037  0.00  0.00    +0.090 A 
ATOM     31  C   LIG    1       -8.538  13.591   0.032  0.00  0.00    -0.030 A 
ENDBRANCH  21  22
ENDBRANCH  20  21
ENDBRANCH  18  20
ENDBRANCH  17  18
ENDBRANCH   1  17
TORSDOF 8
