REMARK  Name = ZINCrD000000ALRA.0
REMARK                            x       y       z     vdW  Elec       q    Type
REMARK                         _______ _______ _______ _____ _____    ______ ____
ROOT
ATOM      1  O   LIG    1        4.126  -0.828  -0.234  0.00  0.00    -0.510 OA
ATOM      2  C   LIG    1        5.111  -0.125  -0.127  0.00  0.00    +0.550 C 
ATOM      3  N   LIG    1        6.336  -0.685  -0.078  0.00  0.00    -0.720 N 
ATOM      4  H   LIG    1        7.123  -0.124   0.008  0.00  0.00    +0.400 HD
ENDROOT
BRANCH   3   5
ATOM      5  C   LIG    1        6.479  -2.141  -0.153  0.00  0.00    +0.240 C 
ATOM      6  C   LIG    1        6.308  -2.743   1.243  0.00  0.00    +0.020 C 
ATOM      7  C   LIG    1        6.453  -4.264   1.164  0.00  0.00    +0.020 C 
ATOM      8  C   LIG    1        7.839  -4.615   0.619  0.00  0.00    +0.260 C 
ATOM      9  O   LIG    1        8.845  -4.089   1.500  0.00  0.00    -0.370 OA
ATOM     10  C   LIG    1        9.185  -5.192   2.374  0.00  0.00    +0.200 C 
ATOM     11  C   LIG    1        9.082  -6.401   1.411  0.00  0.00    +0.200 C 
ATOM     12  C   LIG    1        8.017  -4.010  -0.774  0.00  0.00    +0.050 C 
ATOM     13  O   LIG    1        7.983  -6.039   0.549  0.00  0.00    -0.380 OA
ATOM     14  C   LIG    1        7.868  -2.490  -0.692  0.00  0.00    +0.040 C 
ENDBRANCH   3   5
BRANCH   2  15
ATOM     15  C   LIG    1        4.967   1.345  -0.051  0.00  0.00    -0.110 A 
ATOM     16  C   LIG    1        6.094   2.160  -0.050  0.00  0.00    +0.040 A 
ATOM     17  C   LIG    1        5.954   3.534   0.022  0.00  0.00    +0.030 A 
ATOM     18  C   LIG    1        4.697   4.107   0.093  0.00  0.00    +0.050 A 
ATOM     19  C   LIG    1        3.565   3.314   0.087  0.00  0.00    +0.050 A 
ATOM     20  C   LIG    1        3.687   1.928   0.021  0.00  0.00    -0.090 A 
BRANCH  20  21
ATOM     21  C   LIG    1        2.480   1.075   0.020  0.00  0.00    +0.460 C 
ATOM     22  O   LIG    1        1.809   0.972  -0.989  0.00  0.00    -0.440 OA
BRANCH  21  23
ATOM     23  C   LIG    1        2.088   0.348   1.245  0.00  0.00    -0.140 A 
ATOM     24  C   LIG    1        0.896  -0.380   1.278  0.00  0.00    +0.070 A 
ATOM     25  C   LIG    1        0.534  -1.052   2.427  0.00  0.00    +0.000 A 
ATOM     26  C   LIG    1        1.355  -1.016   3.541  0.00  0.00    +0.040 A 
ATOM     27  C   LIG    1        2.537  -0.297   3.515  0.00  0.00    +0.000 A 
ATOM     28  C   LIG    1        2.909   0.384   2.375  0.00  0.00    +0.050 A 
ENDBRANCH  21  23
ENDBRANCH  20  21
ENDBRANCH   2  15
TORSDOF 4
