REMARK  Name = ZINCrH000004lzUb.0
REMARK                            x       y       z     vdW  Elec       q    Type
REMARK                         _______ _______ _______ _____ _____    ______ ____
ROOT
ATOM      1  C   LIG    1        3.631  -2.018   0.056  0.00  0.00    +0.600 C 
ATOM      2  N   LIG    1        3.620  -0.674  -0.038  0.00  0.00    -0.660 N 
ATOM      3  H   LIG    1        4.456  -0.186  -0.111  0.00  0.00    +0.420 HD
ATOM      4  O   LIG    1        2.583  -2.636   0.064  0.00  0.00    -0.480 OA
ENDROOT
BRANCH   1   6
ATOM      5  C   LIG    1        5.042  -4.086   0.254  0.00  0.00    -0.070 A 
ATOM      6  C   LIG    1        4.909  -2.738   0.150  0.00  0.00    -0.020 A 
ATOM      7  O   LIG    1        6.128  -2.159   0.152  0.00  0.00    -0.180 OA
ATOM      8  C   LIG    1        7.100  -3.087   0.249  0.00  0.00    +0.070 A 
ATOM      9  C   LIG    1        8.487  -3.012   0.291  0.00  0.00    +0.030 A 
ATOM     10  C   LIG    1        9.234  -4.166   0.396  0.00  0.00    +0.060 A 
ATOM     11  C   LIG    1        8.616  -5.407   0.461  0.00  0.00    +0.010 A 
ATOM     12  C   LIG    1        7.254  -5.505   0.421  0.00  0.00    +0.080 A 
ATOM     13  C   LIG    1        6.479  -4.348   0.315  0.00  0.00    -0.130 A 
BRANCH   5  14
ATOM     14  C   LIG    1        3.932  -5.105   0.294  0.00  0.00    +0.260 C 
BRANCH  14  16
ATOM     15  C   LIG    1        2.579  -6.498  -1.111  0.00  0.00    +0.210 C 
ATOM     16  O   LIG    1        3.624  -5.526  -1.036  0.00  0.00    -0.380 OA
ENDBRANCH  14  16
ENDBRANCH   5  14
ENDBRANCH   1   6
BRANCH   2  17
ATOM     17  C   LIG    1        2.405   0.018  -0.030  0.00  0.00    +0.140 A 
ATOM     18  C   LIG    1        2.318   1.263   0.582  0.00  0.00    +0.020 A 
ATOM     19  C   LIG    1        1.118   1.950   0.593  0.00  0.00    +0.030 A 
ATOM     20  C   LIG    1       -0.000   1.404  -0.003  0.00  0.00    +0.030 A 
ATOM     21  C   LIG    1        0.077   0.154  -0.620  0.00  0.00    -0.120 A 
ATOM     22  C   LIG    1        1.286  -0.539  -0.631  0.00  0.00    +0.100 A 
BRANCH  21  23
ATOM     23  C   LIG    1       -1.121  -0.433  -1.259  0.00  0.00    +0.560 C 
ATOM     24  N   LIG    1       -2.289   0.239  -1.246  0.00  0.00    -0.700 N 
ATOM     25  H   LIG    1       -2.344   1.108  -0.817  0.00  0.00    +0.400 HD
ATOM     26  O   LIG    1       -1.051  -1.521  -1.795  0.00  0.00    -0.520 OA
BRANCH  24  27
ATOM     27  C   LIG    1       -3.475  -0.342  -1.879  0.00  0.00    +0.220 C 
ATOM     28  C   LIG    1       -4.343   0.581  -2.736  0.00  0.00    +0.010 C 
ATOM     29  C   LIG    1       -4.844   0.114  -1.368  0.00  0.00    +0.020 C 
ENDBRANCH  24  27
ENDBRANCH  21  23
ENDBRANCH   2  17
TORSDOF 6
