REMARK  Name = ZINCqH0000008pNQ.0
REMARK                            x       y       z     vdW  Elec       q    Type
REMARK                         _______ _______ _______ _____ _____    ______ ____
ROOT
ATOM      1  N   LIG    1       -1.450  -4.610   0.467  0.00  0.00    -0.720 N 
ATOM      2  H   LIG    1       -0.570  -4.903   0.183  0.00  0.00    +0.400 HD
ATOM      3  C   LIG    1       -1.725  -3.293   0.556  0.00  0.00    +0.570 C 
ATOM      4  O   LIG    1       -2.828  -2.926   0.913  0.00  0.00    -0.520 OA
ENDROOT
BRANCH   3   5
ATOM      5  C   LIG    1       -0.688  -2.298   0.222  0.00  0.00    -0.120 A 
ATOM      6  C   LIG    1        0.580  -2.718  -0.186  0.00  0.00    +0.080 A 
ATOM      7  C   LIG    1        1.548  -1.787  -0.498  0.00  0.00    -0.030 A 
ATOM      8  C   LIG    1        1.267  -0.430  -0.406  0.00  0.00    +0.070 A 
ATOM      9  O   LIG    1        2.037   0.669  -0.653  0.00  0.00    -0.290 OA
ATOM     10  C   LIG    1        1.366   1.764  -0.002  0.00  0.00    +0.440 C 
ATOM     11  O   LIG    1       -0.016   1.361   0.009  0.00  0.00    -0.300 OA
ATOM     12  C   LIG    1        0.002  -0.004   0.002  0.00  0.00    +0.040 A 
ATOM     13 CL   LIG    1        3.123  -2.312  -1.005  0.00  0.00    -0.040 Cl
ATOM     14  C   LIG    1       -0.971  -0.933   0.315  0.00  0.00    +0.120 A 
ENDBRANCH   3   5
BRANCH   1  16
ATOM     15  C   LIG    1       -2.477  -5.850   2.307  0.00  0.00    +0.040 C 
ATOM     16  C   LIG    1       -2.479  -5.598   0.798  0.00  0.00    +0.290 C 
BRANCH  16  17
ATOM     17  C   LIG    1       -2.191  -6.887   0.073  0.00  0.00    -0.100 A 
ATOM     18  C   LIG    1       -0.888  -7.336  -0.043  0.00  0.00    +0.040 A 
ATOM     19  C   LIG    1       -0.621  -8.520  -0.703  0.00  0.00    +0.000 A 
ATOM     20  C   LIG    1       -1.661  -9.253  -1.258  0.00  0.00    +0.140 A 
ATOM     21  C   LIG    1       -2.967  -8.797  -1.144  0.00  0.00    +0.010 A 
ATOM     22  C   LIG    1       -3.228  -7.615  -0.479  0.00  0.00    +0.070 A 
BRANCH  20  23
ATOM     23  N   LIG    1       -1.392 -10.453  -1.933  0.00  0.00    -0.410 N 
ATOM     24  C   LIG    1       -0.159 -11.021  -2.127  0.00  0.00    +0.130 A 
ATOM     25  C   LIG    1       -0.358 -12.161  -2.815  0.00  0.00    +0.160 A 
ATOM     26  N   LIG    1       -1.674 -12.287  -3.045  0.00  0.00    -0.480 NA
ATOM     27  C   LIG    1       -2.303 -11.270  -2.522  0.00  0.00    +0.400 A 
ENDBRANCH  20  23
ENDBRANCH  16  17
ENDBRANCH   1  16
TORSDOF 4
