REMARK  Name = ZINCrg000000tVcz.0
REMARK                            x       y       z     vdW  Elec       q    Type
REMARK                         _______ _______ _______ _____ _____    ______ ____
ROOT
ATOM      1  N   LIG    1        2.199   1.298   1.002  0.00  0.00    -0.510 NA
ATOM      2  C   LIG    1        1.464   1.795  -0.169  0.00  0.00    +0.170 C 
ATOM      3  C   LIG    1       -0.004   1.369  -0.066  0.00  0.00    +0.320 C 
ATOM      4  N   LIG    1       -0.055  -0.088   0.127  0.00  0.00    -0.600 N 
ATOM      5  C   LIG    1        0.764  -0.678   1.197  0.00  0.00    +0.310 C 
ATOM      6  C   LIG    1        2.202  -0.171   1.044  0.00  0.00    +0.200 C 
ENDROOT
BRANCH   4   7
ATOM      7  C   LIG    1       -0.853  -0.884  -0.677  0.00  0.00    +0.410 A 
ATOM      8  C   LIG    1       -1.713  -0.314  -1.570  0.00  0.00    +0.110 A 
ATOM      9  N   LIG    1       -2.487  -1.064  -2.350  0.00  0.00    -0.370 NA
ATOM     10  C   LIG    1       -2.451  -2.376  -2.291  0.00  0.00    +0.270 A 
ATOM     11  C   LIG    1       -1.582  -3.011  -1.387  0.00  0.00    +0.280 A 
ATOM     12  N   LIG    1       -1.325  -4.281  -1.101  0.00  0.00    -0.530 NA
ATOM     13  C   LIG    1       -0.401  -4.346  -0.152  0.00  0.00    +0.480 A 
ATOM     14  N   LIG    1       -0.040  -3.133   0.198  0.00  0.00    -0.350 NA
ATOM     15  N   LIG    1       -0.781  -2.242  -0.586  0.00  0.00    -0.310 N 
ENDBRANCH   4   7
BRANCH   1  18
ATOM     16  O   LIG    1        3.326   3.978   2.116  0.00  0.00    -0.490 OA
ATOM     17  C   LIG    1        3.549   3.339   1.110  0.00  0.00    +0.530 C 
ATOM     18  C   LIG    1        3.568   1.829   1.029  0.00  0.00    +0.190 C 
ATOM     19  C   LIG    1        4.293   1.526  -0.303  0.00  0.00    +0.030 C 
ATOM     20  C   LIG    1        4.028   2.819  -1.106  0.00  0.00    +0.260 C 
ATOM     21  N   LIG    1        3.815   3.867  -0.101  0.00  0.00    -0.560 N 
BRANCH  21  22
ATOM     22  C   LIG    1        3.880   5.239  -0.366  0.00  0.00    +0.160 A 
ATOM     23  C   LIG    1        4.168   5.688  -1.648  0.00  0.00    -0.040 A 
ATOM     24  C   LIG    1        4.226   7.043  -1.907  0.00  0.00    +0.040 A 
ATOM     25  C   LIG    1        4.009   7.953  -0.889  0.00  0.00    -0.020 A 
ATOM     26  C   LIG    1        3.728   7.510   0.390  0.00  0.00    +0.040 A 
ATOM     27  C   LIG    1        3.662   6.156   0.655  0.00  0.00    -0.010 A 
ENDBRANCH  21  22
ENDBRANCH   1  18
TORSDOF 3
