REMARK  Name = ZINCpk00000y50GI.0
REMARK                            x       y       z     vdW  Elec       q    Type
REMARK                         _______ _______ _______ _____ _____    ______ ____
ROOT
ATOM      1  C   LIG    1        1.456   1.971   2.616  0.00  0.00    +0.580 C 
ATOM      2  N   LIG    1        2.161   1.132   1.831  0.00  0.00    -0.680 N 
ATOM      3  H   LIG    1        1.757   0.763   1.029  0.00  0.00    +0.400 HD
ATOM      4  O   LIG    1        1.973   2.458   3.604  0.00  0.00    -0.450 OA
ENDROOT
BRANCH   2   5
ATOM      5  C   LIG    1        3.472   0.793   2.171  0.00  0.00    +0.140 A 
ATOM      6  C   LIG    1        3.828   0.618   3.497  0.00  0.00    +0.110 A 
ATOM      7  C   LIG    1        5.134   0.273   3.845  0.00  0.00    +0.040 A 
ATOM      8  C   LIG    1        6.096   0.111   2.894  0.00  0.00    +0.030 A 
ATOM      9  C   LIG    1        5.776   0.286   1.541  0.00  0.00    -0.020 A 
ATOM     10  C   LIG    1        6.732   0.131   0.520  0.00  0.00    +0.000 A 
ATOM     11  C   LIG    1        6.344   0.317  -0.772  0.00  0.00    +0.230 A 
ATOM     12  N   LIG    1        5.098   0.639  -1.090  0.00  0.00    -0.480 NA
ATOM     13  C   LIG    1        4.154   0.800  -0.190  0.00  0.00    +0.290 A 
ATOM     14  C   LIG    1        4.449   0.631   1.170  0.00  0.00    -0.110 A 
BRANCH   6  15
ATOM     15  O   LIG    1        2.892   0.778   4.471  0.00  0.00    -0.460 OA
ATOM     16  H   LIG    1        2.468  -0.045   4.748  0.00  0.00    +0.380 HD
ENDBRANCH   6  15
ENDBRANCH   2   5
BRANCH   1  20
ATOM     17  C   LIG    1       -2.024   3.080   2.360  0.00  0.00    -0.760 A 
ATOM     18  C   LIG    1       -1.858   2.433   1.182  0.00  0.00    +0.340 A 
ATOM     19  N   LIG    1       -0.594   1.947   1.123  0.00  0.00    -0.420 N 
ATOM     20  C   LIG    1        0.066   2.296   2.279  0.00  0.00    -0.060 A 
ATOM     21  C   LIG    1       -0.023   1.184   0.010  0.00  0.00    +0.330 C 
ATOM     22  C   LIG    1       -0.818   3.006   3.064  0.00  0.00    +0.160 A 
BRANCH  17  23
ATOM     23  S   LIG    1       -3.497   3.879   2.907  0.00  0.00    +2.730 S 
ATOM     24  O   LIG    1       -3.423   3.929   4.325  0.00  0.00    -0.960 OA
ATOM     25  O   LIG    1       -4.569   3.266   2.205  0.00  0.00    -0.960 OA
BRANCH  23  27
ATOM     26  C   LIG    1       -3.449   5.739   0.944  0.00  0.00    +0.290 C 
ATOM     27  N   LIG    1       -3.428   5.447   2.380  0.00  0.00    -1.120 NA
ATOM     28  H   LIG    1       -3.374   6.172   3.021  0.00  0.00    +0.420 HD
ENDBRANCH  23  27
ENDBRANCH  17  23
ENDBRANCH   1  20
TORSDOF 5
