REMARK  Name = ZINCrD00000759SX.0
REMARK                            x       y       z     vdW  Elec       q    Type
REMARK                         _______ _______ _______ _____ _____    ______ ____
ROOT
ATOM      1  C   LIG    1        3.466   0.517   2.837  0.00  0.00    +0.600 C 
ATOM      2  N   LIG    1        2.267   1.033   3.173  0.00  0.00    -0.610 N 
ATOM      3  C   LIG    1        1.341   0.277   4.028  0.00  0.00    +0.260 C 
ATOM      4  C   LIG    1       -0.002   0.147   3.300  0.00  0.00    +0.270 C 
ATOM      5  N   LIG    1       -0.407   1.476   2.819  0.00  0.00    -0.610 N 
ATOM      6  C   LIG    1        0.520   2.231   1.964  0.00  0.00    +0.290 C 
ATOM      7  C   LIG    1       -1.607   1.989   3.151  0.00  0.00    +0.570 C 
ATOM      8  O   LIG    1       -1.895   3.124   2.824  0.00  0.00    -0.510 OA
ATOM      9  C   LIG    1        1.863   2.361   2.692  0.00  0.00    +0.290 C 
ATOM     10  O   LIG    1        4.268   1.193   2.220  0.00  0.00    -0.500 OA
ENDROOT
BRANCH   7  11
ATOM     11  C   LIG    1       -2.574   1.173   3.913  0.00  0.00    -0.160 A 
ATOM     12  C   LIG    1       -2.594  -0.214   3.763  0.00  0.00    +0.090 A 
ATOM     13  C   LIG    1       -3.496  -0.971   4.482  0.00  0.00    -0.060 A 
ATOM     14  C   LIG    1       -4.389  -0.357   5.344  0.00  0.00    +0.100 A 
ATOM     15  C   LIG    1       -4.381   1.017   5.495  0.00  0.00    +0.020 A 
ATOM     16 CL   LIG    1       -3.517  -2.698   4.300  0.00  0.00    -0.050 Cl
ATOM     17  C   LIG    1       -3.479   1.788   4.785  0.00  0.00    +0.170 A 
ATOM     18  F   LIG    1       -3.472   3.131   4.933  0.00  0.00    -0.110 F 
ENDBRANCH   7  11
BRANCH   1  23
ATOM     19  C   LIG    1        3.737  -4.766   3.937  0.00  0.00    +0.190 C 
ATOM     20  C   LIG    1        3.924  -3.287   3.719  0.00  0.00    -0.130 A 
ATOM     21  C   LIG    1        5.054  -2.619   3.976  0.00  0.00    -0.070 A 
ATOM     22  C   LIG    1        5.011  -1.272   3.704  0.00  0.00    +0.160 A 
ATOM     23  C   LIG    1        3.804  -0.858   3.214  0.00  0.00    -0.270 A 
ATOM     24  S   LIG    1        2.719  -2.239   3.117  0.00  0.00    +0.320 S 
BRANCH  21  25
ATOM     25  N   LIG    1        6.263  -3.282   4.514  0.00  0.00    +0.050 N 
ATOM     26  O   LIG    1        6.252  -4.479   4.739  0.00  0.00    -0.150 OA
ATOM     27  O   LIG    1        7.269  -2.631   4.732  0.00  0.00    -0.150 OA
ENDBRANCH  21  25
ENDBRANCH   1  23
TORSDOF 3
