REMARK  Name = ZINCrD00000l1NRa.0
REMARK                            x       y       z     vdW  Elec       q    Type
REMARK                         _______ _______ _______ _____ _____    ______ ____
ROOT
ATOM      1  N   LIG    1        2.403   1.104  -0.015  0.00  0.00    -0.670 N 
ATOM      2  H   LIG    1        3.159   1.473  -0.498  0.00  0.00    +0.410 HD
ATOM      3  C   LIG    1        2.531  -0.063   0.647  0.00  0.00    +0.560 C 
ATOM      4  O   LIG    1        1.563  -0.569   1.181  0.00  0.00    -0.520 OA
ENDROOT
BRANCH   3   5
ATOM      5  C   LIG    1        3.847  -0.728   0.724  0.00  0.00    -0.100 A 
ATOM      6  C   LIG    1        3.964  -1.920   1.410  0.00  0.00    +0.130 A 
ATOM      7  C   LIG    1        5.218  -2.558   1.479  0.00  0.00    +0.090 A 
ATOM      8  N   LIG    1        5.660  -3.673   2.035  0.00  0.00    -0.290 NA
ATOM      9  N   LIG    1        7.030  -3.795   1.776  0.00  0.00    -0.420 N 
ATOM     10  H   LIG    1        7.591  -4.528   2.077  0.00  0.00    +0.450 HD
ATOM     11  C   LIG    1        7.454  -2.749   1.052  0.00  0.00    +0.120 A 
ATOM     12  C   LIG    1        8.864  -2.516   0.573  0.00  0.00    +0.160 C 
ATOM     13  C   LIG    1        6.372  -1.923   0.823  0.00  0.00    -0.200 A 
ATOM     14  C   LIG    1        6.186  -0.699   0.141  0.00  0.00    +0.100 A 
ATOM     15  C   LIG    1        4.960  -0.129   0.099  0.00  0.00    -0.010 A 
ENDBRANCH   3   5
BRANCH   1  19
ATOM     16  C   LIG    1       -1.243   3.126   0.011  0.00  0.00    +0.120 A 
ATOM     17  C   LIG    1       -1.220   1.739  -0.004  0.00  0.00    -0.060 A 
ATOM     18  C   LIG    1       -0.013   1.068  -0.007  0.00  0.00    +0.070 A 
ATOM     19  C   LIG    1        1.178   1.783  -0.006  0.00  0.00    +0.110 A 
ATOM     20  C   LIG    1        1.154   3.171   0.004  0.00  0.00    +0.040 A 
ATOM     21  C   LIG    1       -0.054   3.840   0.013  0.00  0.00    +0.010 A 
BRANCH  16  22
ATOM     22  O   LIG    1       -2.432   3.785   0.019  0.00  0.00    -0.310 OA
BRANCH  22  23
ATOM     23  C   LIG    1       -3.617   2.987   0.017  0.00  0.00    +0.380 C 
BRANCH  23  28
ATOM     24  C   LIG    1       -7.486   5.861  -1.341  0.00  0.00    +0.200 C 
ATOM     25  C   LIG    1       -6.466   5.101  -0.533  0.00  0.00    +0.170 A 
ATOM     26  N   LIG    1       -6.398   5.045   0.763  0.00  0.00    -0.370 NA
ATOM     27  O   LIG    1       -5.468   4.346   1.105  0.00  0.00    +0.090 OA
ATOM     28  C   LIG    1       -4.828   3.884   0.026  0.00  0.00    +0.180 A 
ATOM     29  N   LIG    1       -5.458   4.356  -1.022  0.00  0.00    -0.460 NA
ENDBRANCH  23  28
ENDBRANCH  22  23
ENDBRANCH  16  22
ENDBRANCH   1  19
TORSDOF 5
