REMARK  Name = ZINCpe000000XczD.0
REMARK                            x       y       z     vdW  Elec       q    Type
REMARK                         _______ _______ _______ _____ _____    ______ ____
ROOT
ATOM      1  N   LIG    1       -1.186   1.856  -0.142  0.00  0.00    -0.730 N 
ATOM      2  H   LIG    1       -1.213   2.817  -0.014  0.00  0.00    +0.410 HD
ATOM      3  C   LIG    1       -0.003   1.210  -0.157  0.00  0.00    +0.710 C 
ATOM      4  N   LIG    1        1.143   1.901   0.001  0.00  0.00    -0.690 N 
ATOM      5  H   LIG    1        1.123   2.870   0.053  0.00  0.00    +0.410 HD
ATOM      6  O   LIG    1        0.031   0.006  -0.318  0.00  0.00    -0.570 OA
ENDROOT
BRANCH   4   7
ATOM      7  C   LIG    1        2.363   1.222   0.092  0.00  0.00    +0.230 A 
ATOM      8  C   LIG    1        2.421  -0.028   0.696  0.00  0.00    +0.000 A 
ATOM      9  C   LIG    1        3.626  -0.698   0.779  0.00  0.00    +0.140 A 
ATOM     10  C   LIG    1        4.775  -0.122   0.271  0.00  0.00    -0.700 A 
ATOM     11  C   LIG    1        4.723   1.124  -0.326  0.00  0.00    +0.140 A 
ATOM     12  C   LIG    1        3.520   1.797  -0.417  0.00  0.00    -0.030 A 
BRANCH  10  13
ATOM     13  S   LIG    1        6.311  -0.978   0.385  0.00  0.00    +2.700 S 
ATOM     14  O   LIG    1        7.138  -0.458  -0.647  0.00  0.00    -0.950 OA
ATOM     15  O   LIG    1        5.994  -2.358   0.504  0.00  0.00    -0.950 OA
BRANCH  13  16
ATOM     16  N   LIG    1        7.015  -0.534   1.816  0.00  0.00    -1.010 NA
ATOM     17  C   LIG    1        7.907   0.627   1.865  0.00  0.00    +0.300 C 
ATOM     18  C   LIG    1        6.746  -1.302   3.034  0.00  0.00    +0.300 C 
ENDBRANCH  13  16
ENDBRANCH  10  13
ENDBRANCH   4   7
BRANCH   1  20
ATOM     19  C   LIG    1       -2.712   0.930  -1.814  0.00  0.00    +0.030 C 
ATOM     20  C   LIG    1       -2.432   1.105  -0.320  0.00  0.00    +0.240 C 
BRANCH  20  21
ATOM     21  C   LIG    1       -3.586   1.872   0.329  0.00  0.00    +0.350 C 
BRANCH  21  22
ATOM     22  N   LIG    1       -3.263   2.144   1.732  0.00  0.00    -0.630 N 
ATOM     23  C   LIG    1       -3.589   1.270   2.870  0.00  0.00    +0.250 C 
ATOM     24  C   LIG    1       -3.026   2.028   4.088  0.00  0.00    +0.260 C 
ATOM     25  O   LIG    1       -2.456   3.241   3.515  0.00  0.00    -0.330 OA
ATOM     26  C   LIG    1       -2.629   3.232   2.189  0.00  0.00    +0.650 C 
ATOM     27  O   LIG    1       -2.245   4.129   1.464  0.00  0.00    -0.530 OA
ENDBRANCH  21  22
ENDBRANCH  20  21
ENDBRANCH   1  20
TORSDOF 6
