REMARK  Name = ZINCpk00000eaPBg.0
REMARK                            x       y       z     vdW  Elec       q    Type
REMARK                         _______ _______ _______ _____ _____    ______ ____
ROOT
ATOM      1  N   LIG    1       -4.005   5.126  -2.749  0.00  0.00    -0.730 N 
ATOM      2  H   LIG    1       -3.573   4.824  -3.564  0.00  0.00    +0.400 HD
ATOM      3  C   LIG    1       -3.626   4.620  -1.559  0.00  0.00    +0.710 C 
ATOM      4  N   LIG    1       -2.648   3.694  -1.500  0.00  0.00    -0.730 N 
ATOM      5  H   LIG    1       -2.217   3.392  -2.315  0.00  0.00    +0.390 HD
ATOM      6  O   LIG    1       -4.167   4.998  -0.538  0.00  0.00    -0.590 OA
ENDROOT
BRANCH   1   7
ATOM      7  C   LIG    1       -5.067   6.132  -2.813  0.00  0.00    +0.290 C 
BRANCH   7   8
ATOM      8  C   LIG    1       -5.229   6.612  -4.257  0.00  0.00    +0.130 C 
ATOM      9  C   LIG    1       -5.736   5.458  -5.124  0.00  0.00    +0.040 C 
BRANCH   8  13
ATOM     10  C   LIG    1       -1.476   9.735  -3.633  0.00  0.00    +0.050 C 
ATOM     11  C   LIG    1       -2.013   8.562  -4.456  0.00  0.00    +0.150 C 
ATOM     12  C   LIG    1       -3.388   8.151  -3.925  0.00  0.00    +0.150 C 
ATOM     13  N   LIG    1       -3.932   7.076  -4.767  0.00  0.00    -0.530 NA
ATOM     14  C   LIG    1       -4.043   7.515  -6.166  0.00  0.00    +0.150 C 
ATOM     15  C   LIG    1       -2.660   7.932  -6.675  0.00  0.00    +0.160 C 
ATOM     16  C   LIG    1       -2.781   8.466  -8.104  0.00  0.00    +0.050 C 
ATOM     17  O   LIG    1       -2.134   8.956  -5.826  0.00  0.00    -0.380 OA
ENDBRANCH   8  13
ENDBRANCH   7   8
ENDBRANCH   1   7
BRANCH   4  18
ATOM     18  C   LIG    1       -2.237   3.144  -0.206  0.00  0.00    +0.360 C 
BRANCH  18  19
ATOM     19  C   LIG    1       -1.056   2.228  -0.402  0.00  0.00    -0.130 A 
ATOM     20  C   LIG    1       -1.222   0.856  -0.383  0.00  0.00    +0.090 A 
ATOM     21  C   LIG    1       -0.105   0.050  -0.563  0.00  0.00    -0.040 A 
ATOM     22  C   LIG    1        1.127   0.638  -0.765  0.00  0.00    +0.280 A 
ATOM     23  N   LIG    1        1.255   1.952  -0.783  0.00  0.00    -0.510 NA
ATOM     24  C   LIG    1        0.215   2.753  -0.611  0.00  0.00    +0.310 A 
BRANCH  24  25
ATOM     25  N   LIG    1        0.396   4.131  -0.637  0.00  0.00    -0.490 N 
ATOM     26  C   LIG    1        0.949   4.565  -1.928  0.00  0.00    +0.200 C 
ATOM     27  C   LIG    1        1.249   4.572   0.475  0.00  0.00    +0.220 C 
ENDBRANCH  24  25
ENDBRANCH  18  19
ENDBRANCH   4  18
TORSDOF 6
