REMARK  Name = ZINCrH00000No4yu.0
REMARK                            x       y       z     vdW  Elec       q    Type
REMARK                         _______ _______ _______ _____ _____    ______ ____
ROOT
ATOM      1  C   LIG    1        1.403   1.074   4.302  0.00  0.00    +0.330 A 
ATOM      2  N   LIG    1        2.567   0.459   4.219  0.00  0.00    -0.560 NA
ATOM      3  C   LIG    1        3.465   0.567   5.210  0.00  0.00    +0.200 A 
ATOM      4  C   LIG    1        4.710  -0.072   5.155  0.00  0.00    +0.030 A 
ATOM      5  C   LIG    1        5.587   0.071   6.189  0.00  0.00    +0.060 A 
ATOM      6  C   LIG    1        5.264   0.842   7.301  0.00  0.00    +0.000 A 
ATOM      7  C   LIG    1        4.060   1.478   7.387  0.00  0.00    +0.060 A 
ATOM      8  C   LIG    1        3.138   1.353   6.343  0.00  0.00    -0.200 A 
ATOM      9  C   LIG    1        1.873   1.990   6.377  0.00  0.00    +0.480 A 
ATOM     10  N   LIG    1        1.058   1.826   5.345  0.00  0.00    -0.560 NA
ENDROOT
BRANCH   9  11
ATOM     11  N   LIG    1        1.501   2.768   7.454  0.00  0.00    -0.640 N 
ATOM     12  H   LIG    1        2.074   2.821   8.234  0.00  0.00    +0.420 HD
BRANCH  11  13
ATOM     13  C   LIG    1        0.298   3.480   7.420  0.00  0.00    +0.150 A 
ATOM     14  C   LIG    1       -0.171   3.998   6.220  0.00  0.00    +0.030 A 
ATOM     15  C   LIG    1       -1.362   4.696   6.189  0.00  0.00    +0.030 A 
ATOM     16  C   LIG    1       -2.083   4.888   7.354  0.00  0.00    -0.010 A 
ATOM     17  C   LIG    1       -1.616   4.378   8.552  0.00  0.00    +0.030 A 
ATOM     18  C   LIG    1       -0.428   3.675   8.588  0.00  0.00    -0.030 A 
ENDBRANCH  11  13
ENDBRANCH   9  11
BRANCH   1  19
ATOM     19  S   LIG    1        0.259   0.899   2.973  0.00  0.00    +0.070 S 
BRANCH  19  20
ATOM     20  C   LIG    1        1.215  -0.175   1.875  0.00  0.00    +0.080 C 
BRANCH  20  21
ATOM     21  C   LIG    1        0.412  -0.468   0.634  0.00  0.00    +0.440 C 
ATOM     22  O   LIG    1       -0.699   0.004   0.504  0.00  0.00    -0.480 OA
BRANCH  21  25
ATOM     23  C   LIG    1        0.761  -2.463  -2.587  0.00  0.00    +0.140 C 
ATOM     24  C   LIG    1        0.270  -1.463  -1.572  0.00  0.00    +0.350 C 
ATOM     25  C   LIG    1        0.953  -1.294  -0.381  0.00  0.00    -0.310 C 
BRANCH  24  26
ATOM     26  N   LIG    1       -0.837  -0.733  -1.825  0.00  0.00    -0.790 N 
ATOM     27  H   LIG    1       -1.508  -1.067  -2.441  0.00  0.00    +0.410 HD
ATOM     28  H   LIG    1       -0.960   0.126  -1.392  0.00  0.00    +0.420 HD
ENDBRANCH  24  26
BRANCH  25  29
ATOM     29  C   LIG    1        2.207  -1.953  -0.175  0.00  0.00    +0.270 C 
ATOM     30  N   LIG    1        3.202  -2.476  -0.012  0.00  0.00    -0.440 NA
ENDBRANCH  25  29
ENDBRANCH  21  25
ENDBRANCH  20  21
ENDBRANCH  19  20
ENDBRANCH   1  19
TORSDOF 8
