REMARK  Name = ZINCpe000000WuFj.0
REMARK                            x       y       z     vdW  Elec       q    Type
REMARK                         _______ _______ _______ _____ _____    ______ ____
ROOT
ATOM      1  N   LIG    1       -1.272   1.787   1.051  0.00  0.00    -0.720 N 
ATOM      2  H   LIG    1       -1.296   2.755   0.998  0.00  0.00    +0.400 HD
ATOM      3  C   LIG    1       -0.104   1.133   0.888  0.00  0.00    +0.520 C 
ATOM      4  O   LIG    1       -0.073  -0.078   0.954  0.00  0.00    -0.520 OA
ENDROOT
BRANCH   1   5
ATOM      5  C   LIG    1       -2.502   1.036   1.310  0.00  0.00    +0.330 C 
BRANCH   5   9
ATOM      6  C   LIG    1       -5.288   3.532   3.376  0.00  0.00    +0.130 A 
ATOM      7  C   LIG    1       -5.155   2.198   3.730  0.00  0.00    -0.020 A 
ATOM      8  C   LIG    1       -4.255   1.393   3.061  0.00  0.00    +0.070 A 
ATOM      9  C   LIG    1       -3.485   1.916   2.038  0.00  0.00    -0.130 A 
ATOM     10  C   LIG    1       -3.611   3.248   1.687  0.00  0.00    +0.050 A 
ATOM     11  C   LIG    1       -4.515   4.055   2.350  0.00  0.00    -0.070 A 
BRANCH   6  13
ATOM     12  C   LIG    1       -6.256   5.691   3.616  0.00  0.00    +0.250 C 
ATOM     13  O   LIG    1       -6.173   4.327   4.034  0.00  0.00    -0.320 OA
ENDBRANCH   6  13
ENDBRANCH   5   9
BRANCH   5  14
ATOM     14  C   LIG    1       -3.111   0.583  -0.019  0.00  0.00    -0.070 C 
ATOM     15  C   LIG    1       -3.469  -0.898  -0.164  0.00  0.00    +0.010 C 
ATOM     16  C   LIG    1       -2.263  -0.325  -0.912  0.00  0.00    +0.030 C 
ENDBRANCH   5  14
ENDBRANCH   1   5
BRANCH   3  17
ATOM     17  C   LIG    1        1.161   1.905   0.616  0.00  0.00    +0.200 C 
BRANCH  17  18
ATOM     18  N   LIG    1        2.284   0.970   0.471  0.00  0.00    -0.520 NA
ATOM     19  C   LIG    1        2.563   0.282   1.739  0.00  0.00    +0.190 C 
ATOM     20  C   LIG    1        3.684  -0.738   1.527  0.00  0.00    +0.180 C 
ATOM     21  N   LIG    1        4.883  -0.049   1.030  0.00  0.00    -0.530 NA
ATOM     22  C   LIG    1        4.604   0.639  -0.238  0.00  0.00    +0.180 C 
ATOM     23  C   LIG    1        3.483   1.659  -0.026  0.00  0.00    +0.180 C 
BRANCH  21  24
ATOM     24  C   LIG    1        6.006  -0.984   0.885  0.00  0.00    +0.180 C 
BRANCH  24  25
ATOM     25  C   LIG    1        7.320  -0.201   0.846  0.00  0.00    +0.170 C 
BRANCH  25  26
ATOM     26  O   LIG    1        7.523   0.452   2.101  0.00  0.00    -0.560 OA
ATOM     27  H   LIG    1        8.339   0.968   2.149  0.00  0.00    +0.370 HD
ENDBRANCH  25  26
ENDBRANCH  24  25
ENDBRANCH  21  24
ENDBRANCH  17  18
ENDBRANCH   3  17
TORSDOF 9
