REMARK  Name = ZINCpe000000XeXk.0
REMARK                            x       y       z     vdW  Elec       q    Type
REMARK                         _______ _______ _______ _____ _____    ______ ____
ROOT
ATOM      1  C   LIG    1       -0.439  -0.247  -0.024  0.00  0.00    +0.190 C 
ATOM      2  C   LIG    1       -0.466   1.200  -0.522  0.00  0.00    +0.250 C 
ATOM      3  O   LIG    1        0.800   1.806  -0.238  0.00  0.00    -0.360 OA
ATOM      4  C   LIG    1        1.867   1.261  -1.019  0.00  0.00    +0.290 C 
ATOM      5  C   LIG    1        1.839  -0.240  -0.941  0.00  0.00    +0.490 C 
ATOM      6  O   LIG    1        2.821  -0.862  -1.290  0.00  0.00    -0.530 OA
ATOM      7  N   LIG    1        0.770  -0.914  -0.501  0.00  0.00    -0.580 N 
ENDROOT
BRANCH   1  10
ATOM      8  N   LIG    1       -2.788  -0.994   0.178  0.00  0.00    -0.720 N 
ATOM      9  H   LIG    1       -2.827  -0.535   1.032  0.00  0.00    +0.400 HD
ATOM     10  C   LIG    1       -1.650  -0.977  -0.543  0.00  0.00    +0.510 C 
ATOM     11  O   LIG    1       -1.601  -1.551  -1.611  0.00  0.00    -0.510 OA
BRANCH   8  13
ATOM     12  C   LIG    1       -4.749  -0.788  -1.268  0.00  0.00    +0.040 C 
ATOM     13  C   LIG    1       -3.966  -1.704  -0.326  0.00  0.00    +0.240 C 
BRANCH  13  14
ATOM     14  C   LIG    1       -4.858  -2.111   0.848  0.00  0.00    +0.330 C 
BRANCH  14  15
ATOM     15  N   LIG    1       -4.149  -3.082   1.686  0.00  0.00    -0.370 N 
ATOM     16  C   LIG    1       -3.921  -2.970   3.011  0.00  0.00    +0.220 A 
ATOM     17  C   LIG    1       -3.239  -4.070   3.407  0.00  0.00    -0.120 A 
ATOM     18  C   LIG    1       -3.044  -4.882   2.285  0.00  0.00    +0.230 A 
ATOM     19  N   LIG    1       -3.593  -4.293   1.254  0.00  0.00    -0.290 NA
ENDBRANCH  14  15
ENDBRANCH  13  14
ENDBRANCH   8  13
ENDBRANCH   1  10
BRANCH   7  20
ATOM     20  C   LIG    1        0.813  -2.379  -0.498  0.00  0.00    +0.340 C 
BRANCH  20  21
ATOM     21  C   LIG    1        1.403  -2.861   0.802  0.00  0.00    -0.110 A 
ATOM     22  C   LIG    1        2.749  -3.168   0.879  0.00  0.00    +0.040 A 
ATOM     23  C   LIG    1        3.291  -3.607   2.073  0.00  0.00    +0.000 A 
ATOM     24  C   LIG    1        2.486  -3.746   3.187  0.00  0.00    +0.010 A 
ATOM     25  C   LIG    1        1.139  -3.443   3.110  0.00  0.00    +0.000 A 
ATOM     26  C   LIG    1        0.598  -3.001   1.917  0.00  0.00    +0.010 A 
ENDBRANCH  20  21
ENDBRANCH   7  20
TORSDOF 6
