REMARK  Name = ZINCrH000004jIu6.1
REMARK                            x       y       z     vdW  Elec       q    Type
REMARK                         _______ _______ _______ _____ _____    ______ ____
ROOT
ATOM      1  N   LIG    1       -1.191  -2.123   0.315  0.00  0.00    -0.730 N 
ATOM      2  H   LIG    1       -0.345  -2.592   0.235  0.00  0.00    +0.400 HD
ATOM      3  C   LIG    1       -1.217  -0.776   0.316  0.00  0.00    +0.700 C 
ATOM      4  N   LIG    1       -0.069  -0.079   0.205  0.00  0.00    -0.680 N 
ATOM      5  H   LIG    1        0.768  -0.545   0.052  0.00  0.00    +0.410 HD
ATOM      6  O   LIG    1       -2.277  -0.189   0.417  0.00  0.00    -0.570 OA
ENDROOT
BRANCH   4   7
ATOM      7  C   LIG    1       -0.084   1.318   0.312  0.00  0.00    +0.130 A 
ATOM      8  C   LIG    1        0.817   2.080  -0.420  0.00  0.00    +0.020 A 
ATOM      9  C   LIG    1        0.799   3.457  -0.318  0.00  0.00    -0.060 A 
ATOM     10  C   LIG    1       -0.113   4.079   0.522  0.00  0.00    +0.120 A 
ATOM     11  C   LIG    1       -1.010   3.318   1.257  0.00  0.00    +0.000 A 
ATOM     12  C   LIG    1       -0.996   1.941   1.153  0.00  0.00    +0.060 A 
BRANCH  10  13
ATOM     13  O   LIG    1       -0.127   5.434   0.626  0.00  0.00    -0.310 OA
BRANCH  13  14
ATOM     14  C   LIG    1        0.825   6.155  -0.160  0.00  0.00    +0.210 C 
BRANCH  14  15
ATOM     15  C   LIG    1        0.658   7.656   0.087  0.00  0.00    +0.160 C 
ATOM     16  C   LIG    1        1.740   8.451  -0.685  0.00  0.00    +0.020 C 
ATOM     17  C   LIG    1        1.036   9.828  -0.841  0.00  0.00    +0.010 C 
ATOM     18  C   LIG    1       -0.446   9.425  -0.995  0.00  0.00    +0.190 C 
ATOM     19  O   LIG    1       -0.597   8.112  -0.443  0.00  0.00    -0.370 OA
ENDBRANCH  14  15
ENDBRANCH  13  14
ENDBRANCH  10  13
ENDBRANCH   4   7
BRANCH   1  20
ATOM     20  C   LIG    1       -2.439  -2.881   0.436  0.00  0.00    +0.310 C 
BRANCH  20  21
ATOM     21  C   LIG    1       -2.122  -4.374   0.541  0.00  0.00    +0.220 C 
BRANCH  21  22
ATOM     22  C   LIG    1       -1.372  -4.639   1.821  0.00  0.00    -0.180 A 
ATOM     23  C   LIG    1       -1.911  -5.115   2.944  0.00  0.00    +0.010 A 
ATOM     24  C   LIG    1       -1.024  -5.281   3.993  0.00  0.00    +0.010 A 
ATOM     25  C   LIG    1        0.235  -4.931   3.725  0.00  0.00    -0.060 A 
ATOM     26  S   LIG    1        0.348  -4.361   2.064  0.00  0.00    +0.130 S 
ENDBRANCH  21  22
BRANCH  21  28
ATOM     27  C   LIG    1       -0.975  -6.213  -0.539  0.00  0.00    +0.190 C 
ATOM     28  N   LIG    1       -1.296  -4.781  -0.604  0.00  0.00    -0.540 NA
ATOM     29  C   LIG    1       -1.955  -4.445  -1.874  0.00  0.00    +0.190 C 
ENDBRANCH  21  28
ENDBRANCH  20  21
ENDBRANCH   1  20
TORSDOF 8
