REMARK  Name = ZINCrH000004suNL.0
REMARK                            x       y       z     vdW  Elec       q    Type
REMARK                         _______ _______ _______ _____ _____    ______ ____
ROOT
ATOM      1  C   LIG    1        2.834   6.760   0.009  0.00  0.00    +0.010 C 
ATOM      2  C   LIG    1        3.648   6.668  -1.302  0.00  0.00    +0.080 C 
ATOM      3  C   LIG    1        4.012   8.102  -1.614  0.00  0.00    +0.520 C 
ATOM      4  N   LIG    1        3.242   8.941  -0.900  0.00  0.00    -0.610 N 
ATOM      5  O   LIG    1        4.874   8.446  -2.395  0.00  0.00    -0.520 OA
ATOM      6  C   LIG    1        2.292   8.205  -0.056  0.00  0.00    +0.310 C 
ENDROOT
BRANCH   1   9
ATOM      7  N   LIG    1        1.975   4.440   0.006  0.00  0.00    -0.620 N 
ATOM      8  H   LIG    1        2.894   4.133  -0.004  0.00  0.00    +0.430 HD
ATOM      9  C   LIG    1        1.706   5.761   0.015  0.00  0.00    +0.530 C 
ATOM     10  O   LIG    1        0.555   6.145   0.028  0.00  0.00    -0.490 OA
BRANCH   7  15
ATOM     11  C   LIG    1        0.002  -0.004   0.002  0.00  0.00    +0.150 C 
ATOM     12  C   LIG    1       -0.018   1.503   0.010  0.00  0.00    +0.080 A 
ATOM     13  C   LIG    1       -1.151   2.209   0.019  0.00  0.00    -0.280 A 
ATOM     14  S   LIG    1       -0.728   3.919   0.029  0.00  0.00    +0.240 S 
ATOM     15  C   LIG    1        0.934   3.519   0.012  0.00  0.00    +0.230 A 
ATOM     16  C   LIG    1       -2.547   1.642   0.022  0.00  0.00    +0.160 C 
ATOM     17  N   LIG    1        1.082   2.231   0.004  0.00  0.00    -0.500 NA
ENDBRANCH   7  15
ENDBRANCH   1   9
BRANCH   4  18
ATOM     18  C   LIG    1        3.339  10.402  -0.955  0.00  0.00    +0.370 C 
BRANCH  18  19
ATOM     19  C   LIG    1        2.420  10.926  -2.028  0.00  0.00    -0.120 A 
ATOM     20  C   LIG    1        2.885  11.082  -3.320  0.00  0.00    +0.080 A 
ATOM     21  C   LIG    1        2.040  11.559  -4.306  0.00  0.00    +0.020 A 
ATOM     22  C   LIG    1        0.734  11.887  -3.997  0.00  0.00    +0.080 A 
ATOM     23  C   LIG    1        0.270  11.736  -2.703  0.00  0.00    -0.190 A 
ATOM     24  C   LIG    1        1.113  11.255  -1.719  0.00  0.00    +0.090 A 
BRANCH  23  25
ATOM     25  C   LIG    1       -1.154  12.095  -2.366  0.00  0.00    +0.510 C 
ATOM     26  F   LIG    1       -1.603  11.288  -1.315  0.00  0.00    -0.180 F 
ATOM     27  F   LIG    1       -1.965  11.891  -3.488  0.00  0.00    -0.180 F 
ATOM     28  F   LIG    1       -1.218  13.439  -1.983  0.00  0.00    -0.180 F 
ENDBRANCH  23  25
ENDBRANCH  18  19
ENDBRANCH   4  18
TORSDOF 5
