REMARK  Name = ZINCpe00000c3Y5F.0
REMARK                            x       y       z     vdW  Elec       q    Type
REMARK                         _______ _______ _______ _____ _____    ______ ____
ROOT
ATOM      1  C   LIG    1        0.032  -4.095  -2.449  0.00  0.00    +0.220 C 
ATOM      2  C   LIG    1        1.477  -4.591  -2.353  0.00  0.00    +0.200 C 
ATOM      3  O   LIG    1        1.497  -6.017  -2.446  0.00  0.00    -0.370 OA
ATOM      4  C   LIG    1        0.980  -6.529  -3.676  0.00  0.00    +0.210 C 
ATOM      5  C   LIG    1       -0.485  -6.111  -3.825  0.00  0.00    +0.020 C 
ATOM      6  C   LIG    1       -0.582  -4.583  -3.765  0.00  0.00    +0.240 C 
ENDROOT
BRANCH   6   7
ATOM      7  N   LIG    1        0.150  -4.002  -4.893  0.00  0.00    -0.730 N 
ATOM      8  H   LIG    1        1.072  -3.723  -4.780  0.00  0.00    +0.400 HD
ATOM      9  C   LIG    1       -0.458  -3.855  -6.087  0.00  0.00    +0.520 C 
ATOM     10  O   LIG    1       -1.611  -4.204  -6.227  0.00  0.00    -0.530 OA
BRANCH   9  11
ATOM     11  C   LIG    1        0.295  -3.257  -7.247  0.00  0.00    +0.050 C 
BRANCH  11  12
ATOM     12  C   LIG    1       -0.617  -3.204  -8.474  0.00  0.00    +0.150 C 
BRANCH  12  13
ATOM     13  C   LIG    1        0.136  -2.606  -9.634  0.00  0.00    -0.030 A 
ATOM     14  C   LIG    1        0.951  -3.259 -10.484  0.00  0.00    +0.150 A 
ATOM     15  N   LIG    1        1.421  -2.371 -11.373  0.00  0.00    -0.490 NA
ATOM     16  C   LIG    1        0.935  -1.191 -11.101  0.00  0.00    +0.390 A 
ATOM     17  N   LIG    1        0.128  -1.293 -10.023  0.00  0.00    -0.460 N 
ATOM     18  C   LIG    1       -0.616  -0.203  -9.387  0.00  0.00    +0.330 C 
ENDBRANCH  12  13
ENDBRANCH  11  12
ENDBRANCH   9  11
ENDBRANCH   6   7
BRANCH   1  19
ATOM     19  N   LIG    1        0.013  -2.631  -2.414  0.00  0.00    -0.710 N 
ATOM     20  H   LIG    1       -0.002  -2.126  -3.242  0.00  0.00    +0.410 HD
BRANCH  19  26
ATOM     21  C   LIG    1       -0.018   1.503   0.010  0.00  0.00    +0.170 C 
ATOM     22  C   LIG    1        0.002  -0.004   0.002  0.00  0.00    +0.360 A 
ATOM     23  N   LIG    1        0.022  -0.651   1.150  0.00  0.00    -0.560 NA
ATOM     24  C   LIG    1        0.040  -1.976   1.187  0.00  0.00    +0.350 A 
ATOM     25  C   LIG    1        0.038  -2.683   0.002  0.00  0.00    -0.160 A 
ATOM     26  C   LIG    1        0.017  -1.967  -1.198  0.00  0.00    +0.440 A 
ATOM     27  N   LIG    1       -0.006  -0.638  -1.153  0.00  0.00    -0.580 NA
ENDBRANCH  19  26
ENDBRANCH   1  19
TORSDOF 6
