REMARK  Name = ZINCpe00000MCutD.0
REMARK                            x       y       z     vdW  Elec       q    Type
REMARK                         _______ _______ _______ _____ _____    ______ ____
ROOT
ATOM      1  C   LIG    1        2.146   0.766  -0.353  0.00  0.00    +0.140 C 
ATOM      2  C   LIG    1        3.507   1.404  -0.638  0.00  0.00    +0.050 C 
ATOM      3  C   LIG    1        4.547   0.307  -0.875  0.00  0.00    +0.030 C 
ATOM      4  C   LIG    1        4.671  -0.555   0.385  0.00  0.00    +0.280 C 
ATOM      5  N   LIG    1        3.339  -1.055   0.749  0.00  0.00    -0.590 N 
ATOM      6  C   LIG    1        3.126  -2.374   0.930  0.00  0.00    +0.580 C 
ATOM      7  O   LIG    1        1.990  -2.800   1.012  0.00  0.00    -0.520 OA
ATOM      8  C   LIG    1        2.243  -0.090   0.914  0.00  0.00    +0.270 C 
ENDROOT
BRANCH   6   9
ATOM      9  C   LIG    1        4.269  -3.298   1.026  0.00  0.00    +0.030 A 
ATOM     10  C   LIG    1        4.037  -4.635   1.050  0.00  0.00    +0.070 A 
ATOM     11  C   LIG    1        5.178  -5.546   1.177  0.00  0.00    -0.020 A 
ATOM     12  C   LIG    1        5.078  -6.918   0.966  0.00  0.00    +0.040 A 
ATOM     13  C   LIG    1        6.201  -7.708   1.109  0.00  0.00    +0.060 A 
ATOM     14  C   LIG    1        7.422  -7.151   1.460  0.00  0.00    +0.020 A 
ATOM     15  C   LIG    1        7.544  -5.791   1.673  0.00  0.00    +0.090 A 
ATOM     16  C   LIG    1        6.428  -4.979   1.531  0.00  0.00    -0.170 A 
ATOM     17  C   LIG    1        6.465  -3.519   1.731  0.00  0.00    +0.520 A 
ATOM     18  O   LIG    1        7.304  -2.994   2.438  0.00  0.00    -0.430 OA
ATOM     19  O   LIG    1        5.522  -2.791   1.084  0.00  0.00    -0.270 OA
ENDBRANCH   6   9
BRANCH   1  20
ATOM     20  O   LIG    1        1.764  -0.056  -1.457  0.00  0.00    -0.530 OA
ATOM     21  H   LIG    1        0.909  -0.494  -1.345  0.00  0.00    +0.370 HD
ENDBRANCH   1  20
BRANCH   1  22
ATOM     22  C   LIG    1        1.100   1.864  -0.148  0.00  0.00    +0.030 C 
BRANCH  22  26
ATOM     23  C   LIG    1       -0.124   4.407  -2.733  0.00  0.00    +0.280 C 
ATOM     24  N   LIG    1        0.052   3.662  -1.485  0.00  0.00    -0.740 N 
ATOM     25  H   LIG    1       -0.451   3.913  -0.694  0.00  0.00    +0.400 HD
ATOM     26  C   LIG    1        0.914   2.627  -1.434  0.00  0.00    +0.510 C 
ATOM     27  O   LIG    1        1.543   2.312  -2.422  0.00  0.00    -0.510 OA
ENDBRANCH  22  26
ENDBRANCH   1  22
TORSDOF 4
