REMARK  Name = ZINCpk00001AZiDU.0
REMARK                            x       y       z     vdW  Elec       q    Type
REMARK                         _______ _______ _______ _____ _____    ______ ____
ROOT
ATOM      1  N   LIG    1        0.002  -0.004   0.002  0.00  0.00    -0.570 N 
ATOM      2  H   LIG    1        0.849  -0.478  -0.009  0.00  0.00    +0.410 HD
ATOM      3  C   LIG    1       -1.156  -0.694   0.009  0.00  0.00    +0.530 C 
ATOM      4  O   LIG    1       -2.214  -0.102   0.023  0.00  0.00    -0.460 OA
ENDROOT
BRANCH   1  14
ATOM      5  C   LIG    1        4.796   2.422  -0.032  0.00  0.00    +0.330 C 
ATOM      6  N   LIG    1        3.338   2.557  -0.016  0.00  0.00    -0.540 N 
ATOM      7  C   LIG    1        2.482   1.521  -0.014  0.00  0.00    +0.540 C 
ATOM      8  C   LIG    1        1.109   2.067   0.003  0.00  0.00    +0.070 C 
ATOM      9  C   LIG    1        1.283   3.539   0.003  0.00  0.00    -0.100 A 
ATOM     10  C   LIG    1        0.389   4.603   0.010  0.00  0.00    +0.110 A 
ATOM     11  C   LIG    1        0.866   5.899   0.007  0.00  0.00    +0.000 A 
ATOM     12  C   LIG    1        2.230   6.136  -0.002  0.00  0.00    +0.080 A 
ATOM     13  C   LIG    1        3.126   5.085  -0.001  0.00  0.00    +0.000 A 
ATOM     14  N   LIG    1       -0.017   1.397   0.010  0.00  0.00    -0.120 NA
ATOM     15  O   LIG    1        2.783   0.343  -0.023  0.00  0.00    -0.500 OA
ATOM     16  C   LIG    1        2.664   3.774  -0.003  0.00  0.00    +0.160 A 
ENDBRANCH   1  14
BRANCH   3  17
ATOM     17  C   LIG    1       -1.135  -2.201   0.001  0.00  0.00    +0.270 C 
BRANCH  17  18
ATOM     18  O   LIG    1       -2.476  -2.695   0.011  0.00  0.00    -0.280 OA
BRANCH  18  19
ATOM     19  C   LIG    1       -2.636  -4.043   0.005  0.00  0.00    +0.160 A 
ATOM     20  C   LIG    1       -1.521  -4.873  -0.015  0.00  0.00    -0.070 A 
ATOM     21  C   LIG    1       -1.678  -6.241  -0.016  0.00  0.00    +0.110 A 
ATOM     22  C   LIG    1       -2.961  -6.795  -0.007  0.00  0.00    -0.070 A 
ATOM     23  C   LIG    1       -4.080  -5.957   0.009  0.00  0.00    +0.110 A 
ATOM     24  C   LIG    1       -3.913  -4.590   0.015  0.00  0.00    +0.010 A 
BRANCH  22  25
ATOM     25  C   LIG    1       -3.130  -8.217  -0.012  0.00  0.00    +0.250 C 
ATOM     26  N   LIG    1       -3.263  -9.345  -0.017  0.00  0.00    -0.420 NA
ENDBRANCH  22  25
ENDBRANCH  18  19
ENDBRANCH  17  18
ENDBRANCH   3  17
TORSDOF 5
