REMARK  Name = ZINCrH000004sSUB.0
REMARK                            x       y       z     vdW  Elec       q    Type
REMARK                         _______ _______ _______ _____ _____    ______ ____
ROOT
ATOM      1  C   LIG    1        0.111   2.408  -1.621  0.00  0.00    +0.610 C 
ATOM      2  N   LIG    1       -0.599   1.442  -1.004  0.00  0.00    -0.590 N 
ATOM      3  C   LIG    1       -0.008   0.695   0.113  0.00  0.00    +0.300 C 
ATOM      4  C   LIG    1       -0.922   0.863   1.326  0.00  0.00    -0.030 C 
ATOM      5  C   LIG    1       -2.333   0.480   0.967  0.00  0.00    -0.050 A 
ATOM      6  C   LIG    1       -3.160  -0.013   1.964  0.00  0.00    +0.030 A 
ATOM      7  C   LIG    1       -4.468  -0.369   1.679  0.00  0.00    +0.050 A 
ATOM      8  C   LIG    1       -4.950  -0.233   0.383  0.00  0.00    +0.050 A 
ATOM      9  O   LIG    1       -6.230  -0.578   0.076  0.00  0.00    -0.310 OA
ATOM     10  C   LIG    1       -7.141  -0.713   1.173  0.00  0.00    +0.220 C 
ATOM     11  C   LIG    1       -6.453  -1.539   2.269  0.00  0.00    +0.220 C 
ATOM     12  C   LIG    1       -4.119   0.258  -0.609  0.00  0.00    +0.040 A 
ATOM     13  O   LIG    1       -5.266  -0.847   2.673  0.00  0.00    -0.310 OA
ATOM     14  C   LIG    1       -2.808   0.615  -0.322  0.00  0.00    -0.080 A 
ATOM     15  C   LIG    1       -0.880   2.317   1.818  0.00  0.00    +0.030 C 
ATOM     16  C   LIG    1       -0.351   2.274   3.267  0.00  0.00    +0.000 C 
ATOM     17  C   LIG    1        0.442   0.946   3.343  0.00  0.00    +0.020 C 
ATOM     18  C   LIG    1       -0.418  -0.016   2.485  0.00  0.00    +0.030 C 
ATOM     19  C   LIG    1       -1.956   1.138  -1.445  0.00  0.00    +0.270 C 
ATOM     20  C   LIG    1       -2.595   2.411  -2.003  0.00  0.00    +0.050 C 
ATOM     21  O   LIG    1       -0.328   2.939  -2.623  0.00  0.00    -0.530 OA
ENDROOT
BRANCH   1  24
ATOM     22  C   LIG    1        2.115   4.403  -2.971  0.00  0.00    +0.200 C 
ATOM     23  C   LIG    1        2.296   3.685  -1.659  0.00  0.00    +0.050 A 
ATOM     24  C   LIG    1        1.419   2.819  -1.081  0.00  0.00    -0.080 A 
ATOM     25  N   LIG    1        1.975   2.410   0.092  0.00  0.00    -0.460 NA
ATOM     26  C   LIG    1        3.132   2.986   0.222  0.00  0.00    +0.440 A 
ATOM     27  O   LIG    1        3.354   3.777  -0.837  0.00  0.00    -0.200 OA
ENDBRANCH   1  24
TORSDOF 1
