REMARK  Name = ZINCvU0000000AbO.0
REMARK                            x       y       z     vdW  Elec       q    Type
REMARK                         _______ _______ _______ _____ _____    ______ ____
ROOT
ATOM      1  C   LIG    1       -2.606   0.184  -0.085  0.00  0.00    +0.310 C 
ATOM      2  N   LIG    1       -2.444   1.640  -0.078  0.00  0.00    -0.600 N 
ATOM      3  C   LIG    1       -1.251   2.184   0.235  0.00  0.00    +0.600 C 
ATOM      4  O   LIG    1       -1.133   3.391   0.303  0.00  0.00    -0.510 OA
ENDROOT
BRANCH   3   5
ATOM      5  C   LIG    1       -0.083   1.309   0.498  0.00  0.00    -0.030 A 
ATOM      6  N   LIG    1       -0.080   0.001   0.571  0.00  0.00    -0.320 NA
ATOM      7  O   LIG    1        1.029  -0.427   0.792  0.00  0.00    +0.130 OA
ATOM      8  C   LIG    1        1.931   0.558   0.899  0.00  0.00    -0.030 A 
ATOM      9  C   LIG    1        1.262   1.720   0.715  0.00  0.00    +0.040 A 
BRANCH   8  10
ATOM     10  C   LIG    1        3.405   0.403   1.171  0.00  0.00    +0.340 C 
BRANCH  10  11
ATOM     11  O   LIG    1        3.635   0.427   2.581  0.00  0.00    -0.310 OA
BRANCH  11  12
ATOM     12  C   LIG    1        4.922   0.298   3.000  0.00  0.00    +0.110 A 
ATOM     13  C   LIG    1        5.444  -0.961   3.261  0.00  0.00    -0.040 A 
ATOM     14  C   LIG    1        6.756  -1.089   3.681  0.00  0.00    +0.060 A 
ATOM     15  C   LIG    1        7.542   0.035   3.852  0.00  0.00    +0.060 A 
ATOM     16  C   LIG    1        7.022   1.290   3.597  0.00  0.00    +0.060 A 
ATOM     17 CL   LIG    1        4.456  -2.372   3.055  0.00  0.00    -0.040 Cl
ATOM     18  C   LIG    1        5.713   1.425   3.171  0.00  0.00    -0.040 A 
ATOM     19 CL   LIG    1        5.061   3.002   2.853  0.00  0.00    -0.040 Cl
ENDBRANCH  11  12
ENDBRANCH  10  11
ENDBRANCH   8  10
ENDBRANCH   3   5
BRANCH   2  20
ATOM     20  C   LIG    1       -3.578   2.505  -0.412  0.00  0.00    +0.360 C 
BRANCH  20  21
ATOM     21  C   LIG    1       -3.591   2.766  -1.896  0.00  0.00    -0.090 A 
ATOM     22  C   LIG    1       -4.286   1.919  -2.739  0.00  0.00    +0.070 A 
ATOM     23  C   LIG    1       -4.301   2.155  -4.102  0.00  0.00    +0.070 A 
ATOM     24  C   LIG    1       -3.619   3.241  -4.625  0.00  0.00    +0.030 A 
ATOM     25  O   LIG    1       -3.478   3.689  -5.906  0.00  0.00    -0.290 OA
ATOM     26  C   LIG    1       -2.352   4.586  -5.878  0.00  0.00    +0.570 C 
ATOM     27  O   LIG    1       -2.339   5.077  -4.525  0.00  0.00    -0.280 OA
ATOM     28  F   LIG    1       -2.537   5.636  -6.784  0.00  0.00    -0.110 F 
ATOM     29  F   LIG    1       -1.168   3.897  -6.162  0.00  0.00    -0.150 F 
ATOM     30  C   LIG    1       -2.919   4.095  -3.775  0.00  0.00    +0.030 A 
ATOM     31  C   LIG    1       -2.913   3.856  -2.411  0.00  0.00    +0.090 A 
ENDBRANCH  20  21
ENDBRANCH   2  20
TORSDOF 6
