REMARK  Name = ZINCtV000002F6b0.0
REMARK                            x       y       z     vdW  Elec       q    Type
REMARK                         _______ _______ _______ _____ _____    ______ ____
ROOT
ATOM      1  C   LIG    1        4.572   2.431   6.707  0.00  0.00    +0.150 A 
ATOM      2  C   LIG    1        4.880   3.651   6.123  0.00  0.00    +0.080 A 
ATOM      3  C   LIG    1        5.953   4.389   6.588  0.00  0.00    -0.040 A 
ATOM      4  C   LIG    1        6.728   3.908   7.629  0.00  0.00    +0.050 A 
ATOM      5  C   LIG    1        6.430   2.690   8.212  0.00  0.00    -0.020 A 
ATOM      6 CL   LIG    1        6.334   5.918   5.861  0.00  0.00    -0.060 Cl
ATOM      7  C   LIG    1        5.353   1.948   7.755  0.00  0.00    +0.100 A 
ENDROOT
BRANCH   1   9
ATOM      8  C   LIG    1        2.460   2.303   5.617  0.00  0.00    +0.560 C 
ATOM      9  N   LIG    1        3.483   1.685   6.241  0.00  0.00    -0.660 N 
ATOM     10  H   LIG    1        3.464   0.723   6.367  0.00  0.00    +0.420 HD
ATOM     11  O   LIG    1        2.434   3.516   5.548  0.00  0.00    -0.500 OA
BRANCH   8  16
ATOM     12  C   LIG    1       -0.704   1.390   3.812  0.00  0.00    -0.650 A 
ATOM     13  C   LIG    1       -0.674   0.010   3.896  0.00  0.00    +0.140 A 
ATOM     14  C   LIG    1        0.377  -0.628   4.531  0.00  0.00    +0.000 A 
ATOM     15  C   LIG    1        1.397   0.111   5.094  0.00  0.00    +0.100 A 
ATOM     16  C   LIG    1        1.370   1.505   5.017  0.00  0.00    -0.150 A 
ATOM     17  C   LIG    1        0.309   2.141   4.370  0.00  0.00    +0.180 A 
BRANCH  12  19
ATOM     18  C   LIG    1       -1.612   2.387   1.244  0.00  0.00    -0.270 C 
ATOM     19  S   LIG    1       -2.045   2.192   2.995  0.00  0.00    +2.380 S 
ATOM     20  O   LIG    1       -2.320   3.408   3.677  0.00  0.00    -0.890 OA
ATOM     21  N   LIG    1       -3.253   1.319   3.086  0.00  0.00    -1.210 NA
ATOM     22  H   LIG    1       -3.248   0.441   2.674  0.00  0.00    +0.380 HD
ENDBRANCH  12  19
ENDBRANCH   8  16
ENDBRANCH   1   9
BRANCH   7  23
ATOM     23  O   LIG    1        5.059   0.750   8.327  0.00  0.00    -0.250 OA
BRANCH  23  24
ATOM     24  C   LIG    1        5.782   0.367   9.413  0.00  0.00    +0.090 A 
ATOM     25  C   LIG    1        6.827  -0.534   9.270  0.00  0.00    +0.060 A 
ATOM     26  C   LIG    1        7.563  -0.917  10.374  0.00  0.00    +0.060 A 
ATOM     27  C   LIG    1        7.253  -0.412  11.624  0.00  0.00    -0.020 A 
ATOM     28  C   LIG    1        6.207   0.482  11.771  0.00  0.00    +0.060 A 
ATOM     29 CL   LIG    1        8.176  -0.902  13.010  0.00  0.00    -0.040 Cl
ATOM     30  C   LIG    1        5.471   0.873  10.668  0.00  0.00    -0.040 A 
ATOM     31 CL   LIG    1        4.159   1.994  10.853  0.00  0.00    -0.030 Cl
ENDBRANCH  23  24
ENDBRANCH   7  23
TORSDOF 5
