REMARK  Name = ZINCqH0000033bcm.0
REMARK                            x       y       z     vdW  Elec       q    Type
REMARK                         _______ _______ _______ _____ _____    ______ ____
ROOT
ATOM      1  C   LIG    1       -1.187   2.136   0.019  0.00  0.00    +0.600 C 
ATOM      2  N   LIG    1       -0.018   1.465   0.010  0.00  0.00    -0.610 N 
ATOM      3  C   LIG    1        1.261   2.189   0.002  0.00  0.00    +0.270 C 
ATOM      4  C   LIG    1        2.103   1.689  -1.177  0.00  0.00    +0.000 C 
ATOM      5  C   LIG    1        2.242   0.168  -1.090  0.00  0.00    +0.230 C 
ATOM      6  C   LIG    1        0.858  -0.479  -1.176  0.00  0.00    +0.010 C 
ATOM      7  C   LIG    1        0.002  -0.004   0.002  0.00  0.00    +0.280 C 
ATOM      8  O   LIG    1       -2.238   1.525   0.021  0.00  0.00    -0.530 OA
ENDROOT
BRANCH   1  12
ATOM      9  N   LIG    1       -1.192   5.695   0.713  0.00  0.00    -0.350 N 
ATOM     10  N   LIG    1       -1.198   5.691  -0.687  0.00  0.00    -0.290 NA
ATOM     11  C   LIG    1       -1.192   4.455  -1.105  0.00  0.00    +0.110 A 
ATOM     12  C   LIG    1       -1.190   3.610   0.027  0.00  0.00    -0.290 A 
ATOM     13  C   LIG    1       -1.190   4.007  -2.544  0.00  0.00    +0.150 C 
ATOM     14  C   LIG    1       -1.187   4.424   1.143  0.00  0.00    +0.130 A 
ATOM     15  C   LIG    1       -1.180   3.968   2.579  0.00  0.00    +0.160 C 
BRANCH   9  16
ATOM     16  C   LIG    1       -1.191   6.887   1.565  0.00  0.00    +0.330 C 
BRANCH  16  18
ATOM     17  C   LIG    1        0.253   8.550   2.745  0.00  0.00    +0.030 C 
ATOM     18  C   LIG    1        0.252   7.305   1.855  0.00  0.00    +0.000 C 
ENDBRANCH  16  18
ENDBRANCH   9  16
ENDBRANCH   1  12
BRANCH   5  19
ATOM     19  N   LIG    1        3.075  -0.310  -2.197  0.00  0.00    -0.740 N 
ATOM     20  H   LIG    1        2.659  -0.628  -3.014  0.00  0.00    +0.400 HD
BRANCH  19  21
ATOM     21  C   LIG    1        4.467  -0.308  -2.075  0.00  0.00    +0.210 A 
ATOM     22  C   LIG    1        5.063   0.152  -0.908  0.00  0.00    -0.040 A 
ATOM     23  C   LIG    1        6.439   0.149  -0.789  0.00  0.00    +0.030 A 
ATOM     24  C   LIG    1        7.225  -0.303  -1.836  0.00  0.00    +0.040 A 
ATOM     25  C   LIG    1        6.633  -0.758  -3.002  0.00  0.00    +0.030 A 
ATOM     26  F   LIG    1        8.571  -0.301  -1.719  0.00  0.00    -0.150 F 
ATOM     27  C   LIG    1        5.257  -0.760  -3.124  0.00  0.00    -0.040 A 
ENDBRANCH  19  21
ENDBRANCH   5  19
TORSDOF 5
