REMARK  Name = ZINCkj000005jG7C.0
REMARK                            x       y       z     vdW  Elec       q    Type
REMARK                         _______ _______ _______ _____ _____    ______ ____
ROOT
ATOM      1  C   LIG    1       -0.729   1.579   1.268  0.00  0.00    -0.030 C 
ATOM      2  C   LIG    1       -0.013   1.086   0.008  0.00  0.00    +0.020 C 
ATOM      3  C   LIG    1       -0.752   1.593  -1.232  0.00  0.00    +0.020 C 
ATOM      4  C   LIG    1       -0.741   3.124  -1.238  0.00  0.00    +0.300 C 
ATOM      5  N   LIG    1       -1.296   3.606   0.034  0.00  0.00    -1.000 NA
ATOM      6  C   LIG    1       -0.717   3.111   1.290  0.00  0.00    +0.310 C 
ENDROOT
BRANCH   5   7
ATOM      7  S   LIG    1       -2.550   4.688   0.052  0.00  0.00    +2.690 S 
ATOM      8  O   LIG    1       -2.510   5.369  -1.195  0.00  0.00    -0.940 OA
ATOM      9  O   LIG    1       -2.486   5.356   1.305  0.00  0.00    -0.940 OA
BRANCH   7  10
ATOM     10  C   LIG    1       -4.044   3.755   0.061  0.00  0.00    -0.680 A 
ATOM     11  C   LIG    1       -4.618   3.382   1.264  0.00  0.00    +0.150 A 
ATOM     12  C   LIG    1       -5.791   2.649   1.280  0.00  0.00    +0.010 A 
ATOM     13  C   LIG    1       -6.397   2.284   0.096  0.00  0.00    +0.140 A 
ATOM     14  C   LIG    1       -5.823   2.657  -1.122  0.00  0.00    -0.030 A 
ATOM     15  C   LIG    1       -4.642   3.401  -1.131  0.00  0.00    +0.180 A 
BRANCH  14  16
ATOM     16  C   LIG    1       -6.446   2.282  -2.356  0.00  0.00    +0.240 C 
ATOM     17  N   LIG    1       -6.941   1.985  -3.334  0.00  0.00    -0.380 NA
ENDBRANCH  14  16
ENDBRANCH   7  10
ENDBRANCH   5   7
BRANCH   1  19
ATOM     18  C   LIG    1        1.438   1.547   2.512  0.00  0.00    +0.100 C 
ATOM     19  C   LIG    1       -0.008   1.045   2.507  0.00  0.00    +0.180 C 
BRANCH  19  20
ATOM     20  N   LIG    1       -0.016  -0.424   2.483  0.00  0.00    -0.640 N 
ATOM     21  H   LIG    1        0.457  -0.749   1.653  0.00  0.00    +0.430 HD
ATOM     22  H   LIG    1       -0.969  -0.755   2.479  0.00  0.00    +0.440 HD
ATOM     23  H   LIG    1        0.460  -0.776   3.300  0.00  0.00    +0.440 HD
ENDBRANCH  19  20
ENDBRANCH   1  19
TORSDOF 5
