REMARK  Name = ZINCqH0000038mlj.0
REMARK                            x       y       z     vdW  Elec       q    Type
REMARK                         _______ _______ _______ _____ _____    ______ ____
ROOT
ATOM      1  C   LIG    1        3.632   3.188  -0.010  0.00  0.00    +0.230 C 
ATOM      2  C   LIG    1        4.029   2.819   1.421  0.00  0.00    +0.000 C 
ATOM      3  C   LIG    1        5.347   2.040   1.397  0.00  0.00    +0.270 C 
ATOM      4  N   LIG    1        6.353   2.834   0.677  0.00  0.00    -0.630 N 
ATOM      5  C   LIG    1        6.036   3.317  -0.674  0.00  0.00    +0.300 C 
ATOM      6  C   LIG    1        7.542   3.114   1.245  0.00  0.00    +0.710 C 
ATOM      7  N   LIG    1        7.781   2.753   2.522  0.00  0.00    -0.650 N 
ATOM      8  H   LIG    1        7.127   2.225   3.007  0.00  0.00    +0.400 HD
ATOM      9  O   LIG    1        8.400   3.693   0.607  0.00  0.00    -0.580 OA
ATOM     10  C   LIG    1        4.710   4.082  -0.626  0.00  0.00    +0.020 C 
ENDROOT
BRANCH   7  11
ATOM     11  C   LIG    1        8.979   3.141   3.151  0.00  0.00    +0.000 A 
ATOM     12  C   LIG    1        9.356   2.846   4.459  0.00  0.00    +0.070 A 
ATOM     13  C   LIG    1        8.734   2.132   5.499  0.00  0.00    +0.030 A 
ATOM     14  C   LIG    1        9.368   2.015   6.697  0.00  0.00    +0.060 A 
ATOM     15  C   LIG    1       10.631   2.606   6.876  0.00  0.00    -0.010 A 
ATOM     16  C   LIG    1       11.219   3.281   5.867  0.00  0.00    +0.290 A 
ATOM     17  N   LIG    1       10.593   3.412   4.659  0.00  0.00    -0.270 N 
ATOM     18  N   LIG    1       10.957   4.057   3.470  0.00  0.00    -0.310 NA
ATOM     19  C   LIG    1       10.000   3.893   2.583  0.00  0.00    +0.300 A 
ENDBRANCH   7  11
BRANCH   1  20
ATOM     20  N   LIG    1        2.354   3.904   0.006  0.00  0.00    -0.740 N 
ATOM     21  H   LIG    1        2.342   4.874   0.012  0.00  0.00    +0.400 HD
BRANCH  20  27
ATOM     22  C   LIG    1       -2.560   3.895   0.058  0.00  0.00    +0.090 C 
ATOM     23  C   LIG    1       -1.244   3.160   0.040  0.00  0.00    -0.040 A 
ATOM     24  C   LIG    1       -1.226   1.778   0.027  0.00  0.00    -0.060 A 
ATOM     25  C   LIG    1       -0.020   1.100   0.017  0.00  0.00    +0.050 A 
ATOM     26  C   LIG    1        1.169   1.802   0.008  0.00  0.00    -0.080 A 
ATOM     27  C   LIG    1        1.153   3.191   0.015  0.00  0.00    +0.220 A 
ATOM     28  C   LIG    1       -0.059   3.869   0.032  0.00  0.00    -0.080 A 
ENDBRANCH  20  27
ENDBRANCH   1  20
TORSDOF 3
