REMARK  Name = ZINCnE000004TfIT.0
REMARK                            x       y       z     vdW  Elec       q    Type
REMARK                         _______ _______ _______ _____ _____    ______ ____
ROOT
ATOM      1  C   LIG    1        1.883  -0.531   0.703  0.00  0.00    +0.130 C 
ATOM      2  C   LIG    1        1.780  -1.245  -0.646  0.00  0.00    +0.050 C 
ENDROOT
BRANCH   1   3
ATOM      3  C   LIG    1        3.325  -0.201   0.988  0.00  0.00    -0.010 A 
ATOM      4  C   LIG    1        4.331  -0.991   0.464  0.00  0.00    +0.040 A 
ATOM      5  C   LIG    1        5.655  -0.686   0.722  0.00  0.00    +0.060 A 
ATOM      6  C   LIG    1        5.972   0.404   1.511  0.00  0.00    -0.200 A 
ATOM      7  C   LIG    1        4.965   1.190   2.040  0.00  0.00    +0.060 A 
ATOM      8  C   LIG    1        3.642   0.888   1.779  0.00  0.00    +0.000 A 
BRANCH   6   9
ATOM      9  C   LIG    1        7.414   0.734   1.796  0.00  0.00    +0.510 C 
ATOM     10  F   LIG    1        7.550   2.115   1.976  0.00  0.00    -0.180 F 
ATOM     11  F   LIG    1        8.207   0.325   0.718  0.00  0.00    -0.180 F 
ATOM     12  F   LIG    1        7.825   0.069   2.956  0.00  0.00    -0.180 F 
ENDBRANCH   6   9
ENDBRANCH   1   3
BRANCH   1  14
ATOM     13  C   LIG    1       -0.220   0.658   0.384  0.00  0.00    +0.560 C 
ATOM     14  N   LIG    1        1.098   0.706   0.663  0.00  0.00    -0.700 N 
ATOM     15  H   LIG    1        1.527   1.558   0.837  0.00  0.00    +0.390 HD
ATOM     16  O   LIG    1       -0.758  -0.410   0.166  0.00  0.00    -0.520 OA
BRANCH  13  19
ATOM     17  C   LIG    1       -2.879   0.587  -0.564  0.00  0.00    +0.100 C 
ATOM     18  C   LIG    1       -2.283   1.866  -0.035  0.00  0.00    -0.060 C 
ATOM     19  C   LIG    1       -1.007   1.901   0.338  0.00  0.00    -0.190 C 
ATOM     20  C   LIG    1       -0.366   3.212   0.712  0.00  0.00    +0.090 C 
ATOM     21  C   LIG    1       -3.133   3.105   0.072  0.00  0.00    +0.080 C 
ENDBRANCH  13  19
ENDBRANCH   1  14
BRANCH   1  22
ATOM     22  C   LIG    1        1.349  -1.429   1.789  0.00  0.00    +0.510 C 
ATOM     23  O   LIG    1        1.865  -2.515   1.990  0.00  0.00    -0.690 OA
ATOM     24  O   LIG    1        0.401  -1.070   2.466  0.00  0.00    -0.660 OA
ENDBRANCH   1  22
TORSDOF 5
