REMARK  Name = ZINCwl0000000ARf.0
REMARK                            x       y       z     vdW  Elec       q    Type
REMARK                         _______ _______ _______ _____ _____    ______ ____
ROOT
ATOM      1  C   LIG    1       -1.169   7.355   0.053  0.00  0.00    +0.190 C 
ATOM      2  C   LIG    1       -1.203   5.848   0.053  0.00  0.00    +0.410 A 
ATOM      3  N   LIG    1       -0.074   5.207   0.037  0.00  0.00    -0.520 NA
ATOM      4  C   LIG    1       -0.026   3.852   0.036  0.00  0.00    +0.130 A 
ATOM      5  C   LIG    1        1.193   3.158   0.018  0.00  0.00    +0.150 A 
ATOM      6  C   LIG    1        1.190   1.775   0.018  0.00  0.00    +0.080 A 
ATOM      7  C   LIG    1       -0.003   1.067   0.036  0.00  0.00    +0.030 A 
ATOM      8  C   LIG    1       -1.212   1.729   0.048  0.00  0.00    +0.090 A 
ATOM      9  C   LIG    1       -1.235   3.123   0.054  0.00  0.00    -0.170 A 
ATOM     10  C   LIG    1       -2.497   3.879   0.072  0.00  0.00    +0.560 A 
ATOM     11  O   LIG    1       -3.574   3.312   0.088  0.00  0.00    -0.490 OA
ATOM     12  N   LIG    1       -2.413   5.230   0.071  0.00  0.00    -0.530 N 
ENDROOT
BRANCH  12  13
ATOM     13  C   LIG    1       -3.638   6.033   0.088  0.00  0.00    +0.260 C 
ATOM     14  C   LIG    1       -4.484   5.703  -1.146  0.00  0.00    +0.070 C 
ATOM     15  C   LIG    1       -5.808   6.469  -1.049  0.00  0.00    +0.110 C 
ATOM     16  C   LIG    1       -6.482   6.128   0.253  0.00  0.00    +0.520 C 
ATOM     17  N   LIG    1       -5.770   5.785   1.337  0.00  0.00    -0.670 N 
ATOM     18  H   LIG    1       -6.242   5.580   2.159  0.00  0.00    +0.420 HD
ATOM     19  O   LIG    1       -7.692   6.163   0.323  0.00  0.00    -0.490 OA
ATOM     20  C   LIG    1       -4.430   5.715   1.329  0.00  0.00    +0.520 C 
ATOM     21  O   LIG    1       -3.846   5.390   2.340  0.00  0.00    -0.480 OA
ENDBRANCH  12  13
BRANCH   5  22
ATOM     22  N   LIG    1        2.401   3.860   0.001  0.00  0.00    -0.640 N 
ATOM     23  H   LIG    1        2.443   4.763   0.354  0.00  0.00    +0.420 HD
ATOM     24  C   LIG    1        3.509   3.283  -0.505  0.00  0.00    +0.560 C 
ATOM     25  O   LIG    1        3.436   2.192  -1.038  0.00  0.00    -0.510 OA
BRANCH  24  26
ATOM     26  C   LIG    1        4.810   3.975  -0.413  0.00  0.00    -0.130 A 
ATOM     27  C   LIG    1        4.895   5.230   0.193  0.00  0.00    +0.130 A 
ATOM     28  C   LIG    1        6.114   5.869   0.282  0.00  0.00    +0.010 A 
ATOM     29  C   LIG    1        7.251   5.272  -0.240  0.00  0.00    +0.140 A 
ATOM     30  C   LIG    1        7.171   4.029  -0.848  0.00  0.00    -0.210 A 
ATOM     31  F   LIG    1        8.442   5.905  -0.155  0.00  0.00    -0.130 F 
ATOM     32  C   LIG    1        5.960   3.379  -0.937  0.00  0.00    +0.160 A 
BRANCH  30  33
ATOM     33  C   LIG    1        8.412   3.387  -1.414  0.00  0.00    +0.350 C 
BRANCH  33  34
ATOM     34  N   LIG    1        8.778   4.053  -2.671  0.00  0.00    -0.640 N 
ATOM     35  H   LIG    1        8.022   3.962  -3.332  0.00  0.00    +0.440 HD
ATOM     36  H   LIG    1        9.609   3.623  -3.049  0.00  0.00    +0.440 HD
ATOM     37  H   LIG    1        8.956   5.030  -2.494  0.00  0.00    +0.430 HD
ENDBRANCH  33  34
ENDBRANCH  30  33
ENDBRANCH  24  26
ENDBRANCH   5  22
TORSDOF 5
