REMARK  Name = ZINCrD0000075RaL.0
REMARK                            x       y       z     vdW  Elec       q    Type
REMARK                         _______ _______ _______ _____ _____    ______ ____
ROOT
ATOM      1  C   LIG    1       -2.659   2.449   2.018  0.00  0.00    +0.100 A 
ATOM      2  N   LIG    1       -1.828   2.335   3.030  0.00  0.00    -0.260 NA
ATOM      3  N   LIG    1       -0.627   1.798   2.551  0.00  0.00    -0.300 N 
ATOM      4  C   LIG    1       -0.763   1.595   1.219  0.00  0.00    +0.060 A 
ATOM      5  C   LIG    1       -0.013   1.086   0.008  0.00  0.00    +0.120 C 
ATOM      6  C   LIG    1       -0.802   1.619  -1.208  0.00  0.00    +0.060 C 
ATOM      7  C   LIG    1       -2.221   1.786  -0.621  0.00  0.00    +0.110 C 
ATOM      8  C   LIG    1       -2.009   1.989   0.864  0.00  0.00    -0.230 A 
ENDROOT
BRANCH   3   9
ATOM      9  C   LIG    1        0.515   1.520   3.316  0.00  0.00    +0.140 A 
ATOM     10  C   LIG    1        1.303   0.418   3.013  0.00  0.00    +0.040 A 
ATOM     11  C   LIG    1        2.430   0.148   3.764  0.00  0.00    +0.020 A 
ATOM     12  C   LIG    1        2.770   0.971   4.825  0.00  0.00    +0.100 A 
ATOM     13  C   LIG    1        1.982   2.067   5.132  0.00  0.00    +0.020 A 
ATOM     14  F   LIG    1        3.870   0.703   5.561  0.00  0.00    -0.130 F 
ATOM     15  C   LIG    1        0.857   2.343   4.381  0.00  0.00    +0.060 A 
ENDBRANCH   3   9
BRANCH   1  16
ATOM     16  C   LIG    1       -4.066   2.984   2.086  0.00  0.00    +0.340 C 
BRANCH  16  17
ATOM     17  O   LIG    1       -4.987   1.893   2.347  0.00  0.00    -0.350 OA
BRANCH  17  19
ATOM     18  O   LIG    1       -6.656   3.356   2.301  0.00  0.00    -0.500 OA
ATOM     19  C   LIG    1       -6.295   2.204   2.437  0.00  0.00    +0.510 C 
BRANCH  19  20
ATOM     20  C   LIG    1       -7.290   1.145   2.701  0.00  0.00    -0.120 A 
ATOM     21  C   LIG    1       -6.879  -0.181   2.852  0.00  0.00    +0.080 A 
ATOM     22  C   LIG    1       -7.813  -1.165   3.102  0.00  0.00    +0.020 A 
ATOM     23  C   LIG    1       -9.155  -0.842   3.195  0.00  0.00    -0.060 A 
ATOM     24  C   LIG    1       -9.570   0.469   3.042  0.00  0.00    +0.030 A 
ATOM     25  C   LIG    1       -8.646   1.464   2.796  0.00  0.00    +0.080 A 
BRANCH  23  26
ATOM     26  C   LIG    1      -10.170  -1.923   3.463  0.00  0.00    +0.230 C 
BRANCH  26  27
ATOM     27  O   LIG    1      -10.630  -2.463   2.223  0.00  0.00    -0.570 OA
ATOM     28  H   LIG    1      -11.287  -3.166   2.320  0.00  0.00    +0.380 HD
ENDBRANCH  26  27
ENDBRANCH  23  26
ENDBRANCH  19  20
ENDBRANCH  17  19
ENDBRANCH  16  17
ENDBRANCH   1  16
TORSDOF 7
