REMARK  Name = ZINCqH000000126Z.0
REMARK                            x       y       z     vdW  Elec       q    Type
REMARK                         _______ _______ _______ _____ _____    ______ ____
ROOT
ATOM      1  N   LIG    1        6.511   0.885   3.398  0.00  0.00    -0.730 N 
ATOM      2  H   LIG    1        6.229   0.261   4.085  0.00  0.00    +0.410 HD
ATOM      3  C   LIG    1        5.638   1.285   2.452  0.00  0.00    +0.510 C 
ATOM      4  O   LIG    1        5.990   2.064   1.593  0.00  0.00    -0.530 OA
ENDROOT
BRANCH   1   5
ATOM      5  C   LIG    1        7.885   1.392   3.388  0.00  0.00    +0.260 C 
BRANCH   5   6
ATOM      6  C   LIG    1        8.661   0.786   4.559  0.00  0.00    +0.070 C 
BRANCH   6  10
ATOM      7  C   LIG    1       12.669   2.264   4.529  0.00  0.00    -0.070 A 
ATOM      8  C   LIG    1       11.688   2.941   5.228  0.00  0.00    +0.010 A 
ATOM      9  C   LIG    1       10.391   2.463   5.238  0.00  0.00    +0.010 A 
ATOM     10  C   LIG    1       10.075   1.308   4.548  0.00  0.00    -0.090 A 
ATOM     11  C   LIG    1       11.058   0.627   3.853  0.00  0.00    +0.010 A 
ATOM     12  C   LIG    1       12.354   1.109   3.839  0.00  0.00    +0.010 A 
BRANCH   7  14
ATOM     13  C   LIG    1       14.618   2.836   5.952  0.00  0.00    +0.040 C 
ATOM     14  C   LIG    1       14.083   2.785   4.519  0.00  0.00    -0.030 C 
ATOM     15  C   LIG    1       14.104   4.192   3.917  0.00  0.00    +0.040 C 
ATOM     16  C   LIG    1       14.963   1.857   3.679  0.00  0.00    +0.030 C 
ENDBRANCH   7  14
ENDBRANCH   6  10
ENDBRANCH   5   6
ENDBRANCH   1   5
BRANCH   3  17
ATOM     17  C   LIG    1        4.224   0.763   2.463  0.00  0.00    +0.300 C 
BRANCH  17  18
ATOM     18  N   LIG    1        3.481   1.343   1.342  0.00  0.00    -0.720 N 
ATOM     19  H   LIG    1        3.920   1.962   0.737  0.00  0.00    +0.410 HD
ATOM     20  C   LIG    1        2.187   1.018   1.151  0.00  0.00    +0.520 C 
ATOM     21  O   LIG    1        1.638   0.246   1.907  0.00  0.00    -0.530 OA
BRANCH  20  22
ATOM     22  C   LIG    1        1.423   1.615  -0.003  0.00  0.00    +0.060 C 
BRANCH  22  23
ATOM     23  C   LIG    1       -0.013   1.086   0.008  0.00  0.00    +0.010 C 
ATOM     24  C   LIG    1       -0.729   1.579   1.267  0.00  0.00    +0.010 C 
ATOM     25  C   LIG    1       -2.164   1.050   1.278  0.00  0.00    +0.000 C 
ATOM     26  C   LIG    1       -2.904   1.556   0.038  0.00  0.00    +0.000 C 
ATOM     27  C   LIG    1       -2.188   1.063  -1.221  0.00  0.00    +0.000 C 
ATOM     28  C   LIG    1       -0.753   1.593  -1.232  0.00  0.00    +0.000 C 
ENDBRANCH  22  23
ENDBRANCH  20  22
ENDBRANCH  17  18
ENDBRANCH   3  17
TORSDOF 8
