REMARK  Name = ZINCrD000000A6ZD.0
REMARK                            x       y       z     vdW  Elec       q    Type
REMARK                         _______ _______ _______ _____ _____    ______ ____
ROOT
ATOM      1  O   LIG    1       -1.148   5.697   2.101  0.00  0.00    -0.520 OA
ATOM      2  C   LIG    1       -0.537   6.200   1.181  0.00  0.00    +0.530 C 
ATOM      3  N   LIG    1       -0.277   7.522   1.189  0.00  0.00    -0.610 N 
ATOM      4  C   LIG    1        0.467   8.146   0.086  0.00  0.00    +0.270 C 
ATOM      5  C   LIG    1        1.653   8.919   0.659  0.00  0.00    +0.010 C 
ATOM      6  C   LIG    1        1.153   9.905   1.716  0.00  0.00    -0.020 C 
ATOM      7  C   LIG    1        0.479   9.137   2.856  0.00  0.00    +0.020 C 
ATOM      8  C   LIG    1       -0.726   8.367   2.304  0.00  0.00    +0.280 C 
ENDROOT
BRANCH   6   9
ATOM      9  C   LIG    1        2.336  10.703   2.269  0.00  0.00    +0.310 C 
BRANCH   9  10
ATOM     10  N   LIG    1        2.907  11.530   1.204  0.00  0.00    -0.470 N 
ATOM     11  C   LIG    1        3.899  11.186   0.347  0.00  0.00    +0.370 A 
ATOM     12  N   LIG    1        4.102  12.206  -0.441  0.00  0.00    -0.300 NA
ATOM     13  N   LIG    1        3.307  13.165  -0.122  0.00  0.00    -0.300 NA
ATOM     14  C   LIG    1        2.556  12.798   0.880  0.00  0.00    +0.370 A 
ENDBRANCH   9  10
ENDBRANCH   6   9
BRANCH   2  15
ATOM     15  C   LIG    1       -0.070   5.347   0.030  0.00  0.00    +0.090 C 
BRANCH  15  16
ATOM     16  C   LIG    1       -0.689   5.848  -1.250  0.00  0.00    -0.080 A 
ATOM     17  C   LIG    1       -2.037   6.153  -1.292  0.00  0.00    +0.010 A 
ATOM     18  C   LIG    1       -2.603   6.617  -2.465  0.00  0.00    +0.010 A 
ATOM     19  C   LIG    1       -1.825   6.765  -3.597  0.00  0.00    +0.000 A 
ATOM     20  C   LIG    1       -0.478   6.455  -3.556  0.00  0.00    +0.020 A 
ATOM     21  C   LIG    1        0.089   5.996  -2.382  0.00  0.00    +0.010 A 
ENDBRANCH  15  16
BRANCH  15  22
ATOM     22  C   LIG    1       -0.486   3.917   0.264  0.00  0.00    -0.070 A 
ATOM     23  C   LIG    1        0.468   2.918   0.305  0.00  0.00    +0.010 A 
ATOM     24  C   LIG    1        0.087   1.607   0.518  0.00  0.00    +0.000 A 
ATOM     25  C   LIG    1       -1.249   1.295   0.691  0.00  0.00    +0.000 A 
ATOM     26  C   LIG    1       -2.204   2.293   0.645  0.00  0.00    +0.000 A 
ATOM     27  C   LIG    1       -1.822   3.605   0.436  0.00  0.00    +0.040 A 
ENDBRANCH  15  22
ENDBRANCH   2  15
TORSDOF 5
