REMARK  Name = ZINCrg000000tUTz.0
REMARK                            x       y       z     vdW  Elec       q    Type
REMARK                         _______ _______ _______ _____ _____    ______ ____
ROOT
ATOM      1  C   LIG    1       -0.742   1.585  -1.213  0.00  0.00    +0.530 C 
ATOM      2  N   LIG    1       -0.288   1.272  -2.443  0.00  0.00    -0.620 N 
ATOM      3  C   LIG    1        0.919   0.450  -2.616  0.00  0.00    +0.300 C 
ATOM      4  C   LIG    1        0.584  -0.702  -3.577  0.00  0.00    +0.210 C 
ATOM      5  N   LIG    1        0.025  -0.150  -4.819  0.00  0.00    -0.460 N 
ATOM      6  C   LIG    1       -1.242   0.551  -4.568  0.00  0.00    +0.220 C 
ATOM      7  C   LIG    1       -0.985   1.749  -3.648  0.00  0.00    +0.310 C 
ATOM      8  O   LIG    1       -1.736   2.268  -1.088  0.00  0.00    -0.510 OA
ENDROOT
BRANCH   5   9
ATOM      9  C   LIG    1       -0.137  -1.141  -5.774  0.00  0.00    +0.480 A 
ATOM     10  N   LIG    1       -1.333  -1.333  -6.309  0.00  0.00    -0.530 NA
ATOM     11  C   LIG    1       -1.522  -2.267  -7.227  0.00  0.00    +0.340 A 
ATOM     12  C   LIG    1       -0.450  -3.056  -7.618  0.00  0.00    -0.040 A 
ATOM     13  C   LIG    1        0.788  -2.831  -7.032  0.00  0.00    +0.350 A 
ATOM     14  F   LIG    1       -0.607  -4.023  -8.550  0.00  0.00    -0.120 F 
ATOM     15  N   LIG    1        0.907  -1.876  -6.124  0.00  0.00    -0.500 NA
ENDBRANCH   5   9
BRANCH   1  16
ATOM     16  C   LIG    1       -0.013   1.086   0.008  0.00  0.00    +0.060 C 
BRANCH  16  28
ATOM     17  O   LIG    1       -0.498  -0.056   2.956  0.00  0.00    -0.500 OA
ATOM     18  C   LIG    1       -0.074   0.978   2.485  0.00  0.00    +0.500 C 
ATOM     19  N   LIG    1        0.985   1.594   3.049  0.00  0.00    -0.660 N 
ATOM     20  H   LIG    1        1.467   1.173   3.778  0.00  0.00    +0.420 HD
ATOM     21  C   LIG    1        1.380   2.850   2.570  0.00  0.00    +0.090 A 
ATOM     22  C   LIG    1        2.594   3.399   2.951  0.00  0.00    +0.010 A 
ATOM     23  C   LIG    1        2.984   4.625   2.443  0.00  0.00    +0.020 A 
ATOM     24  C   LIG    1        2.167   5.303   1.558  0.00  0.00    +0.030 A 
ATOM     25  C   LIG    1        0.951   4.763   1.179  0.00  0.00    +0.040 A 
ATOM     26  C   LIG    1        0.551   3.539   1.687  0.00  0.00    +0.070 A 
ATOM     27  O   LIG    1       -0.648   3.005   1.332  0.00  0.00    -0.280 OA
ATOM     28  C   LIG    1       -0.729   1.579   1.267  0.00  0.00    +0.260 C 
ENDBRANCH  16  28
ENDBRANCH   1  16
TORSDOF 3
