REMARK  Name = ZINCnE000001R14S.0
REMARK                            x       y       z     vdW  Elec       q    Type
REMARK                         _______ _______ _______ _____ _____    ______ ____
ROOT
ATOM      1  C   LIG    1       -0.334  -5.393  -0.021  0.00  0.00    +0.160 C 
ATOM      2  C   LIG    1        0.538  -4.164  -0.024  0.00  0.00    +0.100 A 
ATOM      3  N   LIG    1        0.118  -2.925  -0.008  0.00  0.00    -0.310 NA
ATOM      4  N   LIG    1        1.237  -2.082  -0.021  0.00  0.00    -0.340 N 
ATOM      5  C   LIG    1        2.342  -2.860  -0.035  0.00  0.00    +0.210 A 
ATOM      6  C   LIG    1        1.937  -4.151  -0.038  0.00  0.00    -0.180 A 
ENDROOT
BRANCH   4   7
ATOM      7  C   LIG    1        1.214  -0.680  -0.013  0.00  0.00    +0.180 A 
ATOM      8  C   LIG    1        0.002  -0.004   0.002  0.00  0.00    +0.010 A 
ATOM      9  C   LIG    1       -0.017   1.377   0.010  0.00  0.00    +0.030 A 
ATOM     10  C   LIG    1        1.171   2.086   0.002  0.00  0.00    -0.030 A 
ATOM     11  C   LIG    1        2.380   1.415  -0.013  0.00  0.00    +0.040 A 
ATOM     12  C   LIG    1        2.405   0.034  -0.021  0.00  0.00    -0.020 A 
ENDBRANCH   4   7
BRANCH   6  13
ATOM     13  C   LIG    1        2.834  -5.362  -0.053  0.00  0.00    +0.260 C 
BRANCH  13  14
ATOM     14  N   LIG    1        2.919  -5.890  -1.417  0.00  0.00    -0.690 NA
ATOM     15  C   LIG    1        4.059  -5.870  -2.056  0.00  0.00    +0.440 A 
ATOM     16  N   LIG    1        5.252  -5.390  -1.583  0.00  0.00    -0.550 NA
ATOM     17  N   LIG    1        6.190  -5.575  -2.609  0.00  0.00    -0.300 NA
ATOM     18  C   LIG    1        5.587  -6.123  -3.610  0.00  0.00    +0.100 A 
ATOM     19  O   LIG    1        4.288  -6.322  -3.305  0.00  0.00    -0.300 OA
BRANCH  18  20
ATOM     20  C   LIG    1        6.237  -6.491  -4.918  0.00  0.00    +0.040 C 
ATOM     21  C   LIG    1        5.551  -5.735  -6.059  0.00  0.00    +0.030 C 
ATOM     22  C   LIG    1        6.100  -7.997  -5.150  0.00  0.00    +0.040 C 
ATOM     23  C   LIG    1        7.719  -6.114  -4.875  0.00  0.00    +0.060 C 
ENDBRANCH  18  20
ENDBRANCH  13  14
ENDBRANCH   6  13
TORSDOF 4
