REMARK  Name = ZINCrD000000fjHq.0
REMARK                            x       y       z     vdW  Elec       q    Type
REMARK                         _______ _______ _______ _____ _____    ______ ____
ROOT
ATOM      1  N   LIG    1        7.305   4.082  -2.423  0.00  0.00    -0.740 N 
ATOM      2  H   LIG    1        6.598   4.742  -2.505  0.00  0.00    +0.390 HD
ATOM      3  C   LIG    1        7.207   3.100  -1.505  0.00  0.00    +0.710 C 
ATOM      4  N   LIG    1        6.083   2.971  -0.773  0.00  0.00    -0.630 N 
ATOM      5  C   LIG    1        5.998   1.982   0.311  0.00  0.00    +0.320 C 
ATOM      6  C   LIG    1        4.727   1.149   0.111  0.00  0.00    +0.200 C 
ATOM      7  N   LIG    1        3.570   2.047  -0.003  0.00  0.00    -0.470 N 
ATOM      8  C   LIG    1        3.681   2.912  -1.185  0.00  0.00    +0.200 C 
ATOM      9  C   LIG    1        4.909   3.817  -1.038  0.00  0.00    +0.280 C 
ATOM     10  O   LIG    1        8.133   2.331  -1.337  0.00  0.00    -0.580 OA
ENDROOT
BRANCH   7  11
ATOM     11  C   LIG    1        2.381   1.327  -0.022  0.00  0.00    +0.240 A 
ATOM     12  N   LIG    1        2.116   0.506  -1.030  0.00  0.00    -0.460 NA
ATOM     13  C   LIG    1        0.984  -0.176  -1.046  0.00  0.00    +0.220 A 
ATOM     14  C   LIG    1        0.076  -0.036  -0.013  0.00  0.00    +0.220 A 
ATOM     15  N   LIG    1        0.336   0.781   0.994  0.00  0.00    -0.440 NA
ATOM     16  C   LIG    1        1.463   1.466   1.017  0.00  0.00    +0.120 A 
ATOM     17  C   LIG    1        1.757   2.397   2.164  0.00  0.00    +0.150 C 
ENDBRANCH   7  11
BRANCH   1  18
ATOM     18  C   LIG    1        8.479   4.155  -3.296  0.00  0.00    +0.300 C 
BRANCH  18  19
ATOM     19  C   LIG    1        8.274   3.258  -4.489  0.00  0.00    -0.100 A 
ATOM     20  C   LIG    1        7.033   3.185  -5.094  0.00  0.00    +0.010 A 
ATOM     21  C   LIG    1        6.845   2.366  -6.191  0.00  0.00    +0.000 A 
ATOM     22  C   LIG    1        7.897   1.611  -6.678  0.00  0.00    +0.000 A 
ATOM     23  C   LIG    1        9.136   1.680  -6.071  0.00  0.00    +0.000 A 
ATOM     24  C   LIG    1        9.325   2.503  -4.976  0.00  0.00    +0.020 A 
ENDBRANCH  18  19
BRANCH  18  25
ATOM     25  C   LIG    1        8.675   5.596  -3.770  0.00  0.00    +0.030 C 
BRANCH  25  26
ATOM     26  C   LIG    1        9.007   6.487  -2.570  0.00  0.00    +0.060 C 
BRANCH  26  28
ATOM     27  C   LIG    1        8.498   8.873  -2.499  0.00  0.00    +0.010 C 
ATOM     28  C   LIG    1        9.199   7.907  -3.037  0.00  0.00    -0.050 C 
ENDBRANCH  26  28
ENDBRANCH  25  26
ENDBRANCH  18  25
ENDBRANCH   1  18
TORSDOF 6
