REMARK  Name = ZINCrH000004jo7Z.1
REMARK                            x       y       z     vdW  Elec       q    Type
REMARK                         _______ _______ _______ _____ _____    ______ ____
ROOT
ATOM      1  N   LIG    1       -4.099   8.325  -7.265  0.00  0.00    -0.510 N 
ATOM      2  C   LIG    1       -4.385   7.049  -6.928  0.00  0.00    +0.550 A 
ATOM      3  C   LIG    1       -3.994   6.575  -5.585  0.00  0.00    -0.160 A 
ATOM      4  C   LIG    1       -4.255   5.273  -5.167  0.00  0.00    +0.140 A 
ATOM      5  C   LIG    1       -3.873   4.872  -3.905  0.00  0.00    +0.030 A 
ATOM      6  C   LIG    1       -3.226   5.765  -3.047  0.00  0.00    -0.060 A 
ATOM      7  C   LIG    1       -2.967   7.071  -3.457  0.00  0.00    +0.070 A 
ATOM      8  C   LIG    1       -3.344   7.479  -4.726  0.00  0.00    +0.170 A 
ATOM      9  N   LIG    1       -3.100   8.769  -5.175  0.00  0.00    -0.580 N 
ATOM     10  H   LIG    1       -2.653   9.403  -4.593  0.00  0.00    +0.450 HD
ATOM     11  O   LIG    1       -4.950   6.309  -7.710  0.00  0.00    -0.470 OA
ATOM     12  C   LIG    1       -3.476   9.149  -6.408  0.00  0.00    +0.530 A 
ATOM     13  S   LIG    1       -3.148  10.753  -6.907  0.00  0.00    -0.540 S 
ENDROOT
BRANCH   6  14
ATOM     14  C   LIG    1       -2.819   5.323  -1.694  0.00  0.00    +0.560 C 
ATOM     15  N   LIG    1       -3.073   4.062  -1.292  0.00  0.00    -0.710 N 
ATOM     16  H   LIG    1       -3.523   3.444  -1.889  0.00  0.00    +0.400 HD
ATOM     17  O   LIG    1       -2.256   6.098  -0.945  0.00  0.00    -0.520 OA
BRANCH  15  18
ATOM     18  C   LIG    1       -2.671   3.625   0.047  0.00  0.00    +0.290 C 
ATOM     19  C   LIG    1       -3.512   2.408   0.489  0.00  0.00    +0.050 C 
ATOM     20  C   LIG    1       -2.640   1.219   0.034  0.00  0.00    +0.090 C 
ATOM     21  C   LIG    1       -1.222   1.749   0.017  0.00  0.00    -0.070 A 
ATOM     22  C   LIG    1       -0.013   1.076   0.008  0.00  0.00    +0.030 A 
ATOM     23  C   LIG    1        1.177   1.781   0.000  0.00  0.00    -0.020 A 
ATOM     24  C   LIG    1        1.158   3.164   0.008  0.00  0.00    +0.030 A 
ATOM     25  C   LIG    1       -0.048   3.837   0.023  0.00  0.00    +0.070 A 
ATOM     26 CL   LIG    1        2.691   0.932  -0.019  0.00  0.00    -0.060 Cl
ATOM     27  C   LIG    1       -1.240   3.132   0.031  0.00  0.00    -0.110 A 
ENDBRANCH  15  18
ENDBRANCH   6  14
BRANCH   1  29
ATOM     28  C   LIG    1       -5.884   9.415  -8.533  0.00  0.00    +0.060 C 
ATOM     29  C   LIG    1       -4.476   8.819  -8.592  0.00  0.00    +0.320 C 
ENDBRANCH   1  29
TORSDOF 3
