REMARK  Name = ZINCkj000005iS2v.1
REMARK                            x       y       z     vdW  Elec       q    Type
REMARK                         _______ _______ _______ _____ _____    ______ ____
ROOT
ATOM      1  N   LIG    1        1.488   2.670  -1.105  0.00  0.00    -0.680 NA
ATOM      2  H   LIG    1        2.264   2.583  -1.680  0.00  0.00    +0.430 HD
ENDROOT
BRANCH   1   3
ATOM      3  C   LIG    1        0.572   3.687  -1.328  0.00  0.00    +0.380 C 
ATOM      4  C   LIG    1       -0.551   3.830  -0.514  0.00  0.00    -0.040 C 
ATOM      5  C   LIG    1       -1.442   4.852  -0.763  0.00  0.00    +0.430 C 
ATOM      6  N   LIG    1       -1.254   5.699  -1.758  0.00  0.00    -0.540 NA
ATOM      7  C   LIG    1       -0.207   5.614  -2.565  0.00  0.00    +0.520 C 
ATOM      8  H   LIG    1       -1.903   6.406  -1.903  0.00  0.00    +0.450 HD
ATOM      9  C   LIG    1        0.753   4.606  -2.379  0.00  0.00    -0.180 C 
BRANCH   7  10
ATOM     10  N   LIG    1       -0.056   6.527  -3.594  0.00  0.00    -0.810 NA
ATOM     11  H   LIG    1        0.710   6.468  -4.186  0.00  0.00    +0.440 HD
ATOM     12  H   LIG    1       -0.716   7.227  -3.723  0.00  0.00    +0.430 HD
ENDBRANCH   7  10
BRANCH   9  13
ATOM     13  C   LIG    1        1.891   4.513  -3.243  0.00  0.00    +0.220 C 
ATOM     14  N   LIG    1        2.793   4.439  -3.929  0.00  0.00    -0.340 NA
ENDBRANCH   9  13
ENDBRANCH   1   3
BRANCH   1  15
ATOM     15  C   LIG    1        1.286   1.731   0.001  0.00  0.00    +0.330 C 
BRANCH  15  16
ATOM     16  C   LIG    1        2.352   0.636  -0.059  0.00  0.00    -0.570 C 
ATOM     17  C   LIG    1        2.216  -0.301   1.160  0.00  0.00    +0.090 C 
ATOM     18  C   LIG    1        3.678  -0.651   1.534  0.00  0.00    +0.040 C 
ATOM     19  C   LIG    1        4.424   0.683   1.287  0.00  0.00    +0.040 C 
ATOM     20  C   LIG    1        3.756   1.262   0.022  0.00  0.00    +0.070 C 
BRANCH  16  22
ATOM     21  C   LIG    1        0.462  -0.881  -1.497  0.00  0.00    -0.250 C 
ATOM     22  S   LIG    1        2.182  -0.313  -1.595  0.00  0.00    +2.410 S 
ATOM     23  O   LIG    1        3.038  -1.446  -1.525  0.00  0.00    -0.910 OA
ATOM     24  O   LIG    1        2.302   0.580  -2.694  0.00  0.00    -0.940 OA
ENDBRANCH  16  22
ENDBRANCH  15  16
ENDBRANCH   1  15
TORSDOF 6
