REMARK  Name = ZINCqH0000051c64.0
REMARK                            x       y       z     vdW  Elec       q    Type
REMARK                         _______ _______ _______ _____ _____    ______ ____
ROOT
ATOM      1  O   LIG    1       -3.888   0.146  -2.142  0.00  0.00    -0.490 OA
ATOM      2  C   LIG    1       -2.775   0.619  -2.244  0.00  0.00    +0.540 C 
ATOM      3  N   LIG    1       -2.136   1.080  -1.151  0.00  0.00    -0.540 N 
ATOM      4  C   LIG    1       -2.780   1.137   0.098  0.00  0.00    +0.080 A 
ATOM      5  C   LIG    1       -4.155   0.992   0.178  0.00  0.00    +0.050 A 
ATOM      6  C   LIG    1       -4.783   1.046   1.409  0.00  0.00    +0.000 A 
ATOM      7  C   LIG    1       -4.039   1.242   2.557  0.00  0.00    +0.030 A 
ATOM      8  C   LIG    1       -2.667   1.389   2.483  0.00  0.00    +0.010 A 
ATOM      9  C   LIG    1       -2.029   1.339   1.253  0.00  0.00    +0.090 A 
ATOM     10  O   LIG    1       -0.677   1.491   1.190  0.00  0.00    -0.300 OA
ATOM     11  C   LIG    1       -0.011   1.011   0.020  0.00  0.00    +0.270 C 
ATOM     12  C   LIG    1       -0.740   1.543  -1.222  0.00  0.00    +0.260 C 
ENDROOT
BRANCH  12  13
ATOM     13  C   LIG    1       -0.698   3.049  -1.234  0.00  0.00    -0.110 A 
ATOM     14  C   LIG    1       -1.587   3.771  -0.458  0.00  0.00    +0.030 A 
ATOM     15  C   LIG    1       -1.546   5.153  -0.466  0.00  0.00    +0.000 A 
ATOM     16  C   LIG    1       -0.623   5.813  -1.255  0.00  0.00    +0.010 A 
ATOM     17  C   LIG    1        0.262   5.091  -2.035  0.00  0.00    +0.010 A 
ATOM     18  C   LIG    1        0.224   3.709  -2.024  0.00  0.00    +0.030 A 
ENDBRANCH  12  13
BRANCH   2  19
ATOM     19  C   LIG    1       -2.108   0.692  -3.594  0.00  0.00    +0.110 C 
BRANCH  19  20
ATOM     20  S   LIG    1       -3.256   0.110  -4.866  0.00  0.00    +0.100 S 
BRANCH  20  21
ATOM     21  C   LIG    1       -2.246   0.297  -6.298  0.00  0.00    +0.280 A 
ATOM     22  N   LIG    1       -1.015   0.770  -6.164  0.00  0.00    -0.530 NA
ATOM     23  C   LIG    1       -0.229   0.918  -7.218  0.00  0.00    +0.330 A 
ATOM     24  C   LIG    1       -0.711   0.582  -8.473  0.00  0.00    -0.090 A 
ATOM     25  C   LIG    1       -2.005   0.095  -8.578  0.00  0.00    +0.350 A 
ATOM     26  N   LIG    1       -2.737  -0.034  -7.484  0.00  0.00    -0.500 NA
ENDBRANCH  20  21
ENDBRANCH  19  20
ENDBRANCH   2  19
TORSDOF 4
