REMARK  Name = ZINCAx0000000hyY.0
REMARK                            x       y       z     vdW  Elec       q    Type
REMARK                         _______ _______ _______ _____ _____    ______ ____
ROOT
ATOM      1  C   LIG    1       -3.804   1.049   4.887  0.00  0.00    +0.240 A 
ATOM      2  C   LIG    1       -4.091   2.089   5.771  0.00  0.00    -0.090 A 
ATOM      3  C   LIG    1       -5.304   2.095   6.428  0.00  0.00    +0.320 A 
ATOM      4  N   LIG    1       -6.186   1.133   6.228  0.00  0.00    -0.490 NA
ATOM      5  C   LIG    1       -5.954   0.136   5.395  0.00  0.00    +0.390 A 
ATOM      6  C   LIG    1       -4.764   0.054   4.704  0.00  0.00    -0.720 A 
ENDROOT
BRANCH   1  10
ATOM      7  N   LIG    1       -0.057   1.755   3.321  0.00  0.00    -1.000 NA
ATOM      8  C   LIG    1       -1.207   1.970   2.429  0.00  0.00    +0.330 C 
ATOM      9  C   LIG    1       -2.463   2.148   3.289  0.00  0.00    +0.200 C 
ATOM     10  N   LIG    1       -2.592   1.007   4.204  0.00  0.00    -0.510 N 
ATOM     11  C   LIG    1       -1.462   0.944   5.141  0.00  0.00    +0.190 C 
ATOM     12  C   LIG    1       -0.165   0.716   4.357  0.00  0.00    +0.320 C 
BRANCH   7  13
ATOM     13  S   LIG    1        1.323   2.656   3.162  0.00  0.00    +2.690 S 
ATOM     14  O   LIG    1        1.257   3.267   1.881  0.00  0.00    -0.950 OA
ATOM     15  O   LIG    1        2.397   1.821   3.571  0.00  0.00    -0.950 OA
BRANCH  13  22
ATOM     16  C   LIG    1       -0.653   4.942   3.017  0.00  0.00    +0.100 C 
ATOM     17  C   LIG    1        0.292   4.966   4.190  0.00  0.00    +0.020 A 
ATOM     18  C   LIG    1        0.219   5.990   5.115  0.00  0.00    -0.010 A 
ATOM     19  C   LIG    1        1.086   6.011   6.192  0.00  0.00    +0.070 A 
ATOM     20  C   LIG    1        2.025   5.008   6.343  0.00  0.00    -0.020 A 
ATOM     21  C   LIG    1        2.094   3.981   5.421  0.00  0.00    +0.120 A 
ATOM     22  C   LIG    1        1.231   3.962   4.341  0.00  0.00    -0.680 A 
ENDBRANCH  13  22
ENDBRANCH   7  13
ENDBRANCH   1  10
BRANCH   6  23
ATOM     23  S   LIG    1       -4.463  -1.286   3.599  0.00  0.00    +2.710 S 
ATOM     24  O   LIG    1       -5.613  -2.118   3.655  0.00  0.00    -0.960 OA
ATOM     25  O   LIG    1       -3.977  -0.710   2.394  0.00  0.00    -0.930 OA
BRANCH  23  26
ATOM     26  N   LIG    1       -3.213  -2.170   4.232  0.00  0.00    -1.110 NA
ATOM     27  H   LIG    1       -2.376  -2.243   3.747  0.00  0.00    +0.420 HD
BRANCH  26  28
ATOM     28  C   LIG    1       -3.373  -2.843   5.523  0.00  0.00    +0.270 C 
BRANCH  28  29
ATOM     29  C   LIG    1       -2.247  -3.863   5.708  0.00  0.00    +0.100 C 
BRANCH  29  30
ATOM     30  C   LIG    1       -2.411  -4.556   7.037  0.00  0.00    -0.130 A 
ATOM     31  C   LIG    1       -1.732  -4.090   8.147  0.00  0.00    +0.090 A 
ATOM     32  C   LIG    1       -1.877  -4.728   9.365  0.00  0.00    -0.020 A 
ATOM     33  C   LIG    1       -2.707  -5.831   9.475  0.00  0.00    +0.130 A 
ATOM     34  C   LIG    1       -3.392  -6.295   8.365  0.00  0.00    -0.040 A 
ATOM     35  F   LIG    1       -2.849  -6.453  10.665  0.00  0.00    -0.130 F 
ATOM     36  C   LIG    1       -3.246  -5.655   7.146  0.00  0.00    +0.140 A 
ATOM     37  F   LIG    1       -3.914  -6.107   6.062  0.00  0.00    -0.120 F 
ENDBRANCH  29  30
ENDBRANCH  28  29
ENDBRANCH  26  28
ENDBRANCH  23  26
ENDBRANCH   6  23
TORSDOF 8
