REMARK  Name = ZINCvU0000000ER3.0
REMARK                            x       y       z     vdW  Elec       q    Type
REMARK                         _______ _______ _______ _____ _____    ______ ____
ROOT
ATOM      1  C   LIG    1        8.010   2.384  -0.061  0.00  0.00    -0.130 A 
ATOM      2  C   LIG    1        8.889   1.298  -0.081  0.00  0.00    +0.090 A 
ATOM      3  C   LIG    1        8.394   0.015  -0.150  0.00  0.00    +0.010 A 
ATOM      4  C   LIG    1        7.027  -0.208  -0.201  0.00  0.00    +0.070 A 
ATOM      5  C   LIG    1        6.145   0.853  -0.176  0.00  0.00    +0.010 A 
ATOM      6  C   LIG    1        6.625   2.156  -0.112  0.00  0.00    +0.210 A 
ENDROOT
BRANCH   1   8
ATOM      7  O   LIG    1        7.766   4.694   0.146  0.00  0.00    -0.480 OA
ATOM      8  C   LIG    1        8.532   3.760   0.013  0.00  0.00    +0.510 C 
BRANCH   8   9
ATOM      9  O   LIG    1        9.858   3.982  -0.068  0.00  0.00    -0.340 OA
BRANCH   9  10
ATOM     10  C   LIG    1       10.302   5.362   0.012  0.00  0.00    +0.330 C 
BRANCH  10  11
ATOM     11  C   LIG    1       11.804   5.415  -0.095  0.00  0.00    +0.210 A 
ATOM     12  C   LIG    1       12.406   6.027  -1.173  0.00  0.00    -0.110 A 
ATOM     13  C   LIG    1       13.799   6.062  -1.249  0.00  0.00    +0.530 A 
ATOM     14  N   LIG    1       14.547   5.493  -0.258  0.00  0.00    -0.470 N 
ATOM     15  C   LIG    1       15.916   5.442  -0.182  0.00  0.00    +0.240 A 
ATOM     16  C   LIG    1       16.478   4.846   0.855  0.00  0.00    +0.020 A 
ATOM     17  S   LIG    1       15.134   4.280   1.862  0.00  0.00    +0.190 S 
ATOM     18  C   LIG    1       13.882   4.907   0.775  0.00  0.00    +0.310 A 
ATOM     19  O   LIG    1       14.348   6.600  -2.198  0.00  0.00    -0.510 OA
ATOM     20  N   LIG    1       12.565   4.877   0.851  0.00  0.00    -0.490 NA
ENDBRANCH  10  11
ENDBRANCH   9  10
ENDBRANCH   8   9
ENDBRANCH   1   8
BRANCH   6  21
ATOM     21  N   LIG    1        5.739   3.225  -0.094  0.00  0.00    -0.690 N 
ATOM     22  H   LIG    1        5.268   3.451   0.724  0.00  0.00    +0.410 HD
BRANCH  21  23
ATOM     23  C   LIG    1        5.527   3.979  -1.254  0.00  0.00    +0.240 A 
ATOM     24  C   LIG    1        4.578   4.993  -1.260  0.00  0.00    -0.040 A 
ATOM     25  C   LIG    1        4.369   5.736  -2.405  0.00  0.00    +0.090 A 
ATOM     26  C   LIG    1        5.107   5.469  -3.551  0.00  0.00    -0.150 A 
ATOM     27  C   LIG    1        6.052   4.451  -3.547  0.00  0.00    +0.050 A 
ATOM     28  C   LIG    1        6.265   3.712  -2.400  0.00  0.00    -0.050 A 
BRANCH  26  29
ATOM     29  S   LIG    1        4.840   6.418  -5.011  0.00  0.00    -0.100 S 
BRANCH  29  30
ATOM     30  C   LIG    1        6.018   5.696  -6.188  0.00  0.00    +0.430 C 
ATOM     31  F   LIG    1        5.726   4.339  -6.366  0.00  0.00    -0.180 F 
ATOM     32  F   LIG    1        7.318   5.831  -5.689  0.00  0.00    -0.180 F 
ENDBRANCH  29  30
ENDBRANCH  26  29
ENDBRANCH  21  23
ENDBRANCH   6  21
TORSDOF 8
