REMARK  Name = ZINCrD000000C5u0.0
REMARK                            x       y       z     vdW  Elec       q    Type
REMARK                         _______ _______ _______ _____ _____    ______ ____
ROOT
ATOM      1  O   LIG    1        7.329   1.482   0.043  0.00  0.00    -0.500 OA
ATOM      2  C   LIG    1        7.061   2.670   0.050  0.00  0.00    +0.590 C 
ATOM      3  N   LIG    1        5.778   3.072  -0.037  0.00  0.00    -0.680 N 
ATOM      4  H   LIG    1        5.570   4.017  -0.108  0.00  0.00    +0.400 HD
ENDROOT
BRANCH   2   5
ATOM      5  C   LIG    1        8.135   3.662   0.155  0.00  0.00    -0.060 A 
ATOM      6  C   LIG    1        9.485   3.396   0.257  0.00  0.00    +0.070 A 
ATOM      7  C   LIG    1       10.142   4.628   0.332  0.00  0.00    -0.170 A 
ATOM      8  C   LIG    1        9.204   5.603   0.284  0.00  0.00    +0.210 A 
ATOM      9  N   LIG    1        7.980   5.030   0.177  0.00  0.00    -0.540 N 
ATOM     10  H   LIG    1        7.136   5.504   0.124  0.00  0.00    +0.420 HD
BRANCH   7  11
ATOM     11  C   LIG    1       11.630   4.833   0.449  0.00  0.00    +0.150 C 
BRANCH  11  12
ATOM     12  C   LIG    1       12.019   4.867   1.905  0.00  0.00    -0.070 A 
ATOM     13  C   LIG    1       12.038   6.069   2.587  0.00  0.00    +0.000 A 
ATOM     14  C   LIG    1       12.390   6.100   3.924  0.00  0.00    +0.000 A 
ATOM     15  C   LIG    1       12.733   4.930   4.575  0.00  0.00    -0.010 A 
ATOM     16  C   LIG    1       12.719   3.728   3.891  0.00  0.00    +0.000 A 
ATOM     17  C   LIG    1       12.362   3.697   2.556  0.00  0.00    +0.010 A 
ENDBRANCH  11  12
ENDBRANCH   7  11
ENDBRANCH   2   5
BRANCH   3  18
ATOM     18  C   LIG    1        4.747   2.127  -0.026  0.00  0.00    +0.170 A 
ATOM     19  C   LIG    1        4.879   0.962   0.719  0.00  0.00    +0.010 A 
ATOM     20  C   LIG    1        3.860   0.029   0.730  0.00  0.00    +0.070 A 
ATOM     21  C   LIG    1        2.708   0.251   0.001  0.00  0.00    +0.010 A 
ATOM     22  C   LIG    1        2.569   1.414  -0.745  0.00  0.00    +0.180 A 
ATOM     23  C   LIG    1        3.592   2.351  -0.763  0.00  0.00    -0.040 A 
BRANCH  22  24
ATOM     24  N   LIG    1        1.400   1.638  -1.484  0.00  0.00    -0.480 N 
ATOM     25  C   LIG    1        1.132   2.751  -2.269  0.00  0.00    +0.160 A 
ATOM     26  C   LIG    1       -0.073   2.591  -2.805  0.00  0.00    +0.200 A 
ATOM     27  N   LIG    1       -0.577   1.375  -2.369  0.00  0.00    -0.640 N 
ATOM     28  H   LIG    1       -1.439   0.998  -2.605  0.00  0.00    +0.440 HD
ATOM     29  C   LIG    1        0.339   0.811  -1.557  0.00  0.00    +0.650 A 
ATOM     30  O   LIG    1        0.229  -0.263  -0.993  0.00  0.00    -0.550 OA
ENDBRANCH  22  24
ENDBRANCH   3  18
TORSDOF 5
