REMARK  Name = ZINCrD0000074duF.2
REMARK                            x       y       z     vdW  Elec       q    Type
REMARK                         _______ _______ _______ _____ _____    ______ ____
ROOT
ATOM      1  C   LIG    1        0.844   3.291   0.033  0.00  0.00    +0.560 C 
ATOM      2  N   LIG    1       -0.314   3.980   0.053  0.00  0.00    -0.670 N 
ATOM      3  H   LIG    1       -1.160   3.506   0.031  0.00  0.00    +0.410 HD
ATOM      4  O   LIG    1        1.903   3.878   0.153  0.00  0.00    -0.490 OA
ENDROOT
BRANCH   2   5
ATOM      5  C   LIG    1       -0.296   5.377   0.107  0.00  0.00    +0.170 A 
ATOM      6  C   LIG    1        0.723   6.084  -0.517  0.00  0.00    +0.020 A 
ATOM      7  C   LIG    1        0.738   7.464  -0.462  0.00  0.00    +0.030 A 
ATOM      8  C   LIG    1       -0.260   8.142   0.214  0.00  0.00    +0.010 A 
ATOM      9  C   LIG    1       -1.276   7.442   0.837  0.00  0.00    -0.100 A 
ATOM     10  C   LIG    1       -2.476   7.904   1.633  0.00  0.00    +0.270 C 
ATOM     11  N   LIG    1       -2.938   6.716   2.386  0.00  0.00    -0.470 NA
ATOM     12  C   LIG    1       -2.510   5.575   1.545  0.00  0.00    +0.270 C 
ATOM     13  C   LIG    1       -1.300   6.060   0.780  0.00  0.00    -0.160 A 
BRANCH  11  14
ATOM     14  C   LIG    1       -2.311   6.657   3.713  0.00  0.00    +0.080 C 
ATOM     15  C   LIG    1       -3.216   6.354   4.909  0.00  0.00    +0.040 C 
ATOM     16  C   LIG    1       -2.660   7.765   4.709  0.00  0.00    +0.030 C 
ENDBRANCH  11  14
ENDBRANCH   2   5
BRANCH   1  22
ATOM     17  C   LIG    1        2.033   1.105  -0.158  0.00  0.00    -0.040 A 
ATOM     18  C   LIG    1        2.004  -0.276  -0.317  0.00  0.00    -0.020 A 
ATOM     19  C   LIG    1        0.797  -0.930  -0.452  0.00  0.00    +0.070 A 
ATOM     20  C   LIG    1       -0.393  -0.220  -0.431  0.00  0.00    -0.010 A 
ATOM     21  C   LIG    1       -0.385   1.149  -0.274  0.00  0.00    +0.070 A 
ATOM     22  C   LIG    1        0.828   1.827  -0.135  0.00  0.00    -0.130 A 
BRANCH  17  23
ATOM     23  S   LIG    1        3.572   1.944   0.016  0.00  0.00    +0.070 S 
BRANCH  23  25
ATOM     24  C   LIG    1        6.189   1.151   0.081  0.00  0.00    +0.100 C 
ATOM     25  C   LIG    1        4.769   0.585   0.123  0.00  0.00    -0.060 C 
BRANCH  25  26
ATOM     26  C   LIG    1        4.564  -0.164   1.414  0.00  0.00    +0.520 C 
ATOM     27  O   LIG    1        3.978   0.364   2.335  0.00  0.00    -0.510 OA
ATOM     28  N   LIG    1        5.033  -1.421   1.546  0.00  0.00    -0.850 N 
ATOM     29  H   LIG    1        4.901  -1.903   2.377  0.00  0.00    +0.410 HD
ATOM     30  H   LIG    1        5.502  -1.843   0.809  0.00  0.00    +0.400 HD
ENDBRANCH  25  26
ENDBRANCH  23  25
ENDBRANCH  17  23
ENDBRANCH   1  22
TORSDOF 6
