REMARK  Name = ZINCvU0000000D8K.0
REMARK                            x       y       z     vdW  Elec       q    Type
REMARK                         _______ _______ _______ _____ _____    ______ ____
ROOT
ATOM      1  C   LIG    1        0.841   2.146  -0.210  0.00  0.00    +0.510 C 
ATOM      2  O   LIG    1        1.830   1.442  -0.248  0.00  0.00    -0.500 OA
ENDROOT
BRANCH   1   7
ATOM      3  C   LIG    1        1.377   7.873   0.079  0.00  0.00    +0.110 C 
ATOM      4  C   LIG    1        1.239   6.374   0.003  0.00  0.00    -0.070 A 
ATOM      5  C   LIG    1       -0.018   5.799  -0.023  0.00  0.00    +0.030 A 
ATOM      6  C   LIG    1       -0.153   4.427  -0.098  0.00  0.00    +0.070 A 
ATOM      7  C   LIG    1        0.982   3.615  -0.136  0.00  0.00    -0.110 A 
ATOM      8  C   LIG    1        2.251   4.196  -0.110  0.00  0.00    +0.100 A 
ATOM      9  C   LIG    1        2.375   5.575  -0.041  0.00  0.00    +0.130 A 
BRANCH   9  10
ATOM     10  N   LIG    1        3.644   6.162  -0.014  0.00  0.00    -0.660 N 
ATOM     11  H   LIG    1        3.763   7.074  -0.322  0.00  0.00    +0.420 HD
ATOM     12  C   LIG    1        4.702   5.460   0.439  0.00  0.00    +0.610 C 
ATOM     13  O   LIG    1        4.538   4.354   0.919  0.00  0.00    -0.490 OA
BRANCH  12  14
ATOM     14  C   LIG    1        6.050   6.030   0.355  0.00  0.00    -0.090 A 
ATOM     15  C   LIG    1        7.203   5.430   0.774  0.00  0.00    +0.060 A 
ATOM     16  C   LIG    1        8.248   6.327   0.502  0.00  0.00    -0.070 A 
ATOM     17  C   LIG    1        7.694   7.422  -0.064  0.00  0.00    +0.210 A 
ATOM     18  O   LIG    1        6.370   7.237  -0.157  0.00  0.00    -0.170 OA
ENDBRANCH  12  14
ENDBRANCH   9  10
ENDBRANCH   1   7
BRANCH   1  19
ATOM     19  O   LIG    1       -0.385   1.588  -0.235  0.00  0.00    -0.320 OA
BRANCH  19  20
ATOM     20  C   LIG    1       -0.448   0.139  -0.308  0.00  0.00    +0.190 C 
ATOM     21  C   LIG    1       -0.467  -0.442   1.107  0.00  0.00    +0.070 C 
BRANCH  20  22
ATOM     22  C   LIG    1       -1.701  -0.273  -1.038  0.00  0.00    +0.520 C 
ATOM     23  N   LIG    1       -1.972  -1.579  -1.226  0.00  0.00    -0.670 N 
ATOM     24  H   LIG    1       -1.328  -2.252  -0.955  0.00  0.00    +0.420 HD
ATOM     25  O   LIG    1       -2.465   0.572  -1.454  0.00  0.00    -0.490 OA
BRANCH  23  26
ATOM     26  C   LIG    1       -3.182  -1.965  -1.813  0.00  0.00    +0.170 A 
ATOM     27  C   LIG    1       -3.811  -3.134  -1.406  0.00  0.00    +0.020 A 
ATOM     28  C   LIG    1       -5.010  -3.510  -1.984  0.00  0.00    -0.000 A 
ATOM     29  C   LIG    1       -5.576  -2.729  -2.976  0.00  0.00    +0.030 A 
ATOM     30  C   LIG    1       -4.948  -1.566  -3.388  0.00  0.00    -0.000 A 
ATOM     31 CL   LIG    1       -5.662  -0.589  -4.632  0.00  0.00    -0.050 Cl
ATOM     32 CL   LIG    1       -5.801  -4.966  -1.469  0.00  0.00    -0.050 Cl
ATOM     33  C   LIG    1       -3.752  -1.183  -2.809  0.00  0.00    +0.050 A 
ENDBRANCH  23  26
ENDBRANCH  20  22
ENDBRANCH  19  20
ENDBRANCH   1  19
TORSDOF 7
