REMARK  Name = ZINCvU00000007BB.0
REMARK                            x       y       z     vdW  Elec       q    Type
REMARK                         _______ _______ _______ _____ _____    ______ ____
ROOT
ATOM      1  C   LIG    1        2.477   1.074  -0.016  0.00  0.00    +0.560 C 
ATOM      2  N   LIG    1        3.633   1.766  -0.024  0.00  0.00    -0.720 N 
ATOM      3  H   LIG    1        3.619   2.736  -0.018  0.00  0.00    +0.400 HD
ATOM      4  O   LIG    1        2.495  -0.141  -0.024  0.00  0.00    -0.530 OA
ENDROOT
BRANCH   1   8
ATOM      5  C   LIG    1       -1.228   3.139   0.030  0.00  0.00    -0.060 A 
ATOM      6  C   LIG    1       -1.209   1.746   0.017  0.00  0.00    -0.010 A 
ATOM      7  C   LIG    1       -0.013   1.076   0.008  0.00  0.00    +0.110 A 
ATOM      8  C   LIG    1        1.188   1.792   0.000  0.00  0.00    -0.140 A 
ATOM      9  C   LIG    1        1.165   3.190   0.008  0.00  0.00    +0.070 A 
ATOM     10  C   LIG    1       -0.034   3.855   0.023  0.00  0.00    +0.040 A 
BRANCH   5  11
ATOM     11  S   LIG    1       -2.767   3.996   0.049  0.00  0.00    -0.050 S 
BRANCH  11  12
ATOM     12  C   LIG    1       -3.984   2.651   0.053  0.00  0.00    +0.240 C 
BRANCH  12  17
ATOM     13  C   LIG    1       -8.437   4.510  -1.287  0.00  0.00    +0.200 C 
ATOM     14  C   LIG    1       -7.260   4.019  -0.484  0.00  0.00    +0.170 A 
ATOM     15  N   LIG    1       -7.175   3.981   0.812  0.00  0.00    -0.370 NA
ATOM     16  O   LIG    1       -6.102   3.527   1.150  0.00  0.00    +0.090 OA
ATOM     17  C   LIG    1       -5.375   3.231   0.068  0.00  0.00    +0.190 A 
ATOM     18  N   LIG    1       -6.105   3.537  -0.977  0.00  0.00    -0.460 NA
ENDBRANCH  12  17
ENDBRANCH  11  12
ENDBRANCH   5  11
ENDBRANCH   1   8
BRANCH   2  19
ATOM     19  C   LIG    1        4.913   1.053  -0.040  0.00  0.00    +0.300 C 
BRANCH  19  20
ATOM     20  C   LIG    1        5.305   0.692   1.369  0.00  0.00    -0.100 A 
ATOM     21  C   LIG    1        5.099   1.594   2.397  0.00  0.00    +0.010 A 
ATOM     22  C   LIG    1        5.455   1.262   3.690  0.00  0.00    +0.000 A 
ATOM     23  C   LIG    1        6.026   0.030   3.955  0.00  0.00    +0.000 A 
ATOM     24  C   LIG    1        6.237  -0.869   2.927  0.00  0.00    +0.000 A 
ATOM     25  C   LIG    1        5.877  -0.538   1.634  0.00  0.00    +0.020 A 
ENDBRANCH  19  20
BRANCH  19  26
ATOM     26  C   LIG    1        5.989   1.950  -0.655  0.00  0.00    +0.090 C 
BRANCH  26  27
ATOM     27  C   LIG    1        5.659   2.211  -2.103  0.00  0.00    -0.080 A 
ATOM     28  C   LIG    1        6.139   1.364  -3.084  0.00  0.00    +0.010 A 
ATOM     29  C   LIG    1        5.832   1.600  -4.411  0.00  0.00    +0.000 A 
ATOM     30  C   LIG    1        5.054   2.689  -4.758  0.00  0.00    +0.000 A 
ATOM     31  C   LIG    1        4.578   3.538  -3.776  0.00  0.00    +0.000 A 
ATOM     32  C   LIG    1        4.880   3.299  -2.449  0.00  0.00    +0.010 A 
ENDBRANCH  26  27
ENDBRANCH  19  26
ENDBRANCH   2  19
TORSDOF 8
