REMARK  Name = ZINCkj000005hpBK.1
REMARK                            x       y       z     vdW  Elec       q    Type
REMARK                         _______ _______ _______ _____ _____    ______ ____
ROOT
ATOM      1  C   LIG    1        0.001  -0.004   0.008  0.00  0.00    +0.310 C 
ATOM      2  N   LIG    1       -0.019   1.464   0.015  0.00  0.00    -0.390 N 
ATOM      3  C   LIG    1       -0.726   1.949  -1.177  0.00  0.00    +0.270 C 
ATOM      4  C   LIG    1       -0.672   3.478  -1.217  0.00  0.00    +0.050 C 
ATOM      5  C   LIG    1       -1.344   4.043   0.037  0.00  0.00    +0.280 C 
ATOM      6  C   LIG    1       -0.674   3.447   1.279  0.00  0.00    -0.010 C 
ATOM      7  C   LIG    1        0.795   3.937   1.325  0.00  0.00    +0.010 C 
ATOM      8  C   LIG    1        0.836   5.464   1.418  0.00  0.00    +0.030 C 
ATOM      9  C   LIG    1        0.169   6.065   0.176  0.00  0.00    +0.270 C 
ATOM     10  N   LIG    1       -1.183   5.504   0.048  0.00  0.00    -0.620 N 
ATOM     11  C   LIG    1       -2.256   6.314  -0.058  0.00  0.00    +0.710 C 
ATOM     12  N   LIG    1       -2.106   7.649   0.055  0.00  0.00    -0.740 N 
ATOM     13  H   LIG    1       -1.219   8.032   0.139  0.00  0.00    +0.400 HD
ATOM     14  O   LIG    1       -3.358   5.840  -0.256  0.00  0.00    -0.580 OA
ATOM     15  C   LIG    1       -0.705   1.938   1.223  0.00  0.00    +0.270 C 
ATOM     16  H   LIG    1        0.928   1.813   0.009  0.00  0.00    +0.420 HD
ENDROOT
BRANCH  12  17
ATOM     17  C   LIG    1       -3.283   8.520   0.051  0.00  0.00    +0.410 C 
BRANCH  17  18
ATOM     18  C   LIG    1       -2.846   9.956   0.190  0.00  0.00    -0.010 A 
ATOM     19  N   LIG    1       -2.601  10.593   1.298  0.00  0.00    -0.350 NA
ATOM     20  O   LIG    1       -2.264  11.736   1.090  0.00  0.00    +0.110 OA
ATOM     21  C   LIG    1       -2.251  12.014  -0.222  0.00  0.00    +0.170 A 
ATOM     22  C   LIG    1       -2.626  10.879  -0.858  0.00  0.00    -0.040 A 
ENDBRANCH  17  18
ENDBRANCH  12  17
TORSDOF 2
