REMARK  Name = ZINCkj000005hpBK.0
REMARK                            x       y       z     vdW  Elec       q    Type
REMARK                         _______ _______ _______ _____ _____    ______ ____
ROOT
ATOM      1  C   LIG    1       -4.421   0.863   1.981  0.00  0.00    +0.320 C 
ATOM      2  N   LIG    1       -3.059   1.397   2.118  0.00  0.00    -0.390 N 
ATOM      3  C   LIG    1       -3.117   2.862   2.205  0.00  0.00    +0.260 C 
ATOM      4  C   LIG    1       -1.710   3.414   2.439  0.00  0.00    +0.090 C 
ATOM      5  C   LIG    1       -0.802   3.005   1.280  0.00  0.00    +0.260 C 
ATOM      6  C   LIG    1       -0.817   1.481   1.128  0.00  0.00    -0.010 C 
ATOM      7  C   LIG    1       -0.006   1.094  -0.112  0.00  0.00    +0.060 C 
ATOM      8  C   LIG    1       -0.654   1.708  -1.356  0.00  0.00    +0.020 C 
ATOM      9  C   LIG    1       -0.645   3.235  -1.232  0.00  0.00    +0.260 C 
ATOM     10  N   LIG    1       -1.289   3.611   0.035  0.00  0.00    -0.630 N 
ATOM     11  C   LIG    1       -2.307   4.495   0.052  0.00  0.00    +0.710 C 
ATOM     12  N   LIG    1       -2.763   5.020  -1.102  0.00  0.00    -0.730 N 
ATOM     13  H   LIG    1       -2.410   4.708  -1.950  0.00  0.00    +0.400 HD
ATOM     14  O   LIG    1       -2.813   4.818   1.109  0.00  0.00    -0.580 OA
ATOM     15  C   LIG    1       -2.259   1.002   0.954  0.00  0.00    +0.250 C 
ATOM     16  H   LIG    1       -2.637   1.028   2.957  0.00  0.00    +0.420 HD
ENDROOT
BRANCH  12  17
ATOM     17  C   LIG    1       -3.793   6.062  -1.076  0.00  0.00    +0.400 C 
BRANCH  17  18
ATOM     18  C   LIG    1       -4.125   6.475  -2.486  0.00  0.00    -0.020 A 
ATOM     19  N   LIG    1       -3.501   7.362  -3.207  0.00  0.00    -0.340 NA
ATOM     20  O   LIG    1       -3.998   7.475  -4.303  0.00  0.00    +0.110 OA
ATOM     21  C   LIG    1       -5.053   6.661  -4.452  0.00  0.00    +0.180 A 
ATOM     22  C   LIG    1       -5.180   5.981  -3.287  0.00  0.00    -0.060 A 
ENDBRANCH  17  18
ENDBRANCH  12  17
TORSDOF 2
