REMARK  Name = ZINCrD000000Ar5p.0
REMARK                            x       y       z     vdW  Elec       q    Type
REMARK                         _______ _______ _______ _____ _____    ______ ____
ROOT
ATOM      1  O   LIG    1       -4.655   7.834  -2.628  0.00  0.00    -0.490 OA
ATOM      2  C   LIG    1       -4.579   8.023  -1.432  0.00  0.00    +0.520 C 
ATOM      3  N   LIG    1       -5.030   9.178  -0.903  0.00  0.00    -0.670 N 
ATOM      4  H   LIG    1       -5.040   9.299   0.059  0.00  0.00    +0.410 HD
ENDROOT
BRANCH   3   5
ATOM      5  C   LIG    1       -5.483  10.202  -1.742  0.00  0.00    +0.140 A 
ATOM      6  C   LIG    1       -4.896  10.393  -2.986  0.00  0.00    +0.020 A 
ATOM      7  C   LIG    1       -5.350  11.401  -3.814  0.00  0.00    +0.030 A 
ATOM      8  C   LIG    1       -6.380  12.227  -3.401  0.00  0.00    +0.000 A 
ATOM      9  C   LIG    1       -6.962  12.042  -2.160  0.00  0.00    -0.090 A 
ATOM     10  C   LIG    1       -6.517  11.033  -1.330  0.00  0.00    +0.010 A 
BRANCH   9  11
ATOM     11  C   LIG    1       -8.085  12.944  -1.714  0.00  0.00    +0.350 C 
BRANCH  11  12
ATOM     12  N   LIG    1       -7.530  14.102  -1.009  0.00  0.00    -0.620 N 
ATOM     13  C   LIG    1       -7.147  15.361  -1.659  0.00  0.00    +0.250 C 
ATOM     14  C   LIG    1       -6.238  16.088  -0.643  0.00  0.00    +0.040 C 
ATOM     15  C   LIG    1       -6.720  15.489   0.698  0.00  0.00    +0.040 C 
ATOM     16  C   LIG    1       -7.311  14.150   0.316  0.00  0.00    +0.520 C 
ATOM     17  O   LIG    1       -7.551  13.249   1.093  0.00  0.00    -0.530 OA
ENDBRANCH  11  12
ENDBRANCH   9  11
ENDBRANCH   3   5
BRANCH   2  18
ATOM     18  C   LIG    1       -3.981   6.968  -0.538  0.00  0.00    +0.240 C 
BRANCH  18  19
ATOM     19  O   LIG    1       -3.580   5.846  -1.328  0.00  0.00    -0.290 OA
BRANCH  19  20
ATOM     20  C   LIG    1       -3.017   4.798  -0.670  0.00  0.00    +0.130 A 
ATOM     21  C   LIG    1       -2.854   4.848   0.706  0.00  0.00    -0.080 A 
ATOM     22  C   LIG    1       -2.281   3.781   1.370  0.00  0.00    +0.050 A 
ATOM     23  C   LIG    1       -1.869   2.661   0.667  0.00  0.00    -0.130 A 
ATOM     24  C   LIG    1       -1.219   1.381   1.157  0.00  0.00    +0.070 C 
ATOM     25  C   LIG    1       -0.613   0.732  -0.106  0.00  0.00    +0.030 C 
ATOM     26  C   LIG    1       -1.506   1.291  -1.233  0.00  0.00    +0.080 C 
ATOM     27  C   LIG    1       -2.031   2.610  -0.706  0.00  0.00    -0.060 A 
ATOM     28  C   LIG    1       -2.604   3.677  -1.373  0.00  0.00    +0.000 A 
ENDBRANCH  19  20
ENDBRANCH  18  19
ENDBRANCH   2  18
TORSDOF 6
