REMARK  Name = ZINCpe000000WVIO.0
REMARK                            x       y       z     vdW  Elec       q    Type
REMARK                         _______ _______ _______ _____ _____    ______ ____
ROOT
ATOM      1  C   LIG    1       -2.152  -1.940  -5.074  0.00  0.00    +0.100 C 
ATOM      2  C   LIG    1       -1.760  -2.524  -3.715  0.00  0.00    +0.010 C 
ENDROOT
BRANCH   2   3
ATOM      3  C   LIG    1       -2.707  -3.640  -3.356  0.00  0.00    +0.540 C 
ATOM      4  N   LIG    1       -2.482  -4.888  -3.812  0.00  0.00    -0.690 N 
ATOM      5  H   LIG    1       -1.710  -5.068  -4.372  0.00  0.00    +0.410 HD
ATOM      6  C   LIG    1       -3.329  -5.886  -3.491  0.00  0.00    +0.700 C 
ATOM      7  N   LIG    1       -3.103  -7.134  -3.948  0.00  0.00    -0.730 N 
ATOM      8  H   LIG    1       -2.332  -7.314  -4.507  0.00  0.00    +0.400 HD
ATOM      9  O   LIG    1       -4.296  -5.660  -2.791  0.00  0.00    -0.520 OA
ATOM     10  O   LIG    1       -3.672  -3.415  -2.657  0.00  0.00    -0.450 OA
BRANCH   7  11
ATOM     11  C   LIG    1       -4.024  -8.219  -3.599  0.00  0.00    +0.180 C 
ATOM     12  C   LIG    1       -4.066  -8.383  -2.078  0.00  0.00    +0.030 C 
ATOM     13  C   LIG    1       -3.543  -9.522  -4.240  0.00  0.00    +0.040 C 
ATOM     14  C   LIG    1       -5.425  -7.884  -4.114  0.00  0.00    +0.030 C 
ENDBRANCH   7  11
ENDBRANCH   2   3
BRANCH   2  15
ATOM     15  S   LIG    1       -1.848  -1.228  -2.454  0.00  0.00    +0.100 S 
BRANCH  15  16
ATOM     16  C   LIG    1       -0.571  -0.158  -3.025  0.00  0.00    +0.240 A 
ATOM     17  N   LIG    1        0.166  -0.351  -4.081  0.00  0.00    -0.280 NA
ATOM     18  N   LIG    1        1.059   0.725  -4.189  0.00  0.00    -0.540 N 
ATOM     19  H   LIG    1        1.728   0.848  -4.881  0.00  0.00    +0.460 HD
ATOM     20  C   LIG    1        0.812   1.559  -3.159  0.00  0.00    +0.660 A 
ATOM     21  O   LIG    1        1.390   2.606  -2.926  0.00  0.00    -0.540 OA
ATOM     22  N   LIG    1       -0.187   1.023  -2.431  0.00  0.00    -0.530 N 
BRANCH  22  23
ATOM     23  C   LIG    1       -0.770   1.601  -1.217  0.00  0.00    +0.330 C 
BRANCH  23  24
ATOM     24  C   LIG    1       -0.013   1.086   0.008  0.00  0.00    +0.150 C 
ATOM     25  C   LIG    1       -0.692   1.593   1.298  0.00  0.00    +0.020 C 
ATOM     26  C   LIG    1        0.525   1.919   2.206  0.00  0.00    +0.010 C 
ATOM     27  C   LIG    1        1.552   2.412   1.155  0.00  0.00    +0.200 C 
ATOM     28  O   LIG    1        1.328   1.590  -0.002  0.00  0.00    -0.370 OA
ENDBRANCH  23  24
ENDBRANCH  22  23
ENDBRANCH  15  16
ENDBRANCH   2  15
TORSDOF 6
