REMARK  Name = ZINCrH000004oNJX.0
REMARK                            x       y       z     vdW  Elec       q    Type
REMARK                         _______ _______ _______ _____ _____    ______ ____
ROOT
ATOM      1  N   LIG    1        4.916   2.862  -0.638  0.00  0.00    -0.740 N 
ATOM      2  H   LIG    1        5.622   3.389  -0.232  0.00  0.00    +0.390 HD
ATOM      3  C   LIG    1        3.626   3.197  -0.440  0.00  0.00    +0.710 C 
ATOM      4  N   LIG    1        3.318   4.312   0.250  0.00  0.00    -0.620 N 
ATOM      5  C   LIG    1        4.369   5.252   0.663  0.00  0.00    +0.260 C 
ATOM      6  C   LIG    1        3.999   6.654   0.168  0.00  0.00    +0.010 C 
ATOM      7  C   LIG    1        2.600   7.016   0.672  0.00  0.00    +0.020 C 
ATOM      8  C   LIG    1        1.581   6.021   0.111  0.00  0.00    +0.020 C 
ATOM      9  C   LIG    1        1.924   4.612   0.605  0.00  0.00    +0.250 C 
ATOM     10  O   LIG    1        2.740   2.492  -0.884  0.00  0.00    -0.560 OA
ENDROOT
BRANCH   9  11
ATOM     11  C   LIG    1        0.995   3.595  -0.061  0.00  0.00    +0.040 C 
ATOM     12  C   LIG    1        1.057   2.232   0.663  0.00  0.00    +0.270 C 
ATOM     13  N   LIG    1       -0.311   1.702   0.617  0.00  0.00    -0.730 N 
ATOM     14  H   LIG    1       -0.544   0.774   0.776  0.00  0.00    +0.410 HD
ATOM     15  C   LIG    1       -1.199   2.667   0.321  0.00  0.00    +0.520 C 
ATOM     16  O   LIG    1       -2.396   2.502   0.222  0.00  0.00    -0.540 OA
ATOM     17  C   LIG    1       -0.488   3.988   0.133  0.00  0.00    +0.040 C 
ENDBRANCH   9  11
BRANCH   1  18
ATOM     18  C   LIG    1        5.253   1.702  -1.467  0.00  0.00    +0.340 C 
BRANCH  18  19
ATOM     19  C   LIG    1        6.635   1.216  -1.114  0.00  0.00    -0.080 A 
ATOM     20  C   LIG    1        7.644   2.126  -0.863  0.00  0.00    +0.030 A 
ATOM     21  C   LIG    1        8.911   1.681  -0.533  0.00  0.00    +0.040 A 
ATOM     22  C   LIG    1        9.171   0.324  -0.465  0.00  0.00    -0.030 A 
ATOM     23  C   LIG    1        8.161  -0.587  -0.722  0.00  0.00    +0.040 A 
ATOM     24 CL   LIG    1       10.762  -0.236  -0.058  0.00  0.00    -0.070 Cl
ATOM     25  C   LIG    1        6.894  -0.141  -1.046  0.00  0.00    +0.040 A 
ENDBRANCH  18  19
BRANCH  18  29
ATOM     26  C   LIG    1        3.160   0.498  -3.149  0.00  0.00    +0.060 C 
ATOM     27  C   LIG    1        4.127   1.476  -3.818  0.00  0.00    -0.030 C 
ATOM     28  C   LIG    1        5.583   1.033  -3.975  0.00  0.00    +0.010 C 
ATOM     29  C   LIG    1        5.216   2.102  -2.944  0.00  0.00    -0.060 C 
ENDBRANCH  18  29
ENDBRANCH   1  18
TORSDOF 4
