REMARK  Name = ZINCkj00000AlhHt.0
REMARK                            x       y       z     vdW  Elec       q    Type
REMARK                         _______ _______ _______ _____ _____    ______ ____
ROOT
ATOM      1  C   LIG    1       -0.199   2.089   0.954  0.00  0.00    +0.150 C 
ATOM      2  C   LIG    1       -0.078   3.596   0.642  0.00  0.00    +0.090 C 
ATOM      3  C   LIG    1       -0.113   4.294   2.017  0.00  0.00    +0.070 C 
ATOM      4  C   LIG    1       -0.253   3.150   3.044  0.00  0.00    +0.240 C 
ATOM      5  N   LIG    1        0.292   1.955   2.350  0.00  0.00    -0.390 N 
ATOM      6  H   LIG    1        1.301   1.963   2.371  0.00  0.00    +0.420 HD
ENDROOT
BRANCH   1   7
ATOM      7  C   LIG    1        0.677   1.275  -0.000  0.00  0.00    +0.330 C 
BRANCH   7  10
ATOM      8  C   LIG    1        2.814   0.196   1.520  0.00  0.00    +0.090 C 
ATOM      9  C   LIG    1        1.627  -0.654   1.148  0.00  0.00    +0.490 C 
ATOM     10  N   LIG    1        0.640  -0.138   0.388  0.00  0.00    -0.600 N 
ATOM     11  O   LIG    1        1.558  -1.802   1.532  0.00  0.00    -0.490 OA
BRANCH  10  12
ATOM     12  C   LIG    1       -0.468  -0.989  -0.051  0.00  0.00    +0.180 C 
ATOM     13  C   LIG    1       -0.678  -2.312   0.689  0.00  0.00    +0.050 C 
ATOM     14  C   LIG    1       -0.116  -2.311  -0.735  0.00  0.00    +0.040 C 
ENDBRANCH  10  12
ENDBRANCH   7  10
ENDBRANCH   1   7
BRANCH   5  15
ATOM     15  C   LIG    1       -0.227   0.724   2.961  0.00  0.00    +0.360 C 
BRANCH  15  16
ATOM     16  C   LIG    1       -1.722   0.833   3.118  0.00  0.00    -0.110 A 
ATOM     17  C   LIG    1       -2.655   0.392   2.253  0.00  0.00    +0.220 A 
ATOM     18  N   LIG    1       -3.862   0.680   2.761  0.00  0.00    -0.480 NA
ATOM     19  C   LIG    1       -3.713   1.284   3.908  0.00  0.00    +0.450 A 
ATOM     20  N   LIG    1       -2.393   1.395   4.171  0.00  0.00    -0.460 N 
ATOM     21  C   LIG    1       -1.791   2.004   5.359  0.00  0.00    +0.340 C 
ENDBRANCH  15  16
ENDBRANCH   5  15
TORSDOF 5
