REMARK  Name = ZINCkj00000AlhHt.1
REMARK                            x       y       z     vdW  Elec       q    Type
REMARK                         _______ _______ _______ _____ _____    ______ ____
ROOT
ATOM      1  C   LIG    1       -1.198   4.664  -1.226  0.00  0.00    +0.140 C 
ATOM      2  C   LIG    1       -2.226   5.751  -1.603  0.00  0.00    +0.090 C 
ATOM      3  C   LIG    1       -1.341   6.875  -2.203  0.00  0.00    +0.080 C 
ATOM      4  C   LIG    1       -0.244   6.057  -2.928  0.00  0.00    +0.240 C 
ATOM      5  N   LIG    1        0.004   4.895  -2.047  0.00  0.00    -0.380 N 
ATOM      6  H   LIG    1        0.793   5.085  -1.448  0.00  0.00    +0.430 HD
ENDROOT
BRANCH   1   7
ATOM      7  C   LIG    1       -1.774   3.278  -1.524  0.00  0.00    +0.320 C 
BRANCH   7  10
ATOM      8  C   LIG    1       -1.510   2.445   1.173  0.00  0.00    +0.110 C 
ATOM      9  C   LIG    1       -2.871   2.627   0.551  0.00  0.00    +0.510 C 
ATOM     10  N   LIG    1       -2.978   3.065  -0.718  0.00  0.00    -0.580 N 
ATOM     11  O   LIG    1       -3.869   2.378   1.194  0.00  0.00    -0.500 OA
BRANCH  10  12
ATOM     12  C   LIG    1       -4.300   3.329  -1.292  0.00  0.00    +0.180 C 
ATOM     13  C   LIG    1       -5.476   3.471  -0.324  0.00  0.00    +0.060 C 
ATOM     14  C   LIG    1       -5.348   2.219  -1.193  0.00  0.00    +0.020 C 
ENDBRANCH  10  12
ENDBRANCH   7  10
ENDBRANCH   1   7
BRANCH   5  15
ATOM     15  C   LIG    1        0.279   3.707  -2.866  0.00  0.00    +0.360 C 
BRANCH  15  16
ATOM     16  C   LIG    1        1.538   3.929  -3.665  0.00  0.00    -0.120 A 
ATOM     17  C   LIG    1        2.782   3.542  -3.326  0.00  0.00    +0.230 A 
ATOM     18  N   LIG    1        3.617   3.927  -4.303  0.00  0.00    -0.490 NA
ATOM     19  C   LIG    1        2.937   4.538  -5.234  0.00  0.00    +0.460 A 
ATOM     20  N   LIG    1        1.635   4.556  -4.878  0.00  0.00    -0.460 N 
ATOM     21  C   LIG    1        0.532   5.141  -5.645  0.00  0.00    +0.340 C 
ENDBRANCH  15  16
ENDBRANCH   5  15
TORSDOF 5
