REMARK  Name = ZINCnE000001RVOg.1
REMARK                            x       y       z     vdW  Elec       q    Type
REMARK                         _______ _______ _______ _____ _____    ______ ____
ROOT
ATOM      1  C   LIG    1       -1.300  -0.785   0.466  0.00  0.00    +0.200 A 
ATOM      2  C   LIG    1       -1.367  -2.112   0.665  0.00  0.00    -0.140 A 
ATOM      3  S   LIG    1       -3.058  -2.600   0.567  0.00  0.00    +0.040 S 
ATOM      4  C   LIG    1       -3.522  -0.930   0.252  0.00  0.00    +0.320 A 
ATOM      5  N   LIG    1       -2.461  -0.183   0.246  0.00  0.00    -0.520 NA
ENDROOT
BRANCH   1   8
ATOM      6  C   LIG    1        1.211   2.020   0.285  0.00  0.00    -0.310 A 
ATOM      7  C   LIG    1        0.000   1.328   0.267  0.00  0.00    +0.130 A 
ATOM      8  C   LIG    1       -0.014  -0.045   0.484  0.00  0.00    -0.200 A 
ATOM      9  C   LIG    1        1.181  -0.728   0.720  0.00  0.00    +0.070 A 
ATOM     10  C   LIG    1        2.379  -0.046   0.738  0.00  0.00    -0.150 A 
ATOM     11  C   LIG    1        2.406   1.325   0.522  0.00  0.00    +0.320 A 
ATOM     12  O   LIG    1        3.587   1.992   0.542  0.00  0.00    -0.660 OA
BRANCH   6  16
ATOM     13  N   LIG    1        0.086   4.142  -0.174  0.00  0.00    -0.880 N 
ATOM     14  H   LIG    1        0.102   5.100  -0.325  0.00  0.00    +0.390 HD
ATOM     15  H   LIG    1       -0.757   3.663  -0.187  0.00  0.00    +0.390 HD
ATOM     16  C   LIG    1        1.236   3.477   0.055  0.00  0.00    +0.570 C 
ATOM     17  O   LIG    1        2.293   4.077   0.071  0.00  0.00    -0.530 OA
ENDBRANCH   6  16
ENDBRANCH   1   8
BRANCH   4  18
ATOM     18  N   LIG    1       -4.817  -0.484   0.043  0.00  0.00    -0.630 N 
ATOM     19  H   LIG    1       -4.997   0.466  -0.033  0.00  0.00    +0.420 HD
BRANCH  18  20
ATOM     20  C   LIG    1       -5.866  -1.405  -0.059  0.00  0.00    +0.160 A 
ATOM     21  C   LIG    1       -5.658  -2.630  -0.679  0.00  0.00    +0.010 A 
ATOM     22  C   LIG    1       -6.694  -3.539  -0.773  0.00  0.00    +0.030 A 
ATOM     23  C   LIG    1       -7.941  -3.226  -0.260  0.00  0.00    +0.070 A 
ATOM     24  C   LIG    1       -8.151  -2.003   0.354  0.00  0.00    +0.020 A 
ATOM     25  F   LIG    1       -8.954  -4.114  -0.358  0.00  0.00    -0.140 F 
ATOM     26  C   LIG    1       -7.118  -1.092   0.455  0.00  0.00    +0.020 A 
ENDBRANCH  18  20
ENDBRANCH   4  18
TORSDOF 4
