REMARK  Name = ZINCpe000000Y3wO.0
REMARK                            x       y       z     vdW  Elec       q    Type
REMARK                         _______ _______ _______ _____ _____    ______ ____
ROOT
ATOM      1  C   LIG    1       -2.087  -1.076   1.134  0.00  0.00    +0.050 C 
ENDROOT
BRANCH   1   2
ATOM      2  C   LIG    1       -3.382  -1.839   1.248  0.00  0.00    +0.520 C 
ATOM      3  N   LIG    1       -3.920  -2.077   2.461  0.00  0.00    -0.610 N 
ATOM      4  C   LIG    1       -3.256  -1.605   3.686  0.00  0.00    +0.280 C 
ATOM      5  C   LIG    1       -4.287  -0.835   4.527  0.00  0.00    +0.170 C 
ATOM      6  N   LIG    1       -5.465  -1.684   4.746  0.00  0.00    -0.530 NA
ATOM      7  C   LIG    1       -6.134  -2.006   3.478  0.00  0.00    +0.180 C 
ATOM      8  C   LIG    1       -5.182  -2.819   2.595  0.00  0.00    +0.290 C 
ATOM      9  O   LIG    1       -3.940  -2.239   0.248  0.00  0.00    -0.540 OA
BRANCH   6  10
ATOM     10  C   LIG    1       -6.399  -1.054   5.689  0.00  0.00    +0.190 C 
BRANCH  10  11
ATOM     11  C   LIG    1       -6.640   0.399   5.275  0.00  0.00    +0.160 C 
ATOM     12  C   LIG    1       -7.490   1.098   6.338  0.00  0.00    +0.010 C 
BRANCH  11  13
ATOM     13  O   LIG    1       -7.325   0.430   4.021  0.00  0.00    -0.560 OA
ATOM     14  H   LIG    1       -8.186  -0.010   4.032  0.00  0.00    +0.380 HD
ENDBRANCH  11  13
ENDBRANCH  10  11
ENDBRANCH   6  10
ENDBRANCH   1   2
BRANCH   1  15
ATOM     15  C   LIG    1       -1.700  -0.946  -0.340  0.00  0.00    +0.140 C 
BRANCH  15  26
ATOM     16  C   LIG    1       -1.717   1.966  -0.385  0.00  0.00    +0.160 C 
ATOM     17  C   LIG    1       -0.411   1.219  -0.473  0.00  0.00    +0.220 A 
ATOM     18  N   LIG    1        0.716   1.883  -0.573  0.00  0.00    -0.470 NA
ATOM     19  C   LIG    1        1.888   1.239  -0.658  0.00  0.00    +0.260 A 
ATOM     20  C   LIG    1        3.199   1.683  -0.770  0.00  0.00    -0.110 A 
ATOM     21  C   LIG    1        4.018   0.566  -0.820  0.00  0.00    +0.290 A 
ATOM     22  N   LIG    1        3.274  -0.515  -0.746  0.00  0.00    -0.320 NA
ATOM     23  N   LIG    1        1.931  -0.132  -0.643  0.00  0.00    -0.310 N 
ATOM     24  C   LIG    1        0.773  -0.847  -0.540  0.00  0.00    +0.200 A 
ATOM     25  C   LIG    1        0.804  -2.353  -0.521  0.00  0.00    +0.170 C 
ATOM     26  C   LIG    1       -0.406  -0.183  -0.455  0.00  0.00    -0.200 A 
ENDBRANCH  15  26
ENDBRANCH   1  15
TORSDOF 6
