REMARK  Name = ZINCtV00001bB36C.0
REMARK                            x       y       z     vdW  Elec       q    Type
REMARK                         _______ _______ _______ _____ _____    ______ ____
ROOT
ATOM      1  C   LIG    1        6.337  -1.400  -1.626  0.00  0.00    -0.130 A 
ATOM      2  C   LIG    1        5.370  -1.005  -2.559  0.00  0.00    +0.100 A 
ATOM      3  C   LIG    1        4.100  -0.686  -2.136  0.00  0.00    -0.010 A 
ATOM      4  C   LIG    1        3.776  -0.756  -0.786  0.00  0.00    +0.160 A 
ATOM      5  C   LIG    1        4.733  -1.142   0.145  0.00  0.00    -0.080 A 
ATOM      6  C   LIG    1        6.005  -1.468  -0.267  0.00  0.00    +0.080 A 
ENDROOT
BRANCH   1   8
ATOM      7  C   LIG    1        8.766  -1.413  -1.300  0.00  0.00    -0.060 C 
ATOM      8  C   LIG    1        7.694  -1.742  -2.071  0.00  0.00    +0.170 C 
BRANCH   7   9
ATOM      9  C   LIG    1        8.582  -0.572  -0.094  0.00  0.00    +0.020 A 
ATOM     10  C   LIG    1        8.217   0.768  -0.224  0.00  0.00    +0.060 A 
ATOM     11  C   LIG    1        8.040   1.544   0.903  0.00  0.00    +0.110 A 
ATOM     12  C   LIG    1        8.236   0.999   2.159  0.00  0.00    -0.040 A 
ATOM     13  C   LIG    1        8.604  -0.328   2.295  0.00  0.00    +0.110 A 
ATOM     14  C   LIG    1        8.777  -1.116   1.175  0.00  0.00    +0.040 A 
BRANCH  12  15
ATOM     15  N   LIG    1        8.051   1.839   3.364  0.00  0.00    +0.030 N 
ATOM     16  O   LIG    1        7.728   3.007   3.248  0.00  0.00    -0.160 OA
ATOM     17  O   LIG    1        8.223   1.362   4.472  0.00  0.00    -0.160 OA
ENDBRANCH  12  15
ENDBRANCH   7   9
BRANCH   7  19
ATOM     18  N   LIG    1       11.109  -2.250  -1.935  0.00  0.00    -0.400 NA
ATOM     19  C   LIG    1       10.073  -1.879  -1.654  0.00  0.00    +0.250 C 
ENDBRANCH   7  19
ENDBRANCH   1   8
BRANCH   4  20
ATOM     20  O   LIG    1        2.521  -0.441  -0.374  0.00  0.00    -0.300 OA
BRANCH  20  21
ATOM     21  C   LIG    1        2.255  -0.534   1.027  0.00  0.00    +0.260 C 
BRANCH  21  22
ATOM     22  C   LIG    1        0.822  -0.149   1.293  0.00  0.00    -0.130 A 
ATOM     23  C   LIG    1       -0.169  -1.115   1.276  0.00  0.00    +0.140 A 
ATOM     24  C   LIG    1       -1.486  -0.759   1.515  0.00  0.00    +0.000 A 
ATOM     25  C   LIG    1       -1.808   0.557   1.783  0.00  0.00    +0.090 A 
ATOM     26  C   LIG    1       -0.818   1.522   1.799  0.00  0.00    +0.030 A 
ATOM     27  F   LIG    1        0.147  -2.404   1.020  0.00  0.00    -0.130 F 
ATOM     28  C   LIG    1        0.497   1.170   1.555  0.00  0.00    +0.010 A 
ATOM     29 CL   LIG    1        1.739   2.382   1.576  0.00  0.00    -0.040 Cl
ENDBRANCH  21  22
ENDBRANCH  20  21
ENDBRANCH   4  20
TORSDOF 7
