REMARK  Name = ZINCtj00000mhXS6.1
REMARK                            x       y       z     vdW  Elec       q    Type
REMARK                         _______ _______ _______ _____ _____    ______ ____
ROOT
ATOM      1  O   LIG    1       -7.136   5.226  -3.277  0.00  0.00    -0.530 OA
ATOM      2  C   LIG    1       -6.059   5.397  -3.806  0.00  0.00    +0.510 C 
ATOM      3  N   LIG    1       -5.995   5.775  -5.098  0.00  0.00    -0.720 N 
ATOM      4  H   LIG    1       -5.133   5.912  -5.522  0.00  0.00    +0.400 HD
ENDROOT
BRANCH   2   5
ATOM      5  C   LIG    1       -4.791   5.186  -3.019  0.00  0.00    +0.000 C 
ATOM      6  C   LIG    1       -5.140   4.763  -1.589  0.00  0.00    +0.090 C 
ATOM      7  C   LIG    1       -3.849   4.474  -0.820  0.00  0.00    +0.270 C 
ATOM      8  N   LIG    1       -3.110   3.394  -1.484  0.00  0.00    -0.370 N 
ATOM      9  C   LIG    1       -2.710   3.821  -2.830  0.00  0.00    +0.270 C 
ATOM     10  H   LIG    1       -3.699   2.578  -1.553  0.00  0.00    +0.430 HD
ATOM     11  C   LIG    1       -3.957   4.084  -3.678  0.00  0.00    +0.080 C 
BRANCH   8  12
ATOM     12  C   LIG    1       -1.912   3.067  -0.699  0.00  0.00    +0.190 C 
ATOM     13  C   LIG    1       -2.319   2.547   0.691  0.00  0.00    +0.090 C 
ATOM     14  C   LIG    1       -1.084   1.899   1.359  0.00  0.00    -0.280 C 
ATOM     15  S   LIG    1       -0.054   1.306  -0.032  0.00  0.00    +2.410 S 
ATOM     16  O   LIG    1        1.177   2.014  -0.042  0.00  0.00    -0.900 OA
ATOM     17  O   LIG    1       -0.053  -0.115  -0.044  0.00  0.00    -0.900 OA
ATOM     18  C   LIG    1       -1.122   1.924  -1.387  0.00  0.00    -0.320 C 
ENDBRANCH   8  12
ENDBRANCH   2   5
BRANCH   3  19
ATOM     19  C   LIG    1       -7.227   5.980  -5.863  0.00  0.00    +0.330 C 
BRANCH  19  20
ATOM     20  C   LIG    1       -6.882   6.396  -7.270  0.00  0.00    -0.150 A 
ATOM     21  C   LIG    1       -6.747   7.737  -7.579  0.00  0.00    +0.060 A 
ATOM     22  C   LIG    1       -6.426   8.122  -8.866  0.00  0.00    +0.000 A 
ATOM     23  C   LIG    1       -6.250   7.160  -9.853  0.00  0.00    +0.180 A 
ATOM     24  C   LIG    1       -6.391   5.815  -9.540  0.00  0.00    -0.030 A 
ATOM     25  C   LIG    1       -6.707   5.437  -8.250  0.00  0.00    +0.060 A 
BRANCH  23  26
ATOM     26  N   LIG    1       -5.930   7.547 -11.159  0.00  0.00    -0.560 N 
ATOM     27  C   LIG    1       -5.604   6.612 -12.243  0.00  0.00    +0.260 C 
ATOM     28  C   LIG    1       -4.913   7.466 -13.329  0.00  0.00    +0.060 C 
ATOM     29  C   LIG    1       -5.495   8.870 -13.044  0.00  0.00    +0.070 C 
ATOM     30  C   LIG    1       -5.887   8.821 -11.584  0.00  0.00    +0.520 C 
ATOM     31  O   LIG    1       -6.126   9.791 -10.896  0.00  0.00    -0.500 OA
ENDBRANCH  23  26
ENDBRANCH  19  20
ENDBRANCH   3  19
TORSDOF 5
