REMARK  Name = ZINCpe00000MJKuh.0
REMARK                            x       y       z     vdW  Elec       q    Type
REMARK                         _______ _______ _______ _____ _____    ______ ____
ROOT
ATOM      1  C   LIG    1       -1.324   4.941   3.356  0.00  0.00    +0.160 C 
ATOM      2  C   LIG    1       -0.199   5.720   4.061  0.00  0.00    +0.260 C 
ATOM      3  N   LIG    1       -0.999   6.930   3.777  0.00  0.00    -0.640 N 
ATOM      4  C   LIG    1       -0.712   8.239   3.635  0.00  0.00    +0.580 C 
ATOM      5  O   LIG    1       -1.607   9.041   3.451  0.00  0.00    -0.510 OA
ATOM      6  C   LIG    1       -2.236   6.129   3.709  0.00  0.00    +0.320 C 
ENDROOT
BRANCH   4   7
ATOM      7  C   LIG    1        0.693   8.701   3.704  0.00  0.00    -0.120 A 
ATOM      8  C   LIG    1        1.721   7.824   4.066  0.00  0.00    +0.030 A 
ATOM      9  C   LIG    1        3.017   8.297   4.117  0.00  0.00    +0.260 A 
ATOM     10  N   LIG    1        3.293   9.554   3.831  0.00  0.00    -0.440 NA
ATOM     11  C   LIG    1        2.358  10.414   3.484  0.00  0.00    +0.260 A 
ATOM     12  C   LIG    1        1.031  10.026   3.401  0.00  0.00    +0.110 A 
ATOM     13  F   LIG    1        0.078  10.912   3.040  0.00  0.00    -0.100 F 
ENDBRANCH   4   7
BRANCH   1  19
ATOM     14  C   LIG    1       -0.837   2.580   3.590  0.00  0.00    +0.250 C 
ATOM     15  C   LIG    1       -1.292   1.288   4.274  0.00  0.00    +0.250 C 
ATOM     16  O   LIG    1       -1.256   1.467   5.692  0.00  0.00    -0.370 OA
ATOM     17  C   LIG    1       -2.078   2.540   6.159  0.00  0.00    +0.240 C 
ATOM     18  C   LIG    1       -1.631   3.845   5.494  0.00  0.00    +0.170 C 
ATOM     19  N   LIG    1       -1.692   3.690   4.033  0.00  0.00    -0.520 NA
BRANCH  14  24
ATOM     20  C   LIG    1        0.188   1.950  -1.271  0.00  0.00    +0.200 C 
ATOM     21  C   LIG    1       -0.529   2.159   0.038  0.00  0.00    +0.170 A 
ATOM     22  N   LIG    1       -1.811   2.295   0.200  0.00  0.00    -0.380 NA
ATOM     23  O   LIG    1       -2.073   2.443   1.375  0.00  0.00    +0.100 OA
ATOM     24  C   LIG    1       -0.948   2.424   2.095  0.00  0.00    +0.180 A 
ATOM     25  N   LIG    1        0.041   2.243   1.253  0.00  0.00    -0.470 NA
ENDBRANCH  14  24
ENDBRANCH   1  19
TORSDOF 3
