REMARK  Name = ZINCrD000000ANqG.0
REMARK                            x       y       z     vdW  Elec       q    Type
REMARK                         _______ _______ _______ _____ _____    ______ ____
ROOT
ATOM      1  O   LIG    1       -1.079   2.061   0.018  0.00  0.00    -0.520 OA
ATOM      2  C   LIG    1       -0.018   1.467   0.010  0.00  0.00    +0.590 C 
ATOM      3  N   LIG    1        1.140   2.157   0.003  0.00  0.00    -0.720 N 
ATOM      4  H   LIG    1        1.986   1.684  -0.008  0.00  0.00    +0.400 HD
ENDROOT
BRANCH   2   5
ATOM      5  C   LIG    1        0.002  -0.004   0.002  0.00  0.00    -0.040 A 
ATOM      6  C   LIG    1       -1.093  -0.850   0.008  0.00  0.00    +0.030 A 
ATOM      7  C   LIG    1       -0.564  -2.142  -0.004  0.00  0.00    +0.030 A 
ATOM      8  N   LIG    1        0.741  -2.041  -0.016  0.00  0.00    -0.250 NA
ATOM      9  N   LIG    1        1.106  -0.809  -0.019  0.00  0.00    -0.380 N 
ATOM     10  H   LIG    1        2.024  -0.498  -0.031  0.00  0.00    +0.440 HD
BRANCH   7  11
ATOM     11  C   LIG    1       -1.354  -3.425  -0.004  0.00  0.00    +0.190 C 
BRANCH  11  12
ATOM     12  C   LIG    1       -0.934  -4.274  -1.176  0.00  0.00    -0.080 A 
ATOM     13  C   LIG    1       -1.587  -4.149  -2.389  0.00  0.00    +0.010 A 
ATOM     14  C   LIG    1       -1.198  -4.924  -3.465  0.00  0.00    +0.000 A 
ATOM     15  C   LIG    1       -0.165  -5.831  -3.327  0.00  0.00    +0.000 A 
ATOM     16  C   LIG    1        0.484  -5.960  -2.113  0.00  0.00    +0.000 A 
ATOM     17  C   LIG    1        0.100  -5.181  -1.038  0.00  0.00    +0.020 A 
ENDBRANCH  11  12
ENDBRANCH   7  11
ENDBRANCH   2   5
BRANCH   3  18
ATOM     18  C   LIG    1        1.120   3.622   0.011  0.00  0.00    +0.230 C 
ATOM     19  C   LIG    1        0.982   4.140  -1.423  0.00  0.00    +0.030 C 
ATOM     20  C   LIG    1        1.023   5.670  -1.415  0.00  0.00    +0.200 C 
ATOM     21  N   LIG    1        2.292   6.123  -0.832  0.00  0.00    -0.490 N 
ATOM     22  C   LIG    1        2.426   5.678   0.561  0.00  0.00    +0.190 C 
ATOM     23  C   LIG    1        2.427   4.148   0.611  0.00  0.00    +0.030 C 
BRANCH  21  24
ATOM     24  C   LIG    1        2.420   7.511  -0.928  0.00  0.00    +0.110 A 
ATOM     25  C   LIG    1        2.637   8.271   0.214  0.00  0.00    -0.040 A 
ATOM     26  C   LIG    1        2.768   9.642   0.115  0.00  0.00    +0.030 A 
ATOM     27  C   LIG    1        2.671  10.259  -1.119  0.00  0.00    -0.030 A 
ATOM     28  C   LIG    1        2.450   9.506  -2.257  0.00  0.00    +0.030 A 
ATOM     29  C   LIG    1        2.324   8.134  -2.166  0.00  0.00    -0.020 A 
ENDBRANCH  21  24
ENDBRANCH   3  18
TORSDOF 5
