REMARK  Name = ZINCqH0000007h2m.0
REMARK                            x       y       z     vdW  Elec       q    Type
REMARK                         _______ _______ _______ _____ _____    ______ ____
ROOT
ATOM      1  N   LIG    1        7.594  -1.229   0.097  0.00  0.00    -0.570 N 
ATOM      2  C   LIG    1        7.211   0.020  -0.235  0.00  0.00    +0.610 C 
ATOM      3  O   LIG    1        8.040   0.837  -0.590  0.00  0.00    -0.510 OA
ENDROOT
BRANCH   1   7
ATOM      4  C   LIG    1       11.649  -2.183   0.287  0.00  0.00    +0.100 A 
ATOM      5  C   LIG    1       11.075  -1.398   1.274  0.00  0.00    -0.030 A 
ATOM      6  C   LIG    1        9.733  -1.076   1.209  0.00  0.00    +0.050 A 
ATOM      7  C   LIG    1        8.956  -1.550   0.160  0.00  0.00    +0.140 A 
ATOM      8  C   LIG    1        9.530  -2.337  -0.829  0.00  0.00    +0.040 A 
ATOM      9  C   LIG    1       10.874  -2.653  -0.766  0.00  0.00    +0.080 A 
ATOM     10  F   LIG    1       11.434  -3.419  -1.728  0.00  0.00    -0.130 F 
BRANCH   4  12
ATOM     11  C   LIG    1       13.708  -1.977   1.460  0.00  0.00    +0.250 C 
ATOM     12  O   LIG    1       12.972  -2.494   0.349  0.00  0.00    -0.310 OA
ENDBRANCH   4  12
ENDBRANCH   1   7
BRANCH   2  13
ATOM     13  C   LIG    1        5.797   0.394  -0.168  0.00  0.00    -0.340 A 
ATOM     14  C   LIG    1        5.278   1.636  -0.415  0.00  0.00    +0.340 A 
ATOM     15  N   LIG    1        3.980   1.706  -0.286  0.00  0.00    -0.500 NA
ATOM     16  C   LIG    1        3.353   0.614   0.052  0.00  0.00    +0.120 A 
ATOM     17  S   LIG    1        4.459  -0.674   0.251  0.00  0.00    +0.230 S 
BRANCH  16  18
ATOM     18  C   LIG    1        1.892   0.506   0.244  0.00  0.00    -0.200 A 
ATOM     19  C   LIG    1        0.972   1.522   0.099  0.00  0.00    +0.320 A 
ATOM     20  N   LIG    1       -0.243   1.005   0.362  0.00  0.00    -0.360 N 
ATOM     21  N   LIG    1       -0.088  -0.349   0.677  0.00  0.00    -0.290 NA
ATOM     22  C   LIG    1       -1.512   1.736   0.321  0.00  0.00    +0.360 C 
ATOM     23  C   LIG    1        1.179  -0.656   0.609  0.00  0.00    +0.270 A 
ENDBRANCH  16  18
ENDBRANCH   2  13
BRANCH   1  24
ATOM     24  C   LIG    1        6.586  -2.250   0.392  0.00  0.00    +0.210 C 
ATOM     25  C   LIG    1        7.274  -3.500   0.945  0.00  0.00    +0.060 C 
ATOM     26  C   LIG    1        5.832  -2.608  -0.890  0.00  0.00    +0.040 C 
ENDBRANCH   1  24
TORSDOF 5
