REMARK  Name = ZINCnE000001TD3K.0
REMARK                            x       y       z     vdW  Elec       q    Type
REMARK                         _______ _______ _______ _____ _____    ______ ____
ROOT
ATOM      1  N   LIG    1        0.525   7.625  -0.388  0.00  0.00    -0.650 N 
ATOM      2  H   LIG    1        1.362   8.107  -0.486  0.00  0.00    +0.420 HD
ATOM      3  C   LIG    1        0.532   6.285  -0.247  0.00  0.00    +0.590 C 
ATOM      4  O   LIG    1       -0.519   5.672  -0.212  0.00  0.00    -0.490 OA
ENDROOT
BRANCH   1   9
ATOM      5  C   LIG    1       -3.034   8.432  -0.918  0.00  0.00    -0.120 A 
ATOM      6  C   LIG    1       -3.088   9.726  -0.392  0.00  0.00    +0.070 A 
ATOM      7  C   LIG    1       -1.950  10.308   0.126  0.00  0.00    -0.020 A 
ATOM      8  C   LIG    1       -0.752   9.614   0.129  0.00  0.00    +0.060 A 
ATOM      9  C   LIG    1       -0.688   8.323  -0.393  0.00  0.00    +0.090 A 
ATOM     10  F   LIG    1        0.359  10.189   0.639  0.00  0.00    -0.150 F 
ATOM     11  C   LIG    1       -1.824   7.734  -0.921  0.00  0.00    +0.100 A 
BRANCH   5  13
ATOM     12  O   LIG    1       -5.306   8.424  -1.476  0.00  0.00    -0.690 OA
ATOM     13  C   LIG    1       -4.249   7.809  -1.474  0.00  0.00    +0.520 C 
ATOM     14  O   LIG    1       -4.199   6.676  -1.934  0.00  0.00    -0.680 OA
ENDBRANCH   5  13
ENDBRANCH   1   9
BRANCH   3  15
ATOM     15  C   LIG    1        1.805   5.565  -0.136  0.00  0.00    -0.060 A 
ATOM     16  C   LIG    1        1.978   4.186  -0.083  0.00  0.00    +0.120 A 
ATOM     17  O   LIG    1        3.306   3.972   0.011  0.00  0.00    -0.190 OA
ATOM     18  C   LIG    1        3.924   5.163   0.022  0.00  0.00    +0.440 A 
ATOM     19  N   LIG    1        3.046   6.117  -0.061  0.00  0.00    -0.460 NA
BRANCH  16  20
ATOM     20  C   LIG    1        0.925   3.166  -0.128  0.00  0.00    -0.170 A 
ATOM     21  C   LIG    1        0.800   2.123   0.742  0.00  0.00    +0.050 A 
ATOM     22  C   LIG    1       -0.274   1.299   0.492  0.00  0.00    -0.010 A 
ATOM     23  C   LIG    1       -1.022   1.644  -0.563  0.00  0.00    -0.040 A 
ATOM     24  S   LIG    1       -0.375   3.097  -1.311  0.00  0.00    +0.260 S 
ENDBRANCH  16  20
ENDBRANCH   3  15
TORSDOF 4
