REMARK  Name = ZINCqH00000085wx.0
REMARK                            x       y       z     vdW  Elec       q    Type
REMARK                         _______ _______ _______ _____ _____    ______ ____
ROOT
ATOM      1  C   LIG    1       -2.512   1.661   0.023  0.00  0.00    +0.560 C 
ATOM      2  N   LIG    1       -3.683   2.322  -0.070  0.00  0.00    -0.610 N 
ATOM      3  C   LIG    1       -3.709   3.788  -0.167  0.00  0.00    +0.290 C 
ATOM      4  C   LIG    1       -4.532   4.181  -1.403  0.00  0.00    +0.000 C 
ATOM      5  C   LIG    1       -5.915   3.532  -1.316  0.00  0.00    +0.250 C 
ATOM      6  C   LIG    1       -5.766   2.009  -1.301  0.00  0.00    +0.030 C 
ATOM      7  C   LIG    1       -4.958   1.591  -0.069  0.00  0.00    +0.280 C 
ATOM      8  O   LIG    1       -1.469   2.280   0.098  0.00  0.00    -0.510 OA
ENDROOT
BRANCH   1  13
ATOM      9  C   LIG    1       -3.236  -1.905   0.973  0.00  0.00    -0.090 A 
ATOM     10  C   LIG    1       -2.457  -2.592   0.048  0.00  0.00    +0.040 A 
ATOM     11  C   LIG    1       -1.704  -1.898  -0.880  0.00  0.00    +0.060 A 
ATOM     12  C   LIG    1       -1.721  -0.516  -0.895  0.00  0.00    -0.000 A 
ATOM     13  C   LIG    1       -2.497   0.183   0.033  0.00  0.00    -0.100 A 
ATOM     14 CL   LIG    1       -0.772   0.350  -2.063  0.00  0.00    -0.040 Cl
ATOM     15  C   LIG    1       -3.261  -0.519   0.966  0.00  0.00    +0.080 A 
BRANCH   9  17
ATOM     16  C   LIG    1       -3.824  -4.528   1.754  0.00  0.00    +0.140 C 
ATOM     17  S   LIG    1       -4.192  -2.797   2.154  0.00  0.00    -0.100 S 
ENDBRANCH   9  17
ENDBRANCH   1  13
BRANCH   5  18
ATOM     18  N   LIG    1       -6.716   3.933  -2.476  0.00  0.00    -1.110 NA
ATOM     19  H   LIG    1       -6.642   3.442  -3.309  0.00  0.00    +0.420 HD
BRANCH  18  20
ATOM     20  S   LIG    1       -7.748   5.223  -2.363  0.00  0.00    +2.720 S 
ATOM     21  O   LIG    1       -8.502   5.032  -1.174  0.00  0.00    -0.950 OA
ATOM     22  O   LIG    1       -8.342   5.375  -3.645  0.00  0.00    -0.950 OA
BRANCH  20  23
ATOM     23  C   LIG    1       -6.761   6.659  -2.100  0.00  0.00    -0.800 A 
ATOM     24  C   LIG    1       -6.260   7.435  -3.062  0.00  0.00    +0.170 A 
ATOM     25  C   LIG    1       -5.513   8.511  -2.615  0.00  0.00    -0.010 A 
ATOM     26  C   LIG    1       -5.407   8.609  -1.289  0.00  0.00    +0.010 A 
ATOM     27  S   LIG    1       -6.291   7.292  -0.528  0.00  0.00    +0.210 S 
ENDBRANCH  20  23
ENDBRANCH  18  20
ENDBRANCH   5  18
TORSDOF 5
