REMARK  Name = ZINCkj000005kV6B.0
REMARK                            x       y       z     vdW  Elec       q    Type
REMARK                         _______ _______ _______ _____ _____    ______ ____
ROOT
ATOM      1  C   LIG    1        6.524  -5.745   4.200  0.00  0.00    +0.360 C 
ATOM      2  N   LIG    1        5.088  -5.514   4.026  0.00  0.00    -0.550 N 
ATOM      3  C   LIG    1        4.138  -5.657   4.970  0.00  0.00    +0.640 A 
ATOM      4  O   LIG    1        2.938  -5.359   4.446  0.00  0.00    -0.230 OA
ATOM      5  C   LIG    1        3.094  -5.016   3.144  0.00  0.00    +0.040 A 
ATOM      6  C   LIG    1        2.203  -4.627   2.156  0.00  0.00    +0.090 A 
ATOM      7  C   LIG    1        2.666  -4.332   0.888  0.00  0.00    -0.160 A 
ATOM      8  C   LIG    1        4.015  -4.428   0.598  0.00  0.00    +0.080 A 
ATOM      9  C   LIG    1        4.912  -4.809   1.578  0.00  0.00    +0.050 A 
ATOM     10  O   LIG    1        4.336  -6.002   6.119  0.00  0.00    -0.460 OA
ATOM     11  C   LIG    1        4.455  -5.107   2.852  0.00  0.00    +0.110 A 
ENDROOT
BRANCH   7  12
ATOM     12  C   LIG    1        1.696  -3.910  -0.184  0.00  0.00    +0.330 C 
BRANCH  12  13
ATOM     13  N   LIG    1        1.548  -2.448  -0.164  0.00  0.00    -0.380 N 
ATOM     14  C   LIG    1        0.697  -2.028  -1.284  0.00  0.00    +0.260 C 
ATOM     15  C   LIG    1        0.606  -0.501  -1.315  0.00  0.00    +0.070 C 
ATOM     16  C   LIG    1        0.002  -0.004   0.002  0.00  0.00    +0.000 C 
ATOM     17  C   LIG    1        0.856  -0.511   1.168  0.00  0.00    +0.070 C 
ATOM     18  C   LIG    1        0.938  -2.038   1.107  0.00  0.00    +0.250 C 
ATOM     19  H   LIG    1        2.456  -2.018  -0.253  0.00  0.00    +0.420 HD
BRANCH  16  20
ATOM     20  C   LIG    1       -0.019   1.526   0.010  0.00  0.00    +0.190 C 
BRANCH  20  21
ATOM     21  O   LIG    1       -0.688   1.987   1.186  0.00  0.00    -0.570 OA
ATOM     22  H   LIG    1       -0.738   2.950   1.258  0.00  0.00    +0.390 HD
ENDBRANCH  20  21
ENDBRANCH  16  20
ENDBRANCH  12  13
ENDBRANCH   7  12
TORSDOF 4
