REMARK  Name = ZINCfA000001d4Br.2
REMARK                            x       y       z     vdW  Elec       q    Type
REMARK                         _______ _______ _______ _____ _____    ______ ____
ROOT
ATOM      1  C   LIG    1       -1.449   2.800   0.776  0.00  0.00    +0.180 C 
ATOM      2  C   LIG    1       -1.948   2.439  -0.646  0.00  0.00    +0.080 C 
ATOM      3  C   LIG    1       -0.779   1.607  -1.222  0.00  0.00    +0.080 C 
ATOM      4  C   LIG    1       -0.013   1.086   0.008  0.00  0.00    +0.250 C 
ATOM      5  N   LIG    1       -0.726   1.573   1.208  0.00  0.00    -0.400 N 
ATOM      6  H   LIG    1       -1.384   0.878   1.528  0.00  0.00    +0.420 HD
ENDROOT
BRANCH   1   8
ATOM      7  C   LIG    1       -3.418   4.286   1.171  0.00  0.00    +0.070 C 
ATOM      8  C   LIG    1       -2.629   3.089   1.705  0.00  0.00    -0.010 C 
ATOM      9  C   LIG    1       -3.542   1.863   1.766  0.00  0.00    +0.050 C 
ENDBRANCH   1   8
BRANCH   5  10
ATOM     10  C   LIG    1        0.234   1.894   2.273  0.00  0.00    +0.390 C 
BRANCH  10  11
ATOM     11  C   LIG    1        0.905   0.629   2.742  0.00  0.00    -0.020 A 
ATOM     12  N   LIG    1        2.000   0.107   2.271  0.00  0.00    -0.310 NA
ATOM     13  O   LIG    1        2.293  -0.913   2.851  0.00  0.00    +0.140 OA
ATOM     14  C   LIG    1        1.403  -1.208   3.810  0.00  0.00    +0.270 A 
ATOM     15  C   LIG    1        0.473  -0.223   3.785  0.00  0.00    -0.220 A 
ATOM     16 BR   LIG    1       -1.052  -0.033   4.887  0.00  0.00    +0.050 Br
ENDBRANCH  10  11
ENDBRANCH   5  10
TORSDOF 3
