REMARK  Name = ZINCfA000001d4Br.1
REMARK                            x       y       z     vdW  Elec       q    Type
REMARK                         _______ _______ _______ _____ _____    ______ ____
ROOT
ATOM      1  C   LIG    1        1.905   4.940   1.328  0.00  0.00    +0.170 C 
ATOM      2  C   LIG    1        3.148   4.192   1.845  0.00  0.00    +0.090 C 
ATOM      3  C   LIG    1        2.543   2.932   2.517  0.00  0.00    +0.080 C 
ATOM      4  C   LIG    1        1.343   2.626   1.585  0.00  0.00    +0.230 C 
ATOM      5  N   LIG    1        0.818   3.952   1.198  0.00  0.00    -0.380 N 
ATOM      6  H   LIG    1        0.054   4.206   1.806  0.00  0.00    +0.430 HD
ENDROOT
BRANCH   1   8
ATOM      7  C   LIG    1        2.790   6.966   0.164  0.00  0.00    +0.070 C 
ATOM      8  C   LIG    1        2.205   5.567  -0.036  0.00  0.00    -0.030 C 
ATOM      9  C   LIG    1        3.213   4.694  -0.787  0.00  0.00    +0.050 C 
ENDBRANCH   1   8
BRANCH   5  10
ATOM     10  C   LIG    1        0.351   3.912  -0.195  0.00  0.00    +0.390 C 
BRANCH  10  11
ATOM     11  C   LIG    1       -0.840   2.994  -0.298  0.00  0.00    -0.020 A 
ATOM     12  N   LIG    1       -2.092   3.324  -0.162  0.00  0.00    -0.310 NA
ATOM     13  O   LIG    1       -2.821   2.369  -0.300  0.00  0.00    +0.140 OA
ATOM     14  C   LIG    1       -2.127   1.250  -0.552  0.00  0.00    +0.270 A 
ATOM     15  C   LIG    1       -0.819   1.605  -0.562  0.00  0.00    -0.220 A 
ATOM     16 BR   LIG    1        0.685   0.498  -0.859  0.00  0.00    +0.050 Br
ENDBRANCH  10  11
ENDBRANCH   5  10
TORSDOF 3
