REMARK  Name = ZINCpe00000bcSx9.0
REMARK                            x       y       z     vdW  Elec       q    Type
REMARK                         _______ _______ _______ _____ _____    ______ ____
ROOT
ATOM      1  C   LIG    1        1.232  -0.616  -0.182  0.00  0.00    +0.200 A 
ATOM      2  C   LIG    1        2.262   0.174  -0.684  0.00  0.00    -0.020 A 
ATOM      3  C   LIG    1        2.171   1.546  -0.629  0.00  0.00    +0.100 A 
ATOM      4  C   LIG    1        1.041   2.148  -0.067  0.00  0.00    -0.180 A 
ATOM      5  C   LIG    1        0.006   1.351   0.437  0.00  0.00    +0.170 A 
ATOM      6  F   LIG    1       -1.091   1.927   0.976  0.00  0.00    -0.120 F 
ATOM      7  C   LIG    1        0.106  -0.024   0.378  0.00  0.00    -0.010 A 
ENDROOT
BRANCH   4   8
ATOM      8  C   LIG    1        0.939   3.617  -0.006  0.00  0.00    +0.570 C 
ATOM      9  N   LIG    1        1.134   4.353  -1.118  0.00  0.00    -0.610 N 
ATOM     10  C   LIG    1        1.334   3.710  -2.427  0.00  0.00    +0.250 C 
ATOM     11  C   LIG    1        0.366   4.356  -3.431  0.00  0.00    +0.220 C 
ATOM     12  O   LIG    1        0.527   5.776  -3.391  0.00  0.00    -0.380 OA
ATOM     13  C   LIG    1        0.204   6.366  -2.129  0.00  0.00    +0.220 C 
ATOM     14  C   LIG    1        1.158   5.823  -1.059  0.00  0.00    +0.260 C 
ATOM     15  O   LIG    1        0.680   4.165   1.048  0.00  0.00    -0.520 OA
ENDBRANCH   4   8
BRANCH   1  17
ATOM     16  C   LIG    1        0.246  -2.746  -0.542  0.00  0.00    +0.500 C 
ATOM     17  N   LIG    1        1.331  -2.006  -0.240  0.00  0.00    -0.670 N 
ATOM     18  H   LIG    1        2.180  -2.440  -0.063  0.00  0.00    +0.420 HD
ATOM     19  O   LIG    1       -0.834  -2.212  -0.680  0.00  0.00    -0.500 OA
BRANCH  16  20
ATOM     20  C   LIG    1        0.374  -4.239  -0.710  0.00  0.00    +0.340 C 
BRANCH  20  22
ATOM     21  C   LIG    1       -1.756  -5.217  -0.045  0.00  0.00    +0.550 C 
ATOM     22  N   LIG    1       -0.936  -4.809  -1.034  0.00  0.00    -0.600 N 
ATOM     23  C   LIG    1       -1.355  -4.934  -2.432  0.00  0.00    +0.290 C 
ATOM     24  O   LIG    1       -1.408  -5.113   1.116  0.00  0.00    -0.540 OA
BRANCH  21  26
ATOM     25  C   LIG    1       -3.880  -6.193   0.606  0.00  0.00    +0.150 C 
ATOM     26  C   LIG    1       -3.071  -5.789  -0.370  0.00  0.00    -0.090 C 
ENDBRANCH  21  26
ENDBRANCH  20  22
ENDBRANCH  16  20
ENDBRANCH   1  17
TORSDOF 5
