REMARK  Name = ZINCrH000004tPTE.0
REMARK                            x       y       z     vdW  Elec       q    Type
REMARK                         _______ _______ _______ _____ _____    ______ ____
ROOT
ATOM      1  O   LIG    1       -0.061   3.380  -3.159  0.00  0.00    -0.510 OA
ATOM      2  C   LIG    1       -0.519   3.859  -2.143  0.00  0.00    +0.520 C 
ATOM      3  N   LIG    1       -0.893   3.055  -1.129  0.00  0.00    -0.610 N 
ATOM      4  C   LIG    1       -0.755   1.594  -1.233  0.00  0.00    +0.300 C 
ATOM      5  C   LIG    1       -0.013   1.086   0.008  0.00  0.00    +0.190 C 
ATOM      6  N   LIG    1       -0.701   1.560   1.216  0.00  0.00    -0.490 N 
ATOM      7  C   LIG    1       -0.681   3.026   1.300  0.00  0.00    +0.200 C 
ATOM      8  C   LIG    1       -1.450   3.614   0.112  0.00  0.00    +0.280 C 
ENDROOT
BRANCH   6   9
ATOM      9  C   LIG    1       -0.151   0.984   2.365  0.00  0.00    +0.080 A 
ATOM     10  C   LIG    1       -0.163  -0.394   2.527  0.00  0.00    +0.030 A 
ATOM     11  C   LIG    1        0.387  -0.961   3.661  0.00  0.00    +0.030 A 
ATOM     12  C   LIG    1        0.938  -0.157   4.640  0.00  0.00    +0.020 A 
ATOM     13  C   LIG    1        0.947   1.218   4.487  0.00  0.00    +0.010 A 
ATOM     14  C   LIG    1        0.405   1.792   3.352  0.00  0.00    +0.050 A 
ATOM     15  F   LIG    1        0.414   3.134   3.202  0.00  0.00    -0.140 F 
ENDBRANCH   6   9
BRANCH   2  16
ATOM     16  C   LIG    1       -0.670   5.353  -2.015  0.00  0.00    +0.220 C 
BRANCH  16  17
ATOM     17  O   LIG    1       -0.207   5.982  -3.212  0.00  0.00    -0.290 OA
BRANCH  17  18
ATOM     18  C   LIG    1       -0.275   7.339  -3.261  0.00  0.00    +0.130 A 
ATOM     19  C   LIG    1        0.158   7.995  -4.378  0.00  0.00    -0.010 A 
ATOM     20  C   LIG    1        0.085   9.396  -4.432  0.00  0.00    -0.010 A 
ATOM     21  C   LIG    1        0.517  10.105  -5.566  0.00  0.00    +0.020 A 
ATOM     22  C   LIG    1        0.437  11.464  -5.582  0.00  0.00    +0.020 A 
ATOM     23  C   LIG    1       -0.068  12.165  -4.488  0.00  0.00    -0.010 A 
ATOM     24  C   LIG    1       -0.495  11.512  -3.373  0.00  0.00    +0.040 A 
ATOM     25  C   LIG    1       -0.428  10.110  -3.320  0.00  0.00    -0.080 A 
ATOM     26  C   LIG    1       -0.860   9.402  -2.184  0.00  0.00    +0.070 A 
ATOM     27  C   LIG    1       -0.781   8.045  -2.166  0.00  0.00    -0.060 A 
ENDBRANCH  17  18
ENDBRANCH  16  17
ENDBRANCH   2  16
TORSDOF 4
