REMARK  Name = ZINCqH0000000okR.0
REMARK                            x       y       z     vdW  Elec       q    Type
REMARK                         _______ _______ _______ _____ _____    ______ ____
ROOT
ATOM      1  C   LIG    1        5.756   4.723  -3.522  0.00  0.00    +0.280 A 
ATOM      2  N   LIG    1        6.179   5.912  -3.815  0.00  0.00    -0.490 NA
ATOM      3  C   LIG    1        6.998   6.021  -4.860  0.00  0.00    +0.150 A 
ATOM      4  C   LIG    1        7.277   4.864  -5.493  0.00  0.00    -0.080 A 
ATOM      5  S   LIG    1        6.423   3.563  -4.667  0.00  0.00    +0.230 S 
ENDROOT
BRANCH   3   6
ATOM      6  C   LIG    1        7.557   7.316  -5.297  0.00  0.00    +0.090 A 
ATOM      7  C   LIG    1        7.314   8.510  -4.703  0.00  0.00    +0.000 A 
ATOM      8  C   LIG    1        8.068   9.505  -5.468  0.00  0.00    -0.130 A 
ATOM      9  C   LIG    1        8.234  10.887  -5.368  0.00  0.00    +0.060 A 
ATOM     10  C   LIG    1        9.037  11.544  -6.275  0.00  0.00    -0.010 A 
ATOM     11  C   LIG    1        9.677  10.836  -7.281  0.00  0.00    +0.050 A 
ATOM     12  C   LIG    1        9.522   9.470  -7.391  0.00  0.00    +0.020 A 
ATOM     13  C   LIG    1        8.717   8.789  -6.488  0.00  0.00    +0.060 A 
ATOM     14  O   LIG    1        8.388   7.488  -6.344  0.00  0.00    -0.190 OA
ENDBRANCH   3   6
BRANCH   1  16
ATOM     15  C   LIG    1        4.525   3.134  -2.264  0.00  0.00    +0.520 C 
ATOM     16  N   LIG    1        4.904   4.412  -2.470  0.00  0.00    -0.620 N 
ATOM     17  H   LIG    1        4.581   5.113  -1.883  0.00  0.00    +0.430 HD
ATOM     18  O   LIG    1        4.929   2.257  -2.998  0.00  0.00    -0.500 OA
BRANCH  15  24
ATOM     19  C   LIG    1       -0.150  -0.292   0.014  0.00  0.00    +0.090 C 
ATOM     20  C   LIG    1       -0.014   1.209   0.009  0.00  0.00    +0.510 C 
ATOM     21  N   LIG    1        1.208   1.775  -0.013  0.00  0.00    -0.620 N 
ATOM     22  C   LIG    1        1.356   3.233  -0.123  0.00  0.00    +0.280 C 
ATOM     23  C   LIG    1        2.281   3.552  -1.297  0.00  0.00    +0.030 C 
ATOM     24  C   LIG    1        3.601   2.797  -1.123  0.00  0.00    +0.010 C 
ATOM     25  C   LIG    1        3.331   1.290  -1.114  0.00  0.00    +0.050 C 
ATOM     26  C   LIG    1        2.419   0.946   0.067  0.00  0.00    +0.280 C 
ATOM     27  O   LIG    1       -1.006   1.907   0.029  0.00  0.00    -0.540 OA
ENDBRANCH  15  24
ENDBRANCH   1  16
TORSDOF 3
