REMARK  Name = ZINCkj000005izmj.0
REMARK                            x       y       z     vdW  Elec       q    Type
REMARK                         _______ _______ _______ _____ _____    ______ ____
ROOT
ATOM      1  N   LIG    1        4.573  -3.587  -2.614  0.00  0.00    -0.370 N 
ATOM      2  C   LIG    1        5.736  -2.727  -2.869  0.00  0.00    +0.330 C 
ATOM      3  H   LIG    1        3.941  -3.540  -3.399  0.00  0.00    +0.430 HD
ENDROOT
BRANCH   1   6
ATOM      4  C   LIG    1        4.919  -6.888  -3.333  0.00  0.00    +0.110 C 
ATOM      5  C   LIG    1        5.659  -5.588  -3.687  0.00  0.00    +0.050 C 
ATOM      6  C   LIG    1        5.021  -4.974  -2.430  0.00  0.00    +0.160 C 
ATOM      7  C   LIG    1        4.338  -7.614  -4.548  0.00  0.00    +0.050 C 
ATOM      8  C   LIG    1        3.897  -6.011  -2.590  0.00  0.00    -0.070 C 
ATOM      9  C   LIG    1        2.743  -5.533  -3.474  0.00  0.00    +0.080 C 
ATOM     10  C   LIG    1        3.423  -6.611  -1.265  0.00  0.00    +0.070 C 
BRANCH   4  12
ATOM     11  C   LIG    1        6.661  -8.523  -3.145  0.00  0.00    +0.230 C 
ATOM     12  O   LIG    1        5.662  -7.754  -2.472  0.00  0.00    -0.360 OA
ENDBRANCH   4  12
ENDBRANCH   1   6
BRANCH   1  13
ATOM     13  C   LIG    1        3.882  -3.130  -1.401  0.00  0.00    +0.230 C 
BRANCH  13  14
ATOM     14  C   LIG    1        3.290  -1.741  -1.644  0.00  0.00    +0.210 C 
BRANCH  14  15
ATOM     15  O   LIG    1        2.276  -1.824  -2.648  0.00  0.00    -0.540 OA
ATOM     16  H   LIG    1        1.542  -2.411  -2.418  0.00  0.00    +0.390 HD
ENDBRANCH  14  15
BRANCH  14  17
ATOM     17  C   LIG    1        2.679  -1.212  -0.344  0.00  0.00    +0.320 C 
BRANCH  17  18
ATOM     18  N   LIG    1        2.218   0.164  -0.546  0.00  0.00    -0.380 N 
ATOM     19  C   LIG    1        0.972   0.626  -0.313  0.00  0.00    +0.240 A 
ATOM     20  C   LIG    1        0.956   1.943  -0.622  0.00  0.00    -0.110 A 
ATOM     21  C   LIG    1        2.237   2.298  -1.058  0.00  0.00    +0.250 A 
ATOM     22  N   LIG    1        2.994   1.232  -1.013  0.00  0.00    -0.300 NA
ENDBRANCH  17  18
ENDBRANCH  14  17
ENDBRANCH  13  14
ENDBRANCH   1  13
TORSDOF 7
