REMARK  Name = ZINCkj000005izmj.1
REMARK                            x       y       z     vdW  Elec       q    Type
REMARK                         _______ _______ _______ _____ _____    ______ ____
ROOT
ATOM      1  N   LIG    1       -0.389   1.869  -1.187  0.00  0.00    -0.370 N 
ATOM      2  C   LIG    1       -1.691   1.293  -0.825  0.00  0.00    +0.330 C 
ATOM      3  H   LIG    1       -0.529   2.757  -1.644  0.00  0.00    +0.420 HD
ENDROOT
BRANCH   1   6
ATOM      4  C   LIG    1        1.015   0.807  -4.090  0.00  0.00    +0.110 C 
ATOM      5  C   LIG    1        1.468   1.620  -2.866  0.00  0.00    +0.050 C 
ATOM      6  C   LIG    1        0.315   0.956  -2.096  0.00  0.00    +0.160 C 
ATOM      7  C   LIG    1        1.074   1.589  -5.404  0.00  0.00    +0.060 C 
ATOM      8  C   LIG    1       -0.385   0.777  -3.454  0.00  0.00    -0.070 C 
ATOM      9  C   LIG    1       -1.265   1.964  -3.850  0.00  0.00    +0.080 C 
ATOM     10  C   LIG    1       -1.097  -0.568  -3.604  0.00  0.00    +0.070 C 
BRANCH   4  12
ATOM     11  C   LIG    1        2.931  -0.461  -4.773  0.00  0.00    +0.230 C 
ATOM     12  O   LIG    1        1.630  -0.479  -4.183  0.00  0.00    -0.360 OA
ENDBRANCH   4  12
ENDBRANCH   1   6
BRANCH   1  13
ATOM     13  C   LIG    1        0.413   2.066   0.028  0.00  0.00    +0.240 C 
BRANCH  13  14
ATOM     14  C   LIG    1       -0.271   3.095   0.930  0.00  0.00    +0.210 C 
BRANCH  14  15
ATOM     15  O   LIG    1       -1.503   2.559   1.415  0.00  0.00    -0.540 OA
ATOM     16  H   LIG    1       -1.403   1.748   1.932  0.00  0.00    +0.390 HD
ENDBRANCH  14  15
BRANCH  14  17
ATOM     17  C   LIG    1        0.643   3.423   2.113  0.00  0.00    +0.320 C 
BRANCH  17  18
ATOM     18  N   LIG    1        0.042   4.494   2.912  0.00  0.00    -0.380 N 
ATOM     19  C   LIG    1       -0.227   4.444   4.233  0.00  0.00    +0.240 A 
ATOM     20  C   LIG    1       -0.773   5.630   4.588  0.00  0.00    -0.110 A 
ATOM     21  C   LIG    1       -0.850   6.429   3.442  0.00  0.00    +0.250 A 
ATOM     22  N   LIG    1       -0.362   5.749   2.437  0.00  0.00    -0.300 NA
ENDBRANCH  17  18
ENDBRANCH  14  17
ENDBRANCH  13  14
ENDBRANCH   1  13
TORSDOF 7
