REMARK  Name = ZINCrH000004ohch.0
REMARK                            x       y       z     vdW  Elec       q    Type
REMARK                         _______ _______ _______ _____ _____    ______ ____
ROOT
ATOM      1  N   LIG    1       -1.954  -2.121  -4.475  0.00  0.00    -0.740 N 
ATOM      2  H   LIG    1       -2.765  -2.653  -4.445  0.00  0.00    +0.400 HD
ATOM      3  C   LIG    1       -1.638  -1.317  -3.440  0.00  0.00    +0.730 C 
ATOM      4  N   LIG    1       -2.448  -1.252  -2.365  0.00  0.00    -0.620 N 
ATOM      5  C   LIG    1       -3.704  -2.004  -2.189  0.00  0.00    +0.260 C 
ATOM      6  C   LIG    1       -4.528  -1.168  -1.178  0.00  0.00    +0.040 C 
ATOM      7  C   LIG    1       -3.419  -0.653  -0.223  0.00  0.00    +0.060 C 
ATOM      8  C   LIG    1       -2.225  -0.421  -1.173  0.00  0.00    +0.340 C 
ATOM      9  O   LIG    1       -0.622  -0.650  -3.477  0.00  0.00    -0.580 OA
ENDROOT
BRANCH   8  10
ATOM     10  C   LIG    1       -0.944  -0.832  -0.495  0.00  0.00    +0.170 A 
ATOM     11  N   LIG    1       -0.538  -2.055  -0.277  0.00  0.00    -0.280 NA
ATOM     12  N   LIG    1        0.604  -2.034   0.318  0.00  0.00    -0.290 NA
ATOM     13  C   LIG    1        0.977  -0.799   0.502  0.00  0.00    +0.180 A 
ATOM     14  C   LIG    1        2.257  -0.320   1.135  0.00  0.00    +0.150 C 
ATOM     15  C   LIG    1        1.932   0.787   2.143  0.00  0.00    +0.020 C 
ATOM     16  C   LIG    1        1.924   2.138   1.433  0.00  0.00    +0.020 C 
ATOM     17  C   LIG    1        1.420   1.986  -0.001  0.00  0.00    +0.030 C 
ATOM     18  C   LIG    1       -0.018   1.459   0.010  0.00  0.00    +0.280 C 
ATOM     19  N   LIG    1        0.002  -0.004   0.002  0.00  0.00    -0.460 N 
ENDBRANCH   8  10
BRANCH   1  21
ATOM     20  C   LIG    1       -1.418  -1.057  -6.611  0.00  0.00    +0.040 C 
ATOM     21  C   LIG    1       -1.074  -2.191  -5.644  0.00  0.00    +0.300 C 
BRANCH  21  22
ATOM     22  C   LIG    1       -1.263  -3.516  -6.336  0.00  0.00    -0.100 A 
ATOM     23  C   LIG    1       -2.529  -4.058  -6.457  0.00  0.00    +0.050 A 
ATOM     24  C   LIG    1       -2.704  -5.271  -7.097  0.00  0.00    -0.010 A 
ATOM     25  C   LIG    1       -1.610  -5.949  -7.606  0.00  0.00    +0.100 A 
ATOM     26  C   LIG    1       -0.341  -5.408  -7.479  0.00  0.00    -0.010 A 
ATOM     27  F   LIG    1       -1.779  -7.136  -8.227  0.00  0.00    -0.140 F 
ATOM     28  C   LIG    1       -0.169  -4.192  -6.844  0.00  0.00    +0.060 A 
ENDBRANCH  21  22
ENDBRANCH   1  21
TORSDOF 3
