REMARK  Name = ZINCqH0000006iKY.0
REMARK                            x       y       z     vdW  Elec       q    Type
REMARK                         _______ _______ _______ _____ _____    ______ ____
ROOT
ATOM      1  C   LIG    1        0.511  -1.284   5.168  0.00  0.00    +0.590 C 
ATOM      2  N   LIG    1       -0.412  -2.263   5.082  0.00  0.00    -0.730 N 
ATOM      3  H   LIG    1       -1.072  -2.245   4.371  0.00  0.00    +0.400 HD
ATOM      4  O   LIG    1        1.339  -1.306   6.060  0.00  0.00    -0.540 OA
ENDROOT
BRANCH   1   7
ATOM      5  N   LIG    1       -0.020   1.094   2.454  0.00  0.00    -0.460 N 
ATOM      6  C   LIG    1       -0.339  -0.031   3.138  0.00  0.00    +0.290 A 
ATOM      7  C   LIG    1        0.518  -0.192   4.186  0.00  0.00    -0.230 A 
ATOM      8  C   LIG    1        1.453   0.947   4.140  0.00  0.00    -0.060 A 
ATOM      9  C   LIG    1        2.535   1.343   4.923  0.00  0.00    +0.070 A 
ATOM     10  C   LIG    1        3.222   2.495   4.604  0.00  0.00    -0.010 A 
ATOM     11  C   LIG    1        2.840   3.258   3.510  0.00  0.00    +0.030 A 
ATOM     12  C   LIG    1        1.771   2.877   2.727  0.00  0.00    -0.010 A 
ATOM     13  C   LIG    1        1.069   1.715   3.029  0.00  0.00    +0.090 A 
BRANCH   5  14
ATOM     14  C   LIG    1       -0.729   1.579   1.267  0.00  0.00    +0.310 C 
BRANCH  14  15
ATOM     15  C   LIG    1       -0.013   1.086   0.008  0.00  0.00    +0.160 C 
BRANCH  15  17
ATOM     16  C   LIG    1       -0.114   1.152  -2.386  0.00  0.00    +0.200 C 
ATOM     17  O   LIG    1       -0.704   1.559  -1.150  0.00  0.00    -0.390 OA
ENDBRANCH  15  17
ENDBRANCH  14  15
ENDBRANCH   5  14
ENDBRANCH   1   7
BRANCH   2  18
ATOM     18  C   LIG    1       -0.419  -3.352   6.061  0.00  0.00    +0.300 C 
BRANCH  18  19
ATOM     19  C   LIG    1       -1.559  -4.321   5.738  0.00  0.00    +0.190 C 
BRANCH  19  20
ATOM     20  O   LIG    1       -1.309  -4.947   4.478  0.00  0.00    -0.310 OA
BRANCH  20  21
ATOM     21  C   LIG    1       -2.232  -5.843   4.040  0.00  0.00    +0.140 A 
ATOM     22  C   LIG    1       -3.353  -6.118   4.810  0.00  0.00    -0.070 A 
ATOM     23  C   LIG    1       -4.293  -7.025   4.361  0.00  0.00    +0.070 A 
ATOM     24  C   LIG    1       -4.113  -7.667   3.151  0.00  0.00    -0.010 A 
ATOM     25  C   LIG    1       -2.993  -7.399   2.382  0.00  0.00    +0.000 A 
ATOM     26 CL   LIG    1       -2.770  -8.206   0.862  0.00  0.00    -0.060 Cl
ATOM     27  C   LIG    1       -2.053  -6.488   2.825  0.00  0.00    -0.010 A 
ENDBRANCH  20  21
ENDBRANCH  19  20
ENDBRANCH  18  19
ENDBRANCH   2  18
TORSDOF 8
