REMARK  Name = ZINCrg00000SjSDR.0
REMARK                            x       y       z     vdW  Elec       q    Type
REMARK                         _______ _______ _______ _____ _____    ______ ____
ROOT
ATOM      1  C   LIG    1        6.361  -0.576   1.374  0.00  0.00    +0.390 C 
ATOM      2  O   LIG    1        5.586  -1.508   1.331  0.00  0.00    -0.440 OA
ENDROOT
BRANCH   1   8
ATOM      3  N   LIG    1       11.852  -1.740   1.642  0.00  0.00    -0.940 N 
ATOM      4  C   LIG    1       11.897  -3.204   1.635  0.00  0.00    +0.300 C 
ATOM      5  C   LIG    1       10.428  -3.653   1.560  0.00  0.00    +0.120 C 
ATOM      6  C   LIG    1        9.641  -2.362   1.527  0.00  0.00    -0.150 A 
ATOM      7  C   LIG    1        8.296  -2.136   1.468  0.00  0.00    +0.130 A 
ATOM      8  C   LIG    1        7.805  -0.824   1.445  0.00  0.00    -0.200 A 
ATOM      9  C   LIG    1        8.704   0.248   1.495  0.00  0.00    +0.100 A 
ATOM     10  C   LIG    1       10.045   0.013   1.561  0.00  0.00    -0.020 A 
ATOM     11  C   LIG    1       10.537  -1.299   1.578  0.00  0.00    +0.200 A 
BRANCH   3  13
ATOM     12  C   LIG    1       13.455  -0.493   3.488  0.00  0.00    -0.270 C 
ATOM     13  S   LIG    1       13.179  -0.752   1.714  0.00  0.00    +2.610 S 
ATOM     14  O   LIG    1       12.753   0.453   1.094  0.00  0.00    -0.930 OA
ATOM     15  O   LIG    1       14.227  -1.533   1.155  0.00  0.00    -0.940 OA
ENDBRANCH   3  13
ENDBRANCH   1   8
BRANCH   1  16
ATOM     16  C   LIG    1        5.839   0.838   1.356  0.00  0.00    +0.330 C 
BRANCH  16  17
ATOM     17  N   LIG    1        4.376   0.818   1.283  0.00  0.00    -0.570 N 
ATOM     18  C   LIG    1        3.568   0.801   2.353  0.00  0.00    +0.710 C 
ATOM     19  N   LIG    1        2.263   0.786   2.010  0.00  0.00    -0.710 N 
ATOM     20  H   LIG    1        1.502   0.772   2.611  0.00  0.00    +0.440 HD
ATOM     21  C   LIG    1        2.230   0.793   0.551  0.00  0.00    +0.110 C 
ATOM     22  C   LIG    1        1.455   1.999  -0.001  0.00  0.00    +0.050 C 
ATOM     23  C   LIG    1       -0.019   1.536   0.011  0.00  0.00    +0.030 C 
ATOM     24  C   LIG    1        0.002  -0.004   0.002  0.00  0.00    +0.030 C 
ATOM     25  C   LIG    1        1.488  -0.427  -0.014  0.00  0.00    +0.050 C 
ATOM     26  O   LIG    1        3.966   0.801   3.501  0.00  0.00    -0.540 OA
ATOM     27  C   LIG    1        3.672   0.815   0.129  0.00  0.00    +0.540 C 
ATOM     28  O   LIG    1        4.110   0.827  -1.002  0.00  0.00    -0.460 OA
ENDBRANCH  16  17
ENDBRANCH   1  16
TORSDOF 4
