REMARK  Name = ZINCpk000000n67K.0
REMARK                            x       y       z     vdW  Elec       q    Type
REMARK                         _______ _______ _______ _____ _____    ______ ____
ROOT
ATOM      1  C   LIG    1        0.976   5.396  -1.601  0.00  0.00    +0.520 C 
ATOM      2  N   LIG    1        1.021   4.071  -1.363  0.00  0.00    -0.720 N 
ATOM      3  H   LIG    1        0.961   3.443  -2.100  0.00  0.00    +0.410 HD
ATOM      4  O   LIG    1        1.053   6.181  -0.679  0.00  0.00    -0.500 OA
ENDROOT
BRANCH   1   8
ATOM      5  C   LIG    1        2.233   6.848  -4.703  0.00  0.00    +0.060 C 
ATOM      6  N   LIG    1        1.478   7.768  -4.203  0.00  0.00    -0.200 NA
ATOM      7  O   LIG    1        0.793   7.345  -3.041  0.00  0.00    -0.140 OA
ATOM      8  C   LIG    1        0.831   5.904  -3.012  0.00  0.00    +0.150 C 
ATOM      9  C   LIG    1        2.103   5.605  -3.842  0.00  0.00    +0.130 C 
BRANCH   5  10
ATOM     10  C   LIG    1        3.079   6.982  -5.904  0.00  0.00    +0.550 C 
ATOM     11  O   LIG    1        3.751   6.043  -6.281  0.00  0.00    -0.470 OA
BRANCH  10  12
ATOM     12  O   LIG    1        3.106   8.145  -6.582  0.00  0.00    -0.330 OA
BRANCH  12  14
ATOM     13  C   LIG    1        3.512   7.149  -8.767  0.00  0.00    +0.040 C 
ATOM     14  C   LIG    1        3.960   8.205  -7.755  0.00  0.00    +0.120 C 
ATOM     15  C   LIG    1        5.409   7.935  -7.344  0.00  0.00    +0.040 C 
ATOM     16  C   LIG    1        3.860   9.594  -8.389  0.00  0.00    +0.080 C 
ENDBRANCH  12  14
ENDBRANCH  10  12
ENDBRANCH   5  10
ENDBRANCH   1   8
BRANCH   2  17
ATOM     17  C   LIG    1        1.163   3.577   0.010  0.00  0.00    +0.350 C 
BRANCH  17  18
ATOM     18  C   LIG    1        1.187   2.071   0.002  0.00  0.00    -0.100 A 
ATOM     19  C   LIG    1        2.374   1.406  -0.013  0.00  0.00    +0.100 A 
ATOM     20  C   LIG    1        2.376  -0.003  -0.021  0.00  0.00    +0.210 A 
ATOM     21  N   LIG    1        3.358  -0.894  -0.036  0.00  0.00    -0.490 NA
ATOM     22  C   LIG    1        2.834  -2.122  -0.038  0.00  0.00    +0.210 A 
ATOM     23  C   LIG    1        1.488  -2.018  -0.024  0.00  0.00    +0.100 A 
ATOM     24  N   LIG    1        1.186  -0.683  -0.013  0.00  0.00    -0.360 N 
ATOM     25  C   LIG    1        0.002  -0.004   0.002  0.00  0.00    +0.230 A 
ATOM     26  C   LIG    1       -0.016   1.345   0.009  0.00  0.00    +0.020 A 
ENDBRANCH  17  18
ENDBRANCH   2  17
TORSDOF 6
