REMARK  Name = ZINCrD0000073k6N.0
REMARK                            x       y       z     vdW  Elec       q    Type
REMARK                         _______ _______ _______ _____ _____    ______ ____
ROOT
ATOM      1  N   LIG    1       -1.963   2.549   3.435  0.00  0.00    -0.660 N 
ATOM      2  H   LIG    1       -1.960   1.591   3.284  0.00  0.00    +0.430 HD
ATOM      3  C   LIG    1       -2.492   3.051   4.569  0.00  0.00    +0.520 C 
ATOM      4  O   LIG    1       -2.587   4.252   4.714  0.00  0.00    -0.490 OA
ENDROOT
BRANCH   1  10
ATOM      5  C   LIG    1       -1.347   3.016   1.141  0.00  0.00    +0.100 A 
ATOM      6  C   LIG    1       -0.800   3.870   0.197  0.00  0.00    +0.030 A 
ATOM      7  C   LIG    1       -0.338   5.116   0.577  0.00  0.00    -0.020 A 
ATOM      8  C   LIG    1       -0.407   5.509   1.900  0.00  0.00    +0.100 A 
ATOM      9  C   LIG    1       -0.946   4.660   2.850  0.00  0.00    +0.080 A 
ATOM     10  C   LIG    1       -1.417   3.411   2.475  0.00  0.00    +0.180 A 
BRANCH   7  11
ATOM     11  N   LIG    1        0.240   6.029  -0.435  0.00  0.00    +0.030 N 
ATOM     12  O   LIG    1        0.303   5.685  -1.601  0.00  0.00    -0.160 OA
ATOM     13  O   LIG    1        0.654   7.125  -0.100  0.00  0.00    -0.150 OA
ENDBRANCH   7  11
BRANCH   5  15
ATOM     14  C   LIG    1       -1.703   1.455  -0.618  0.00  0.00    +0.250 C 
ATOM     15  O   LIG    1       -1.808   1.792   0.767  0.00  0.00    -0.310 OA
ENDBRANCH   5  15
ENDBRANCH   1  10
BRANCH   3  16
ATOM     16  C   LIG    1       -2.965   2.121   5.656  0.00  0.00    +0.280 C 
BRANCH  16  17
ATOM     17  O   LIG    1       -3.489   2.899   6.764  0.00  0.00    -0.330 OA
BRANCH  17  18
ATOM     18  C   LIG    1       -3.956   2.213   7.826  0.00  0.00    +0.510 C 
ATOM     19  O   LIG    1       -3.927   0.999   7.825  0.00  0.00    -0.470 OA
BRANCH  18  20
ATOM     20  C   LIG    1       -4.503   2.937   8.989  0.00  0.00    -0.100 A 
ATOM     21  C   LIG    1       -4.538   4.334   8.992  0.00  0.00    +0.130 A 
ATOM     22  C   LIG    1       -5.052   5.006  10.082  0.00  0.00    +0.060 A 
ATOM     23  C   LIG    1       -5.534   4.296  11.175  0.00  0.00    +0.120 A 
ATOM     24  C   LIG    1       -5.502   2.911  11.176  0.00  0.00    +0.040 A 
ATOM     25  F   LIG    1       -6.036   4.959  12.240  0.00  0.00    -0.110 F 
ATOM     26  F   LIG    1       -5.087   6.356  10.088  0.00  0.00    -0.110 F 
ATOM     27  C   LIG    1       -4.995   2.228  10.089  0.00  0.00    +0.030 A 
ATOM     28 CL   LIG    1       -4.962   0.492  10.091  0.00  0.00    -0.000 Cl
ENDBRANCH  18  20
ENDBRANCH  17  18
ENDBRANCH  16  17
ENDBRANCH   3  16
TORSDOF 7
