REMARK  Name = ZINCrg000000tk4m.0
REMARK                            x       y       z     vdW  Elec       q    Type
REMARK                         _______ _______ _______ _____ _____    ______ ____
ROOT
ATOM      1  C   LIG    1       -0.202   0.292   0.033  0.00  0.00    +0.510 C 
ATOM      2  N   LIG    1       -1.267  -0.534   0.027  0.00  0.00    -0.610 N 
ATOM      3  C   LIG    1       -2.629  -0.011   0.210  0.00  0.00    +0.280 C 
ATOM      4  C   LIG    1       -3.510  -0.550  -0.928  0.00  0.00    +0.170 C 
ATOM      5  N   LIG    1       -3.407  -2.015  -0.968  0.00  0.00    -0.510 NA
ATOM      6  C   LIG    1       -2.037  -2.445  -1.276  0.00  0.00    +0.170 C 
ATOM      7  C   LIG    1       -1.096  -1.983  -0.158  0.00  0.00    +0.300 C 
ATOM      8  O   LIG    1        0.915  -0.157  -0.114  0.00  0.00    -0.540 OA
ENDROOT
BRANCH   1   9
ATOM      9  C   LIG    1       -0.399   1.774   0.224  0.00  0.00    +0.300 C 
BRANCH   9  12
ATOM     10  O   LIG    1       -0.046   4.434   0.506  0.00  0.00    -0.530 OA
ATOM     11  C   LIG    1        0.971   3.786   0.343  0.00  0.00    +0.600 C 
ATOM     12  N   LIG    1        0.901   2.448   0.192  0.00  0.00    -0.720 N 
ATOM     13  H   LIG    1        1.712   1.932   0.063  0.00  0.00    +0.410 HD
BRANCH  11  14
ATOM     14  C   LIG    1        2.272   4.460   0.312  0.00  0.00    -0.270 A 
ATOM     15  C   LIG    1        2.472   5.804   0.453  0.00  0.00    +0.110 A 
ATOM     16  C   LIG    1        3.796   6.167   0.383  0.00  0.00    +0.000 A 
ATOM     17  C   LIG    1        4.653   5.157   0.193  0.00  0.00    -0.060 A 
ATOM     18  S   LIG    1        3.827   3.667   0.094  0.00  0.00    +0.210 S 
ENDBRANCH  11  14
ENDBRANCH   9  12
ENDBRANCH   1   9
BRANCH   5  19
ATOM     19  C   LIG    1       -4.365  -2.584  -1.925  0.00  0.00    +0.260 C 
BRANCH  19  20
ATOM     20  C   LIG    1       -4.087  -2.035  -3.301  0.00  0.00    +0.480 C 
ATOM     21  N   LIG    1       -4.910  -2.335  -4.325  0.00  0.00    -0.600 N 
ATOM     22  C   LIG    1       -6.048  -3.189  -4.072  0.00  0.00    +0.270 C 
ATOM     23  C   LIG    1       -5.649  -4.667  -4.267  0.00  0.00    -0.000 C 
ATOM     24  C   LIG    1       -5.441  -4.955  -5.695  0.00  0.00    +0.000 C 
ATOM     25  C   LIG    1       -4.302  -4.167  -6.335  0.00  0.00    +0.000 C 
ATOM     26  C   LIG    1       -4.815  -2.818  -6.778  0.00  0.00    +0.020 C 
ATOM     27  C   LIG    1       -4.609  -1.781  -5.660  0.00  0.00    +0.260 C 
ATOM     28  O   LIG    1       -3.122  -1.324  -3.486  0.00  0.00    -0.540 OA
ENDBRANCH  19  20
ENDBRANCH   5  19
TORSDOF 5
