REMARK  Name = ZINCrD000006QxdO.0
REMARK                            x       y       z     vdW  Elec       q    Type
REMARK                         _______ _______ _______ _____ _____    ______ ____
ROOT
ATOM      1  N   LIG    1       -0.017   1.395   0.010  0.00  0.00    -0.480 N 
ATOM      2  C   LIG    1       -0.808   1.917  -1.113  0.00  0.00    +0.190 C 
ATOM      3  C   LIG    1       -0.955   3.435  -0.967  0.00  0.00    +0.310 C 
ATOM      4  N   LIG    1        0.386   4.023  -0.824  0.00  0.00    -1.000 NA
ATOM      5  C   LIG    1        1.288   3.459   0.191  0.00  0.00    +0.320 C 
ATOM      6  C   LIG    1        1.347   1.940  -0.000  0.00  0.00    +0.180 C 
ENDROOT
BRANCH   1  10
ATOM      7  C   LIG    1        0.040  -2.773  -0.013  0.00  0.00    +0.100 A 
ATOM      8  C   LIG    1       -1.171  -2.096   0.002  0.00  0.00    +0.000 A 
ATOM      9  C   LIG    1       -1.191  -0.715   0.010  0.00  0.00    +0.030 A 
ATOM     10  C   LIG    1        0.002  -0.004   0.002  0.00  0.00    +0.070 A 
ATOM     11  C   LIG    1        1.214  -0.682  -0.019  0.00  0.00    +0.000 A 
ATOM     12  C   LIG    1        1.232  -2.063  -0.021  0.00  0.00    -0.050 A 
BRANCH   7  14
ATOM     13  C   LIG    1        1.340  -4.764  -0.036  0.00  0.00    +0.240 C 
ATOM     14  O   LIG    1        0.058  -4.133  -0.021  0.00  0.00    -0.320 OA
ENDBRANCH   7  14
ENDBRANCH   1  10
BRANCH   4  15
ATOM     15  S   LIG    1        0.866   5.287  -1.781  0.00  0.00    +2.690 S 
ATOM     16  O   LIG    1        1.900   5.956  -1.073  0.00  0.00    -0.950 OA
ATOM     17  O   LIG    1       -0.321   5.933  -2.219  0.00  0.00    -0.950 OA
BRANCH  15  18
ATOM     18  C   LIG    1        1.615   4.596  -3.219  0.00  0.00    -0.670 A 
ATOM     19  C   LIG    1        0.848   4.322  -4.309  0.00  0.00    +0.160 A 
ATOM     20  C   LIG    1        1.442   3.772  -5.457  0.00  0.00    -0.080 A 
ATOM     21  C   LIG    1        0.682   3.476  -6.601  0.00  0.00    +0.040 A 
ATOM     22  C   LIG    1        1.292   2.942  -7.695  0.00  0.00    +0.010 A 
ATOM     23  C   LIG    1        2.662   2.686  -7.699  0.00  0.00    +0.040 A 
ATOM     24  C   LIG    1        3.430   2.960  -6.609  0.00  0.00    +0.010 A 
ATOM     25  C   LIG    1        2.835   3.510  -5.461  0.00  0.00    -0.010 A 
ATOM     26  C   LIG    1        3.595   3.807  -4.316  0.00  0.00    +0.020 A 
ATOM     27  C   LIG    1        2.986   4.344  -3.224  0.00  0.00    +0.090 A 
ENDBRANCH  15  18
ENDBRANCH   4  15
TORSDOF 4
