REMARK  Name = ZINCrH000004jHnW.1
REMARK                            x       y       z     vdW  Elec       q    Type
REMARK                         _______ _______ _______ _____ _____    ______ ____
ROOT
ATOM      1  N   LIG    1        0.430   2.321  -1.081  0.00  0.00    -0.730 N 
ATOM      2  H   LIG    1       -0.458   2.708  -1.146  0.00  0.00    +0.410 HD
ATOM      3  C   LIG    1        1.322   2.510  -2.074  0.00  0.00    +0.700 C 
ATOM      4  N   LIG    1        0.981   3.236  -3.156  0.00  0.00    -0.680 N 
ATOM      5  H   LIG    1        0.074   3.566  -3.254  0.00  0.00    +0.410 HD
ATOM      6  O   LIG    1        2.434   2.025  -1.992  0.00  0.00    -0.570 OA
ENDROOT
BRANCH   4   7
ATOM      7  C   LIG    1        1.937   3.516  -4.142  0.00  0.00    +0.120 A 
ATOM      8  C   LIG    1        1.915   4.736  -4.805  0.00  0.00    +0.020 A 
ATOM      9  C   LIG    1        2.861   5.013  -5.772  0.00  0.00    -0.060 A 
ATOM     10  C   LIG    1        3.827   4.069  -6.089  0.00  0.00    +0.120 A 
ATOM     11  C   LIG    1        3.846   2.848  -5.430  0.00  0.00    +0.000 A 
ATOM     12  C   LIG    1        2.904   2.572  -4.459  0.00  0.00    +0.070 A 
BRANCH  10  13
ATOM     13  O   LIG    1        4.755   4.340  -7.045  0.00  0.00    -0.310 OA
BRANCH  13  14
ATOM     14  C   LIG    1        4.676   5.616  -7.682  0.00  0.00    +0.210 C 
BRANCH  14  15
ATOM     15  C   LIG    1        5.793   5.738  -8.721  0.00  0.00    +0.160 C 
ATOM     16  C   LIG    1        5.670   7.079  -9.487  0.00  0.00    +0.020 C 
ATOM     17  C   LIG    1        7.140   7.289  -9.948  0.00  0.00    +0.010 C 
ATOM     18  C   LIG    1        7.942   6.686  -8.775  0.00  0.00    +0.190 C 
ATOM     19  O   LIG    1        7.073   5.790  -8.072  0.00  0.00    -0.370 OA
ENDBRANCH  14  15
ENDBRANCH  13  14
ENDBRANCH  10  13
ENDBRANCH   4   7
BRANCH   1  20
ATOM     20  C   LIG    1        0.800   1.531   0.096  0.00  0.00    +0.290 C 
BRANCH  20  21
ATOM     21  C   LIG    1       -0.384   1.472   1.063  0.00  0.00    +0.250 C 
BRANCH  21  22
ATOM     22  C   LIG    1        0.035   0.765   2.327  0.00  0.00    -0.220 A 
ATOM     23  C   LIG    1       -0.371  -0.450   2.698  0.00  0.00    +0.020 A 
ATOM     24  C   LIG    1        0.148  -0.895   3.902  0.00  0.00    +0.000 A 
ATOM     25  C   LIG    1        0.975  -0.042   4.508  0.00  0.00    -0.060 A 
ATOM     26  S   LIG    1        1.138   1.413   3.533  0.00  0.00    +0.120 S 
ENDBRANCH  21  22
BRANCH  21  28
ATOM     27  C   LIG    1       -1.831   2.826   2.454  0.00  0.00    +0.200 C 
ATOM     28  N   LIG    1       -0.821   2.836   1.387  0.00  0.00    -0.530 NA
ATOM     29  C   LIG    1        0.323   3.682   1.753  0.00  0.00    +0.210 C 
ENDBRANCH  21  28
ENDBRANCH  20  21
ENDBRANCH   1  20
TORSDOF 8
