REMARK  Name = ZINCvU0000000CW4.0
REMARK                            x       y       z     vdW  Elec       q    Type
REMARK                         _______ _______ _______ _____ _____    ______ ____
ROOT
ATOM      1  C   LIG    1        2.238   1.200  -0.013  0.00  0.00    -0.180 A 
ATOM      2  C   LIG    1        1.705  -0.061  -0.015  0.00  0.00    +0.050 A 
ATOM      3  S   LIG    1        0.002  -0.004   0.002  0.00  0.00    +0.330 S 
ATOM      4  C   LIG    1       -0.022   1.750   0.012  0.00  0.00    -0.090 A 
ATOM      5  C   LIG    1        1.223   2.241   0.002  0.00  0.00    -0.000 A 
ENDROOT
BRANCH   5   6
ATOM      6  C   LIG    1        1.534   3.690   0.007  0.00  0.00    -0.040 A 
ATOM      7  C   LIG    1        2.443   4.208   0.928  0.00  0.00    +0.030 A 
ATOM      8  C   LIG    1        2.733   5.557   0.923  0.00  0.00    +0.000 A 
ATOM      9  C   LIG    1        2.114   6.397   0.015  0.00  0.00    -0.080 A 
ATOM     10  C   LIG    1        1.207   5.890  -0.898  0.00  0.00    +0.010 A 
ATOM     11  C   LIG    1        2.431   7.871   0.019  0.00  0.00    +0.090 C 
ATOM     12  C   LIG    1        0.914   4.542  -0.907  0.00  0.00    +0.040 A 
ENDBRANCH   5   6
BRANCH   2  13
ATOM     13  N   LIG    1        2.451  -1.229  -0.028  0.00  0.00    -0.630 N 
ATOM     14  H   LIG    1        3.420  -1.185  -0.036  0.00  0.00    +0.420 HD
ATOM     15  C   LIG    1        1.830  -2.425  -0.028  0.00  0.00    +0.510 C 
ATOM     16  O   LIG    1        0.619  -2.480  -0.017  0.00  0.00    -0.470 OA
BRANCH  15  17
ATOM     17  C   LIG    1        2.642  -3.695  -0.042  0.00  0.00    +0.280 C 
BRANCH  17  18
ATOM     18  O   LIG    1        1.748  -4.840  -0.040  0.00  0.00    -0.330 OA
BRANCH  18  19
ATOM     19  C   LIG    1        2.319  -6.061  -0.052  0.00  0.00    +0.500 C 
ATOM     20  O   LIG    1        3.529  -6.165  -0.063  0.00  0.00    -0.470 OA
BRANCH  19  21
ATOM     21  C   LIG    1        1.473  -7.271  -0.050  0.00  0.00    -0.110 A 
ATOM     22  C   LIG    1        0.082  -7.154  -0.037  0.00  0.00    +0.100 A 
ATOM     23  C   LIG    1       -0.703  -8.289  -0.035  0.00  0.00    +0.020 A 
ATOM     24  C   LIG    1       -0.114  -9.541  -0.047  0.00  0.00    +0.070 A 
ATOM     25  C   LIG    1        1.264  -9.665  -0.060  0.00  0.00    +0.040 A 
ATOM     26  C   LIG    1        2.061  -8.539  -0.068  0.00  0.00    -0.040 A 
ATOM     27 BR   LIG    1        3.944  -8.710  -0.095  0.00  0.00    -0.010 Br
ENDBRANCH  19  21
ENDBRANCH  18  19
ENDBRANCH  17  18
ENDBRANCH  15  17
ENDBRANCH   2  13
BRANCH   1  28
ATOM     28  C   LIG    1        3.676   1.471  -0.025  0.00  0.00    +0.540 C 
ATOM     29  O   LIG    1        4.263   1.590  -1.083  0.00  0.00    -0.490 OA
BRANCH  28  30
ATOM     30  O   LIG    1        4.349   1.590   1.138  0.00  0.00    -0.350 OA
BRANCH  30  32
ATOM     31  C   LIG    1        6.361   1.960   2.459  0.00  0.00    +0.070 C 
ATOM     32  C   LIG    1        5.773   1.859   1.050  0.00  0.00    +0.200 C 
ENDBRANCH  30  32
ENDBRANCH  28  30
ENDBRANCH   1  28
TORSDOF 9
