REMARK  Name = ZINCrH00000aqq8k.1
REMARK                            x       y       z     vdW  Elec       q    Type
REMARK                         _______ _______ _______ _____ _____    ______ ____
ROOT
ATOM      1  C   LIG    1       -4.304  -2.719   0.006  0.00  0.00    +0.600 C 
ATOM      2  N   LIG    1       -4.272  -1.372   0.022  0.00  0.00    -0.600 N 
ATOM      3  C   LIG    1       -4.137  -0.611  -1.228  0.00  0.00    +0.280 C 
ATOM      4  C   LIG    1       -2.953   0.351  -1.094  0.00  0.00    +0.030 C 
ATOM      5  C   LIG    1       -3.143   1.219   0.152  0.00  0.00    +0.040 C 
ATOM      6  C   LIG    1       -3.184   0.326   1.395  0.00  0.00    +0.030 C 
ATOM      7  C   LIG    1       -4.371  -0.636   1.290  0.00  0.00    +0.280 C 
ATOM      8  O   LIG    1       -4.314  -3.314  -1.054  0.00  0.00    -0.530 OA
ENDROOT
BRANCH   1  15
ATOM      9  C   LIG    1       -3.491  -6.678   4.431  0.00  0.00    +0.070 C 
ATOM     10  C   LIG    1       -4.553  -6.481   3.348  0.00  0.00    +0.240 C 
ATOM     11  O   LIG    1       -4.349  -7.428   2.290  0.00  0.00    -0.360 OA
ATOM     12  C   LIG    1       -5.147  -7.199   1.126  0.00  0.00    +0.140 C 
ATOM     13  C   LIG    1       -4.649  -5.941   0.396  0.00  0.00    +0.110 C 
ATOM     14  C   LIG    1       -4.474  -4.858   1.425  0.00  0.00    -0.140 A 
ATOM     15  C   LIG    1       -4.326  -3.473   1.276  0.00  0.00    +0.010 A 
ATOM     16  N   LIG    1       -4.205  -2.972   2.495  0.00  0.00    -0.260 NA
ATOM     17  N   LIG    1       -4.272  -3.915   3.372  0.00  0.00    -0.360 N 
ATOM     18  H   LIG    1       -4.211  -3.787   4.332  0.00  0.00    +0.450 HD
ATOM     19  C   LIG    1       -5.042  -8.405   0.191  0.00  0.00    +0.080 C 
ATOM     20  C   LIG    1       -4.433  -5.097   2.763  0.00  0.00    -0.020 A 
ENDBRANCH   1  15
BRANCH   5  21
ATOM     21  C   LIG    1       -1.997   2.190   0.268  0.00  0.00    -0.080 A 
ATOM     22  C   LIG    1       -0.702   1.720   0.384  0.00  0.00    +0.040 A 
ATOM     23  C   LIG    1        0.351   2.609   0.484  0.00  0.00    +0.040 A 
ATOM     24  C   LIG    1        0.112   3.970   0.475  0.00  0.00    +0.020 A 
ATOM     25  C   LIG    1       -1.184   4.444   0.365  0.00  0.00    +0.070 A 
ATOM     26  F   LIG    1       -1.419   5.775   0.356  0.00  0.00    -0.130 F 
ATOM     27  C   LIG    1       -2.241   3.552   0.265  0.00  0.00    +0.070 A 
ATOM     28  F   LIG    1       -3.506   4.012   0.158  0.00  0.00    -0.130 F 
ENDBRANCH   5  21
TORSDOF 2
