REMARK  Name = ZINCrH00000aqq8k.0
REMARK                            x       y       z     vdW  Elec       q    Type
REMARK                         _______ _______ _______ _____ _____    ______ ____
ROOT
ATOM      1  C   LIG    1       -4.305  -2.719   0.010  0.00  0.00    +0.600 C 
ATOM      2  N   LIG    1       -3.367  -1.753   0.075  0.00  0.00    -0.610 N 
ATOM      3  C   LIG    1       -2.504  -1.468  -1.080  0.00  0.00    +0.260 C 
ATOM      4  C   LIG    1       -1.041  -1.535  -0.630  0.00  0.00    +0.040 C 
ATOM      5  C   LIG    1       -0.834  -0.592   0.557  0.00  0.00    +0.040 C 
ATOM      6  C   LIG    1       -1.718  -1.036   1.724  0.00  0.00    +0.030 C 
ATOM      7  C   LIG    1       -3.189  -0.964   1.302  0.00  0.00    +0.290 C 
ATOM      8  O   LIG    1       -4.942  -3.015   1.002  0.00  0.00    -0.510 OA
ENDROOT
BRANCH   1  15
ATOM      9  C   LIG    1       -6.498  -6.037  -4.491  0.00  0.00    +0.070 C 
ATOM     10  C   LIG    1       -5.439  -6.247  -3.406  0.00  0.00    +0.260 C 
ATOM     11  O   LIG    1       -5.979  -7.053  -2.349  0.00  0.00    -0.370 OA
ATOM     12  C   LIG    1       -5.150  -7.153  -1.189  0.00  0.00    +0.150 C 
ATOM     13  C   LIG    1       -5.157  -5.819  -0.425  0.00  0.00    +0.110 C 
ATOM     14  C   LIG    1       -4.919  -4.724  -1.428  0.00  0.00    -0.120 A 
ATOM     15  C   LIG    1       -4.558  -3.414  -1.262  0.00  0.00    -0.020 A 
ATOM     16  N   LIG    1       -4.485  -2.882  -2.523  0.00  0.00    -0.390 N 
ATOM     17  H   LIG    1       -4.253  -1.963  -2.729  0.00  0.00    +0.450 HD
ATOM     18  N   LIG    1       -4.769  -3.789  -3.395  0.00  0.00    -0.240 NA
ATOM     19  C   LIG    1       -5.682  -8.262  -0.278  0.00  0.00    +0.060 C 
ATOM     20  C   LIG    1       -5.044  -4.916  -2.813  0.00  0.00    -0.000 A 
ENDBRANCH   1  15
BRANCH   5  21
ATOM     21  C   LIG    1        0.612  -0.629   0.980  0.00  0.00    -0.080 A 
ATOM     22  C   LIG    1        1.181  -1.818   1.395  0.00  0.00    +0.040 A 
ATOM     23  C   LIG    1        2.509  -1.855   1.779  0.00  0.00    +0.050 A 
ATOM     24  C   LIG    1        3.269  -0.701   1.753  0.00  0.00    +0.020 A 
ATOM     25  C   LIG    1        2.701   0.493   1.343  0.00  0.00    +0.070 A 
ATOM     26  F   LIG    1        3.444   1.621   1.317  0.00  0.00    -0.130 F 
ATOM     27  C   LIG    1        1.370   0.530   0.959  0.00  0.00    +0.070 A 
ATOM     28  F   LIG    1        0.814   1.694   0.557  0.00  0.00    -0.130 F 
ENDBRANCH   5  21
TORSDOF 2
