REMARK  Name = ZINCqH0000000WYq.0
REMARK                            x       y       z     vdW  Elec       q    Type
REMARK                         _______ _______ _______ _____ _____    ______ ____
ROOT
ATOM      1  C   LIG    1       -3.610  -0.845   1.281  0.00  0.00    -0.060 A 
ATOM      2  C   LIG    1       -4.744  -0.025   1.296  0.00  0.00    +0.000 A 
ATOM      3  C   LIG    1       -5.995  -0.607   1.305  0.00  0.00    +0.290 A 
ATOM      4  N   LIG    1       -6.134  -1.919   1.299  0.00  0.00    -0.500 NA
ATOM      5  C   LIG    1       -5.091  -2.734   1.284  0.00  0.00    +0.310 A 
ATOM      6  C   LIG    1       -3.795  -2.229   1.270  0.00  0.00    +0.030 A 
ENDROOT
BRANCH   5   7
ATOM      7  N   LIG    1       -5.293  -4.109   1.279  0.00  0.00    -0.470 N 
ATOM      8  C   LIG    1       -4.628  -4.735   0.126  0.00  0.00    +0.180 C 
ATOM      9  C   LIG    1       -4.825  -6.252   0.192  0.00  0.00    +0.250 C 
ATOM     10  O   LIG    1       -6.225  -6.544   0.234  0.00  0.00    -0.370 OA
ATOM     11  C   LIG    1       -6.903  -5.951   1.345  0.00  0.00    +0.210 C 
ATOM     12  C   LIG    1       -6.727  -4.431   1.291  0.00  0.00    +0.210 C 
BRANCH  11  13
ATOM     13  C   LIG    1       -8.370  -6.290   1.279  0.00  0.00    -0.100 A 
ATOM     14  C   LIG    1       -9.002  -6.388   0.053  0.00  0.00    +0.080 A 
ATOM     15  C   LIG    1      -10.346  -6.704  -0.009  0.00  0.00    -0.020 A 
ATOM     16  C   LIG    1      -11.062  -6.912   1.157  0.00  0.00    +0.100 A 
ATOM     17  C   LIG    1      -10.430  -6.809   2.385  0.00  0.00    -0.010 A 
ATOM     18  F   LIG    1      -12.377  -7.217   1.098  0.00  0.00    -0.140 F 
ATOM     19  C   LIG    1       -9.084  -6.498   2.444  0.00  0.00    +0.060 A 
ENDBRANCH  11  13
ENDBRANCH   5   7
BRANCH   1  20
ATOM     20  C   LIG    1       -2.249  -0.261   1.272  0.00  0.00    +0.510 C 
ATOM     21  O   LIG    1       -1.276  -0.987   1.258  0.00  0.00    -0.490 OA
BRANCH  20  22
ATOM     22  O   LIG    1       -2.091   1.077   1.277  0.00  0.00    -0.340 OA
BRANCH  22  24
ATOM     23  C   LIG    1       -0.013   1.086   0.008  0.00  0.00    +0.040 C 
ATOM     24  C   LIG    1       -0.729   1.579   1.267  0.00  0.00    +0.120 C 
ATOM     25  C   LIG    1       -0.750   3.109   1.275  0.00  0.00    +0.080 C 
ATOM     26  C   LIG    1        0.011   1.072   2.506  0.00  0.00    +0.040 C 
ENDBRANCH  22  24
ENDBRANCH  20  22
ENDBRANCH   1  20
TORSDOF 5
