REMARK  Name = ZINCqH0000004mTs.0
REMARK                            x       y       z     vdW  Elec       q    Type
REMARK                         _______ _______ _______ _____ _____    ______ ____
ROOT
ATOM      1  N   LIG    1       -3.628   5.179  -3.193  0.00  0.00    -0.730 N 
ATOM      2  H   LIG    1       -3.466   6.133  -3.113  0.00  0.00    +0.400 HD
ATOM      3  C   LIG    1       -3.313   4.355  -2.175  0.00  0.00    +0.500 C 
ATOM      4  O   LIG    1       -3.515   3.163  -2.275  0.00  0.00    -0.500 OA
ENDROOT
BRANCH   1   5
ATOM      5  C   LIG    1       -4.214   4.637  -4.421  0.00  0.00    +0.290 C 
BRANCH   5   6
ATOM      6  C   LIG    1       -3.915   5.562  -5.572  0.00  0.00    -0.080 A 
ATOM      7  C   LIG    1       -3.580   5.042  -6.808  0.00  0.00    +0.030 A 
ATOM      8  C   LIG    1       -3.306   5.891  -7.865  0.00  0.00    +0.040 A 
ATOM      9  C   LIG    1       -3.368   7.260  -7.686  0.00  0.00    +0.030 A 
ATOM     10  C   LIG    1       -3.703   7.781  -6.449  0.00  0.00    -0.030 A 
ATOM     11 CL   LIG    1       -3.779   9.501  -6.223  0.00  0.00    -0.070 Cl
ATOM     12  C   LIG    1       -3.981   6.931  -5.393  0.00  0.00    +0.020 A 
ENDBRANCH   5   6
BRANCH   5  14
ATOM     13  C   LIG    1       -6.034   3.474  -3.164  0.00  0.00    +0.030 C 
ATOM     14  C   LIG    1       -5.729   4.509  -4.250  0.00  0.00    +0.010 C 
ENDBRANCH   5  14
ENDBRANCH   1   5
BRANCH   3  15
ATOM     15  C   LIG    1       -2.710   4.913  -0.912  0.00  0.00    +0.320 C 
BRANCH  15  16
ATOM     16  N   LIG    1       -2.461   3.822   0.034  0.00  0.00    -0.540 N 
ATOM     17  C   LIG    1       -3.417   3.458   0.905  0.00  0.00    +0.530 C 
ATOM     18  C   LIG    1       -3.122   2.390   1.926  0.00  0.00    +0.040 C 
ATOM     19  C   LIG    1       -3.108   1.016   1.260  0.00  0.00    +0.250 C 
ATOM     20  O   LIG    1       -2.394   1.067   0.027  0.00  0.00    -0.320 OA
ATOM     21  C   LIG    1       -1.220   1.752   0.017  0.00  0.00    +0.100 A 
ATOM     22  C   LIG    1       -0.013   1.076   0.008  0.00  0.00    +0.020 A 
ATOM     23  C   LIG    1        1.175   1.784   0.000  0.00  0.00    +0.020 A 
ATOM     24  C   LIG    1        1.162   3.167   0.009  0.00  0.00    +0.020 A 
ATOM     25  C   LIG    1       -0.040   3.850   0.023  0.00  0.00    +0.010 A 
ATOM     26  O   LIG    1       -4.508   3.987   0.875  0.00  0.00    -0.520 OA
ATOM     27  C   LIG    1       -1.233   3.147   0.028  0.00  0.00    +0.110 A 
ENDBRANCH  15  16
ENDBRANCH   3  15
TORSDOF 5
