REMARK  Name = ZINCah0000002lXp.0
REMARK                            x       y       z     vdW  Elec       q    Type
REMARK                         _______ _______ _______ _____ _____    ______ ____
ROOT
ATOM      1  C   LIG    1       -0.718   1.572   1.248  0.00  0.00    +0.260 A 
ATOM      2  N   LIG    1       -0.839   2.869   1.448  0.00  0.00    -0.470 NA
ATOM      3  C   LIG    1       -1.456   3.336   2.521  0.00  0.00    +0.240 A 
ATOM      4  C   LIG    1       -1.971   2.435   3.450  0.00  0.00    +0.110 A 
ATOM      5  C   LIG    1       -1.817   1.073   3.203  0.00  0.00    +0.230 A 
ATOM      6  N   LIG    1       -1.192   0.687   2.103  0.00  0.00    -0.480 NA
ENDROOT
BRANCH   1   8
ATOM      7  C   LIG    1        1.423   1.615  -0.003  0.00  0.00    +0.040 C 
ATOM      8  C   LIG    1       -0.013   1.086   0.008  0.00  0.00    +0.070 C 
ATOM      9  C   LIG    1       -0.753   1.593  -1.232  0.00  0.00    +0.030 C 
ENDBRANCH   1   8
BRANCH   4  10
ATOM     10  N   LIG    1       -2.624   2.885   4.600  0.00  0.00    -0.860 N 
ATOM     11  H   LIG    1       -2.724   3.837   4.759  0.00  0.00    +0.400 HD
ATOM     12  H   LIG    1       -2.978   2.247   5.238  0.00  0.00    +0.400 HD
ENDBRANCH   4  10
TORSDOF 2
