REMARK  Name = ZINCwl0000000qyf.0
REMARK                            x       y       z     vdW  Elec       q    Type
REMARK                         _______ _______ _______ _____ _____    ______ ____
ROOT
ATOM      1  C   LIG    1       -0.019   1.514  -0.004  0.00  0.00    -0.190 A 
ATOM      2  C   LIG    1        1.164   2.227  -0.021  0.00  0.00    +0.070 A 
ATOM      3  C   LIG    1        1.140   3.609  -0.016  0.00  0.00    +0.010 A 
ATOM      4  C   LIG    1       -0.068   4.283   0.004  0.00  0.00    +0.080 A 
ATOM      5  C   LIG    1       -1.254   3.575   0.021  0.00  0.00    +0.030 A 
ATOM      6  C   LIG    1       -1.233   2.187   0.011  0.00  0.00    +0.170 A 
ENDROOT
BRANCH   6   7
ATOM      7  N   LIG    1       -2.434   1.468   0.021  0.00  0.00    -0.690 N 
ATOM      8  H   LIG    1       -2.501   0.629  -0.462  0.00  0.00    +0.410 HD
ATOM      9  C   LIG    1       -3.496   1.940   0.703  0.00  0.00    +0.530 C 
ATOM     10  O   LIG    1       -3.438   3.026   1.240  0.00  0.00    -0.490 OA
BRANCH   9  11
ATOM     11  C   LIG    1       -4.756   1.118   0.799  0.00  0.00    +0.060 C 
BRANCH  11  12
ATOM     12  C   LIG    1       -5.799   1.878   1.621  0.00  0.00    +0.360 C 
BRANCH  12  13
ATOM     13  N   LIG    1       -7.023   1.079   1.714  0.00  0.00    -0.460 N 
ATOM     14  N   LIG    1       -8.026   1.223   0.751  0.00  0.00    +0.080 NA
ATOM     15  N   LIG    1       -9.118   0.550   0.774  0.00  0.00    -0.190 NA
ATOM     16  C   LIG    1       -9.385  -0.352   1.751  0.00  0.00    +0.050 A 
ATOM     17  C   LIG    1      -10.581  -1.074   1.766  0.00  0.00    +0.090 A 
ATOM     18  C   LIG    1      -10.819  -1.982   2.774  0.00  0.00    +0.070 A 
ATOM     19  C   LIG    1       -9.883  -2.190   3.778  0.00  0.00    +0.050 A 
ATOM     20  C   LIG    1       -8.696  -1.490   3.785  0.00  0.00    +0.100 A 
ATOM     21  C   LIG    1       -8.436  -0.567   2.774  0.00  0.00    -0.150 A 
ATOM     22  C   LIG    1       -7.185   0.205   2.736  0.00  0.00    +0.530 A 
ATOM     23  O   LIG    1       -6.328   0.065   3.589  0.00  0.00    -0.500 OA
ENDBRANCH  12  13
ENDBRANCH  11  12
ENDBRANCH   9  11
ENDBRANCH   6   7
BRANCH   1  24
ATOM     24  C   LIG    1        0.009   0.007  -0.009  0.00  0.00    +0.310 C 
BRANCH  24  29
ATOM     25  C   LIG    1       -0.680  -2.458  -2.754  0.00  0.00    +0.010 C 
ATOM     26  C   LIG    1        0.416  -2.026  -3.732  0.00  0.00    +0.070 C 
ATOM     27  C   LIG    1        0.555  -0.501  -3.687  0.00  0.00    +0.050 C 
ATOM     28  C   LIG    1        0.852  -0.064  -2.252  0.00  0.00    +0.250 C 
ATOM     29  N   LIG    1       -0.244  -0.483  -1.371  0.00  0.00    -0.390 N 
ATOM     30  H   LIG    1       -1.112  -0.097  -1.710  0.00  0.00    +0.420 HD
ATOM     31  C   LIG    1       -0.336  -1.948  -1.353  0.00  0.00    +0.290 C 
BRANCH  25  35
ATOM     32  N   LIG    1       -2.507  -2.192  -4.400  0.00  0.00    -0.830 N 
ATOM     33  H   LIG    1       -3.357  -1.819  -4.681  0.00  0.00    +0.420 HD
ATOM     34  H   LIG    1       -2.021  -2.790  -4.989  0.00  0.00    +0.410 HD
ATOM     35  C   LIG    1       -2.001  -1.879  -3.191  0.00  0.00    +0.520 C 
ATOM     36  O   LIG    1       -2.608  -1.131  -2.454  0.00  0.00    -0.570 OA
ENDBRANCH  25  35
ENDBRANCH  24  29
ENDBRANCH   1  24
TORSDOF 7
