REMARK  Name = ZINCwl0000000qyf.1
REMARK                            x       y       z     vdW  Elec       q    Type
REMARK                         _______ _______ _______ _____ _____    ______ ____
ROOT
ATOM      1  C   LIG    1        0.938   1.968   0.151  0.00  0.00    -0.200 A 
ATOM      2  C   LIG    1        1.976   1.160  -0.268  0.00  0.00    +0.070 A 
ATOM      3  C   LIG    1        1.713  -0.097  -0.781  0.00  0.00    +0.010 A 
ATOM      4  C   LIG    1        0.410  -0.549  -0.875  0.00  0.00    +0.080 A 
ATOM      5  C   LIG    1       -0.634   0.254  -0.458  0.00  0.00    +0.030 A 
ATOM      6  C   LIG    1       -0.372   1.517   0.057  0.00  0.00    +0.170 A 
ENDROOT
BRANCH   6   7
ATOM      7  N   LIG    1       -1.427   2.336   0.476  0.00  0.00    -0.690 N 
ATOM      8  H   LIG    1       -1.256   3.078   1.076  0.00  0.00    +0.410 HD
ATOM      9  C   LIG    1       -2.681   2.092   0.045  0.00  0.00    +0.520 C 
ATOM     10  O   LIG    1       -2.881   1.226  -0.780  0.00  0.00    -0.490 OA
BRANCH   9  11
ATOM     11  C   LIG    1       -3.834   2.897   0.588  0.00  0.00    +0.060 C 
BRANCH  11  12
ATOM     12  C   LIG    1       -5.136   2.424  -0.061  0.00  0.00    +0.360 C 
BRANCH  12  13
ATOM     13  N   LIG    1       -6.257   3.205   0.467  0.00  0.00    -0.460 N 
ATOM     14  N   LIG    1       -6.942   2.764   1.602  0.00  0.00    +0.080 NA
ATOM     15  N   LIG    1       -7.927   3.406   2.116  0.00  0.00    -0.180 NA
ATOM     16  C   LIG    1       -8.387   4.565   1.582  0.00  0.00    +0.050 A 
ATOM     17  C   LIG    1       -9.464   5.250   2.149  0.00  0.00    +0.090 A 
ATOM     18  C   LIG    1       -9.903   6.424   1.579  0.00  0.00    +0.070 A 
ATOM     19  C   LIG    1       -9.289   6.938   0.446  0.00  0.00    +0.060 A 
ATOM     20  C   LIG    1       -8.223   6.281  -0.131  0.00  0.00    +0.100 A 
ATOM     21  C   LIG    1       -7.763   5.091   0.429  0.00  0.00    -0.150 A 
ATOM     22  C   LIG    1       -6.631   4.352  -0.149  0.00  0.00    +0.530 A 
ATOM     23  O   LIG    1       -6.053   4.754  -1.142  0.00  0.00    -0.500 OA
ENDBRANCH  12  13
ENDBRANCH  11  12
ENDBRANCH   9  11
ENDBRANCH   6   7
BRANCH   1  24
ATOM     24  C   LIG    1        1.226   3.338   0.709  0.00  0.00    +0.320 C 
BRANCH  24  29
ATOM     25  C   LIG    1        0.695   6.752  -0.756  0.00  0.00    -0.010 C 
ATOM     26  C   LIG    1        1.611   6.623  -1.977  0.00  0.00    +0.060 C 
ATOM     27  C   LIG    1        1.503   5.202  -2.536  0.00  0.00    +0.070 C 
ATOM     28  C   LIG    1        1.858   4.198  -1.437  0.00  0.00    +0.260 C 
ATOM     29  N   LIG    1        0.931   4.354  -0.310  0.00  0.00    -0.380 N 
ATOM     30  H   LIG    1       -0.017   4.236  -0.636  0.00  0.00    +0.420 HD
ATOM     31  C   LIG    1        1.082   5.691   0.277  0.00  0.00    +0.290 C 
BRANCH  25  35
ATOM     32  N   LIG    1        0.572   9.219  -0.885  0.00  0.00    -0.840 N 
ATOM     33  H   LIG    1        0.673  10.102  -0.497  0.00  0.00    +0.420 HD
ATOM     34  H   LIG    1        0.270   9.125  -1.802  0.00  0.00    +0.410 HD
ATOM     35  C   LIG    1        0.852   8.124  -0.152  0.00  0.00    +0.530 C 
ATOM     36  O   LIG    1        1.230   8.242   0.994  0.00  0.00    -0.530 OA
ENDBRANCH  25  35
ENDBRANCH  24  29
ENDBRANCH   1  24
TORSDOF 7
