REMARK  Name = ZINCrH000004mQOE.0
REMARK                            x       y       z     vdW  Elec       q    Type
REMARK                         _______ _______ _______ _____ _____    ______ ____
ROOT
ATOM      1  C   LIG    1        7.688   1.193  -0.536  0.00  0.00    -0.010 C 
ATOM      2  C   LIG    1        7.622   0.414  -1.851  0.00  0.00    +0.070 C 
ENDROOT
BRANCH   1   5
ATOM      3  N   LIG    1       10.121   1.502  -0.217  0.00  0.00    -0.670 N 
ATOM      4  H   LIG    1       10.194   0.545  -0.074  0.00  0.00    +0.410 HD
ATOM      5  C   LIG    1        8.928   2.049  -0.520  0.00  0.00    +0.540 C 
ATOM      6  O   LIG    1        8.851   3.231  -0.780  0.00  0.00    -0.490 OA
BRANCH   3  10
ATOM      7  C   LIG    1       13.502   3.925   0.106  0.00  0.00    +0.090 A 
ATOM      8  C   LIG    1       12.524   4.221  -0.829  0.00  0.00    -0.010 A 
ATOM      9  C   LIG    1       11.406   3.414  -0.940  0.00  0.00    +0.030 A 
ATOM     10  C   LIG    1       11.257   2.314  -0.107  0.00  0.00    +0.140 A 
ATOM     11  C   LIG    1       12.236   2.016   0.831  0.00  0.00    -0.060 A 
ATOM     12  C   LIG    1       13.358   2.820   0.939  0.00  0.00    +0.120 A 
BRANCH   7  14
ATOM     13  C   LIG    1       14.687   5.834  -0.677  0.00  0.00    +0.240 C 
ATOM     14  O   LIG    1       14.605   4.716   0.210  0.00  0.00    -0.310 OA
ENDBRANCH   7  14
BRANCH  12  15
ATOM     15  O   LIG    1       14.318   2.530   1.857  0.00  0.00    -0.300 OA
ATOM     16  C   LIG    1       14.104   1.380   2.679  0.00  0.00    +0.240 C 
ENDBRANCH  12  15
ENDBRANCH   3  10
ENDBRANCH   1   5
BRANCH   1  17
ATOM     17  S   LIG    1        6.221   2.249  -0.384  0.00  0.00    -0.090 S 
BRANCH  17  18
ATOM     18  C   LIG    1        4.865   1.050  -0.268  0.00  0.00    +0.090 C 
BRANCH  18  19
ATOM     19  C   LIG    1        3.555   1.784  -0.135  0.00  0.00    +0.530 C 
ATOM     20  N   LIG    1        2.403   1.093  -0.033  0.00  0.00    -0.670 N 
ATOM     21  H   LIG    1        2.421   0.125   0.023  0.00  0.00    +0.410 HD
ATOM     22  O   LIG    1        3.539   2.997  -0.120  0.00  0.00    -0.490 OA
BRANCH  20  23
ATOM     23  C   LIG    1        1.180   1.772  -0.007  0.00  0.00    +0.130 A 
ATOM     24  C   LIG    1        0.060   1.212  -0.607  0.00  0.00    -0.010 A 
ATOM     25  C   LIG    1       -1.145   1.888  -0.585  0.00  0.00    +0.030 A 
ATOM     26  C   LIG    1       -1.238   3.116   0.043  0.00  0.00    -0.100 A 
ATOM     27  C   LIG    1       -0.125   3.676   0.642  0.00  0.00    +0.030 A 
ATOM     28  C   LIG    1       -2.556   3.848   0.071  0.00  0.00    +0.090 C 
ATOM     29  C   LIG    1        1.083   3.008   0.619  0.00  0.00    +0.030 A 
ENDBRANCH  20  23
ENDBRANCH  18  19
ENDBRANCH  17  18
ENDBRANCH   1  17
TORSDOF 8
