REMARK  Name = ZINCtj00001yywq2.1
REMARK                            x       y       z     vdW  Elec       q    Type
REMARK                         _______ _______ _______ _____ _____    ______ ____
ROOT
ATOM      1  C   LIG    1        1.285   2.018   0.001  0.00  0.00    +0.180 C 
ATOM      2  C   LIG    1        2.064   1.557   1.235  0.00  0.00    +0.230 C 
ATOM      3  N   LIG    1        2.177   0.091   1.222  0.00  0.00    -0.360 N 
ATOM      4  C   LIG    1        0.834  -0.496   1.185  0.00  0.00    -0.030 C 
ATOM      5  C   LIG    1        0.002  -0.004   0.002  0.00  0.00    +0.290 C 
ATOM      6  C   LIG    1        0.826  -2.022   1.347  0.00  0.00    +0.090 C 
ATOM      7  C   LIG    1        0.730  -1.779   2.863  0.00  0.00    +0.030 C 
ATOM      8  C   LIG    1        0.094  -0.419   2.527  0.00  0.00    +0.100 C 
ATOM      9  H   LIG    1        2.657  -0.218   2.054  0.00  0.00    +0.430 HD
ATOM     10  O   LIG    1       -0.017   1.428   0.010  0.00  0.00    -0.340 OA
ENDROOT
BRANCH   1  11
ATOM     11  C   LIG    1        1.155   3.542   0.019  0.00  0.00    +0.110 C 
BRANCH  11  15
ATOM     12  C   LIG    1        0.586   7.295  -2.064  0.00  0.00    +0.160 C 
ATOM     13  C   LIG    1       -0.311   6.139  -2.530  0.00  0.00    +0.290 C 
ATOM     14  N   LIG    1        0.279   5.319  -1.462  0.00  0.00    -0.640 N 
ATOM     15  C   LIG    1        0.498   4.005  -1.256  0.00  0.00    +0.550 C 
ATOM     16  O   LIG    1        0.167   3.196  -2.096  0.00  0.00    -0.520 OA
ATOM     17  C   LIG    1        0.518   6.563  -0.714  0.00  0.00    +0.270 C 
BRANCH  12  18
ATOM     18  O   LIG    1       -0.055   8.572  -2.068  0.00  0.00    -0.360 OA
BRANCH  18  19
ATOM     19  C   LIG    1        0.833   9.666  -2.307  0.00  0.00    +0.340 C 
BRANCH  19  21
ATOM     20  C   LIG    1       -0.534  11.932  -2.276  0.00  0.00    +0.070 C 
ATOM     21  C   LIG    1        0.072  10.927  -2.290  0.00  0.00    -0.210 C 
ENDBRANCH  19  21
ENDBRANCH  18  19
ENDBRANCH  12  18
ENDBRANCH  11  15
ENDBRANCH   1  11
BRANCH   3  22
ATOM     22  C   LIG    1        2.930  -0.332   0.034  0.00  0.00    +0.280 C 
BRANCH  22  23
ATOM     23  C   LIG    1        4.369   0.178   0.134  0.00  0.00    +0.250 C 
BRANCH  23  24
ATOM     24  O   LIG    1        5.022  -0.451   1.238  0.00  0.00    -0.320 OA
BRANCH  24  25
ATOM     25  C   LIG    1        6.314  -0.107   1.468  0.00  0.00    +0.310 A 
ATOM     26  C   LIG    1        7.002  -0.684   2.528  0.00  0.00    -0.040 A 
ATOM     27  C   LIG    1        8.319  -0.325   2.751  0.00  0.00    +0.110 A 
ATOM     28  C   LIG    1        8.905   0.605   1.903  0.00  0.00    -0.040 A 
ATOM     29  C   LIG    1        8.161   1.139   0.869  0.00  0.00    +0.310 A 
ATOM     30  N   LIG    1        6.908   0.772   0.678  0.00  0.00    -0.540 NA
ENDBRANCH  24  25
ENDBRANCH  23  24
ENDBRANCH  22  23
ENDBRANCH   3  22
TORSDOF 9
