REMARK  Name = ZINCtj00001yywq2.2
REMARK                            x       y       z     vdW  Elec       q    Type
REMARK                         _______ _______ _______ _____ _____    ______ ____
ROOT
ATOM      1  C   LIG    1       -1.535   5.066  -0.040  0.00  0.00    +0.180 C 
ATOM      2  C   LIG    1       -1.467   3.537  -0.017  0.00  0.00    +0.260 C 
ATOM      3  N   LIG    1       -0.773   3.062  -1.223  0.00  0.00    -0.370 N 
ATOM      4  C   LIG    1       -1.482   3.548  -2.411  0.00  0.00    -0.020 C 
ATOM      5  C   LIG    1       -1.631   5.069  -2.433  0.00  0.00    +0.290 C 
ATOM      6  C   LIG    1       -2.792   2.801  -2.691  0.00  0.00    +0.080 C 
ATOM      7  C   LIG    1       -2.414   2.865  -4.181  0.00  0.00    +0.070 C 
ATOM      8  C   LIG    1       -0.948   2.966  -3.726  0.00  0.00    +0.080 C 
ATOM      9  H   LIG    1        0.174   3.412  -1.229  0.00  0.00    +0.420 HD
ATOM     10  O   LIG    1       -2.239   5.495  -1.208  0.00  0.00    -0.340 OA
ENDROOT
BRANCH   1  11
ATOM     11  C   LIG    1       -2.268   5.562   1.208  0.00  0.00    +0.100 C 
BRANCH  11  15
ATOM     12  C   LIG    1       -4.268   8.724   3.387  0.00  0.00    +0.160 C 
ATOM     13  C   LIG    1       -2.987   9.139   2.651  0.00  0.00    +0.290 C 
ATOM     14  N   LIG    1       -2.814   7.730   2.265  0.00  0.00    -0.640 N 
ATOM     15  C   LIG    1       -2.228   7.068   1.248  0.00  0.00    +0.550 C 
ATOM     16  O   LIG    1       -1.668   7.683   0.366  0.00  0.00    -0.520 OA
ATOM     17  C   LIG    1       -3.568   7.364   3.473  0.00  0.00    +0.270 C 
BRANCH  12  18
ATOM     18  O   LIG    1       -4.456   9.370   4.648  0.00  0.00    -0.360 OA
BRANCH  18  19
ATOM     19  C   LIG    1       -5.826   9.550   5.011  0.00  0.00    +0.340 C 
BRANCH  19  21
ATOM     20  C   LIG    1       -5.965  10.757   7.361  0.00  0.00    +0.070 C 
ATOM     21  C   LIG    1       -5.904  10.221   6.318  0.00  0.00    -0.210 C 
ENDBRANCH  19  21
ENDBRANCH  18  19
ENDBRANCH  12  18
ENDBRANCH  11  15
ENDBRANCH   1  11
BRANCH   3  22
ATOM     22  C   LIG    1       -0.753   1.593  -1.232  0.00  0.00    +0.280 C 
BRANCH  22  23
ATOM     23  C   LIG    1        0.137   1.088  -0.093  0.00  0.00    +0.250 C 
BRANCH  23  24
ATOM     24  O   LIG    1       -0.486   1.376   1.161  0.00  0.00    -0.320 OA
BRANCH  24  25
ATOM     25  C   LIG    1        0.177   0.992   2.280  0.00  0.00    +0.300 A 
ATOM     26  C   LIG    1       -0.374   1.249   3.529  0.00  0.00    -0.040 A 
ATOM     27  C   LIG    1        0.310   0.847   4.663  0.00  0.00    +0.110 A 
ATOM     28  C   LIG    1        1.533   0.209   4.507  0.00  0.00    -0.040 A 
ATOM     29  C   LIG    1        2.023  -0.010   3.235  0.00  0.00    +0.310 A 
ATOM     30  N   LIG    1        1.345   0.380   2.172  0.00  0.00    -0.540 NA
ENDBRANCH  24  25
ENDBRANCH  23  24
ENDBRANCH  22  23
ENDBRANCH   3  22
TORSDOF 9
