REMARK  Name = ZINCrD00000s1fHW.0
REMARK                            x       y       z     vdW  Elec       q    Type
REMARK                         _______ _______ _______ _____ _____    ______ ____
ROOT
ATOM      1  C   LIG    1       -0.707   1.584   1.289  0.00  0.00    +0.330 C 
ENDROOT
BRANCH   1   2
ATOM      2  C   LIG    1        0.070   1.044   2.462  0.00  0.00    -0.130 A 
ATOM      3  C   LIG    1        1.248   1.657   2.849  0.00  0.00    +0.070 A 
ATOM      4  C   LIG    1        1.960   1.167   3.928  0.00  0.00    -0.050 A 
ATOM      5  C   LIG    1        1.497   0.055   4.615  0.00  0.00    +0.120 A 
ATOM      6  C   LIG    1        0.318  -0.561   4.221  0.00  0.00    +0.030 A 
ATOM      7  C   LIG    1       -0.393  -0.065   3.146  0.00  0.00    +0.080 A 
BRANCH   5   8
ATOM      8  O   LIG    1        2.198  -0.431   5.674  0.00  0.00    -0.310 OA
BRANCH   8   9
ATOM      9  C   LIG    1        3.403   0.253   6.023  0.00  0.00    +0.600 C 
ATOM     10  F   LIG    1        4.288   0.222   4.940  0.00  0.00    -0.160 F 
ATOM     11  F   LIG    1        3.993  -0.375   7.125  0.00  0.00    -0.130 F 
ATOM     12  F   LIG    1        3.108   1.582   6.346  0.00  0.00    -0.160 F 
ENDBRANCH   8   9
ENDBRANCH   5   8
ENDBRANCH   1   2
BRANCH   1  13
ATOM     13  N   LIG    1       -0.694   3.048   1.326  0.00  0.00    -0.710 N 
ATOM     14  H   LIG    1       -0.059   3.542   0.785  0.00  0.00    +0.410 HD
BRANCH  13  15
ATOM     15  C   LIG    1       -1.584   3.724   2.131  0.00  0.00    +0.450 A 
ATOM     16  C   LIG    1       -2.561   3.041   2.827  0.00  0.00    -0.150 A 
ATOM     17  C   LIG    1       -3.442   3.756   3.635  0.00  0.00    +0.390 A 
ATOM     18  N   LIG    1       -3.352   5.066   3.727  0.00  0.00    -0.490 NA
ATOM     19  C   LIG    1       -2.413   5.747   3.054  0.00  0.00    +0.420 A 
ATOM     20  N   LIG    1       -2.134   7.041   2.991  0.00  0.00    -0.490 NA
ATOM     21  C   LIG    1       -1.092   7.230   2.174  0.00  0.00    +0.250 A 
ATOM     22  C   LIG    1       -0.693   6.032   1.700  0.00  0.00    +0.060 A 
ATOM     23  N   LIG    1       -1.520   5.086   2.250  0.00  0.00    -0.420 N 
ENDBRANCH  13  15
ENDBRANCH   1  13
BRANCH   1  24
ATOM     24  C   LIG    1       -0.065   1.101  -0.013  0.00  0.00    +0.140 C 
BRANCH  24  25
ATOM     25  C   LIG    1       -0.917   1.527  -1.181  0.00  0.00    +0.450 C 
ATOM     26  O   LIG    1       -1.983   2.061  -0.988  0.00  0.00    -0.490 OA
BRANCH  25  28
ATOM     27  C   LIG    1       -1.363   1.750  -3.512  0.00  0.00    +0.280 C 
ATOM     28  O   LIG    1       -0.491   1.314  -2.436  0.00  0.00    -0.360 OA
ENDBRANCH  25  28
ENDBRANCH  24  25
ENDBRANCH   1  24
TORSDOF 8
