REMARK  Name = ZINCkj000005hoUT.0
REMARK                            x       y       z     vdW  Elec       q    Type
REMARK                         _______ _______ _______ _____ _____    ______ ____
ROOT
ATOM      1  C   LIG    1        3.627   5.638   0.211  0.00  0.00    +0.310 C 
ATOM      2  N   LIG    1        2.475   4.725   0.196  0.00  0.00    -0.390 N 
ATOM      3  C   LIG    1        2.604   3.758   1.293  0.00  0.00    +0.270 C 
ATOM      4  C   LIG    1        1.365   2.862   1.334  0.00  0.00    +0.050 C 
ATOM      5  C   LIG    1        1.238   2.110   0.006  0.00  0.00    +0.280 C 
ATOM      6  C   LIG    1        1.202   3.106  -1.157  0.00  0.00    +0.000 C 
ATOM      7  C   LIG    1       -0.058   3.965  -1.053  0.00  0.00    +0.020 C 
ATOM      8  C   LIG    1       -1.297   3.071  -1.144  0.00  0.00    +0.030 C 
ATOM      9  C   LIG    1       -1.290   2.075   0.013  0.00  0.00    +0.270 C 
ATOM     10  N   LIG    1       -0.016   1.344   0.009  0.00  0.00    -0.630 N 
ATOM     11  C   LIG    1        0.002  -0.004   0.002  0.00  0.00    +0.710 C 
ATOM     12  N   LIG    1       -1.150  -0.694   0.111  0.00  0.00    -0.740 N 
ATOM     13  H   LIG    1       -1.998  -0.224   0.122  0.00  0.00    +0.400 HD
ATOM     14  O   LIG    1        1.058  -0.597  -0.103  0.00  0.00    -0.580 OA
ATOM     15  C   LIG    1        2.432   4.015  -1.088  0.00  0.00    +0.270 C 
ATOM     16  H   LIG    1        1.626   5.256   0.315  0.00  0.00    +0.420 HD
ENDROOT
BRANCH  12  17
ATOM     17  C   LIG    1       -1.122  -2.155   0.213  0.00  0.00    +0.410 C 
BRANCH  17  18
ATOM     18  C   LIG    1       -2.531  -2.678   0.324  0.00  0.00    -0.010 A 
ATOM     19  N   LIG    1       -3.239  -2.790   1.411  0.00  0.00    -0.350 NA
ATOM     20  O   LIG    1       -4.336  -3.243   1.183  0.00  0.00    +0.110 OA
ATOM     21  C   LIG    1       -4.503  -3.497  -0.122  0.00  0.00    +0.170 A 
ATOM     22  C   LIG    1       -3.349  -3.139  -0.734  0.00  0.00    -0.040 A 
ENDBRANCH  17  18
ENDBRANCH  12  17
TORSDOF 2
