REMARK  Name = ZINCkj000005hoUT.1
REMARK                            x       y       z     vdW  Elec       q    Type
REMARK                         _______ _______ _______ _____ _____    ______ ____
ROOT
ATOM      1  C   LIG    1        2.180   1.664  -3.690  0.00  0.00    +0.320 C 
ATOM      2  N   LIG    1        1.463   2.038  -2.463  0.00  0.00    -0.390 N 
ATOM      3  C   LIG    1        0.096   1.504  -2.515  0.00  0.00    +0.260 C 
ATOM      4  C   LIG    1       -0.679   1.969  -1.280  0.00  0.00    +0.080 C 
ATOM      5  C   LIG    1        0.021   1.464  -0.018  0.00  0.00    +0.260 C 
ATOM      6  C   LIG    1        1.476   1.941  -0.012  0.00  0.00    -0.010 C 
ATOM      7  C   LIG    1        2.200   1.325   1.189  0.00  0.00    +0.060 C 
ATOM      8  C   LIG    1        2.194  -0.200   1.060  0.00  0.00    +0.020 C 
ATOM      9  C   LIG    1        0.747  -0.704   1.058  0.00  0.00    +0.260 C 
ATOM     10  N   LIG    1        0.003  -0.004   0.002  0.00  0.00    -0.630 N 
ATOM     11  C   LIG    1       -0.683  -0.696  -0.930  0.00  0.00    +0.710 C 
ATOM     12  N   LIG    1       -0.576  -2.038  -0.988  0.00  0.00    -0.740 N 
ATOM     13  H   LIG    1       -0.063  -2.513  -0.315  0.00  0.00    +0.400 HD
ATOM     14  O   LIG    1       -1.399  -0.109  -1.718  0.00  0.00    -0.580 OA
ATOM     15  C   LIG    1        2.166   1.486  -1.300  0.00  0.00    +0.260 C 
ATOM     16  H   LIG    1        1.428   3.043  -2.388  0.00  0.00    +0.420 HD
ENDROOT
BRANCH  12  17
ATOM     17  C   LIG    1       -1.232  -2.780  -2.067  0.00  0.00    +0.410 C 
BRANCH  17  18
ATOM     18  C   LIG    1       -0.959  -4.253  -1.903  0.00  0.00    -0.020 A 
ATOM     19  N   LIG    1        0.086  -4.904  -2.327  0.00  0.00    -0.350 NA
ATOM     20  O   LIG    1        0.023  -6.078  -2.044  0.00  0.00    +0.110 OA
ATOM     21  C   LIG    1       -1.104  -6.365  -1.377  0.00  0.00    +0.180 A 
ATOM     22  C   LIG    1       -1.783  -5.200  -1.252  0.00  0.00    -0.040 A 
ENDBRANCH  17  18
ENDBRANCH  12  17
TORSDOF 2
