REMARK  Name = ZINCtV00000L6jl8.0
REMARK                            x       y       z     vdW  Elec       q    Type
REMARK                         _______ _______ _______ _____ _____    ______ ____
ROOT
ATOM      1  O   LIG    1        3.508  -1.232  -0.319  0.00  0.00    -0.440 OA
ATOM      2  C   LIG    1        3.296  -2.412  -0.133  0.00  0.00    +0.530 C 
ATOM      3  N   LIG    1        2.035  -2.886  -0.187  0.00  0.00    -0.520 N 
ENDROOT
BRANCH   3   4
ATOM      4  C   LIG    1        0.970  -2.011  -0.356  0.00  0.00    +0.310 A 
ATOM      5  N   LIG    1        1.070  -0.723  -0.473  0.00  0.00    -0.460 NA
ATOM      6  C   LIG    1       -0.058  -0.044  -0.628  0.00  0.00    +0.140 A 
ATOM      7  C   LIG    1       -1.181  -0.785  -0.640  0.00  0.00    -0.080 A 
ATOM      8  S   LIG    1       -0.726  -2.476  -0.445  0.00  0.00    +0.090 S 
BRANCH   6   9
ATOM      9  C   LIG    1       -0.081   1.432  -0.773  0.00  0.00    -0.030 A 
ATOM     10  C   LIG    1       -1.293   2.100  -0.939  0.00  0.00    +0.020 A 
ATOM     11  C   LIG    1       -1.309   3.474  -1.069  0.00  0.00    +0.010 A 
ATOM     12  C   LIG    1       -0.124   4.187  -1.044  0.00  0.00    +0.010 A 
ATOM     13  C   LIG    1        1.083   3.529  -0.886  0.00  0.00    +0.010 A 
ATOM     14  C   LIG    1        1.110   2.156  -0.750  0.00  0.00    +0.060 A 
ENDBRANCH   6   9
ENDBRANCH   3   4
BRANCH   3  15
ATOM     15  C   LIG    1        1.789  -4.326  -0.067  0.00  0.00    +0.350 C 
BRANCH  15  16
ATOM     16  C   LIG    1        1.474  -4.663   1.368  0.00  0.00    -0.120 A 
ATOM     17  C   LIG    1        2.473  -5.123   2.205  0.00  0.00    +0.010 A 
ATOM     18  C   LIG    1        2.184  -5.429   3.522  0.00  0.00    +0.010 A 
ATOM     19  C   LIG    1        0.895  -5.284   3.999  0.00  0.00    +0.020 A 
ATOM     20  C   LIG    1       -0.105  -4.829   3.160  0.00  0.00    +0.020 A 
ATOM     21  C   LIG    1        0.184  -4.518   1.844  0.00  0.00    +0.030 A 
ENDBRANCH  15  16
ENDBRANCH   3  15
BRANCH   2  22
ATOM     22  C   LIG    1        4.441  -3.347   0.159  0.00  0.00    +0.080 C 
BRANCH  22  23
ATOM     23  S   LIG    1        5.980  -2.396   0.287  0.00  0.00    -0.020 S 
BRANCH  23  24
ATOM     24  C   LIG    1        7.186  -3.636   0.624  0.00  0.00    -0.100 A 
ATOM     25  C   LIG    1        6.804  -4.969   0.729  0.00  0.00    -0.020 A 
ATOM     26  C   LIG    1        7.752  -5.939   0.987  0.00  0.00    +0.030 A 
ATOM     27  C   LIG    1        9.079  -5.585   1.153  0.00  0.00    +0.010 A 
ATOM     28  C   LIG    1        9.461  -4.259   1.056  0.00  0.00    +0.030 A 
ATOM     29  C   LIG    1        8.520  -3.284   0.792  0.00  0.00    +0.030 A 
ENDBRANCH  23  24
ENDBRANCH  22  23
ENDBRANCH   2  22
TORSDOF 7
