REMARK  Name = ZINCpk00000KfLKO.0
REMARK                            x       y       z     vdW  Elec       q    Type
REMARK                         _______ _______ _______ _____ _____    ______ ____
ROOT
ATOM      1  C   LIG    1        2.070   0.651   0.313  0.00  0.00    +0.180 A 
ATOM      2  C   LIG    1        1.309   1.761   0.005  0.00  0.00    -0.290 A 
ATOM      3  C   LIG    1        0.008   1.303  -0.305  0.00  0.00    +0.300 A 
ATOM      4  N   LIG    1       -0.001   0.004  -0.190  0.00  0.00    -0.280 NA
ATOM      5  N   LIG    1        1.274  -0.427   0.195  0.00  0.00    -0.310 N 
ENDROOT
BRANCH   2   6
ATOM      6  C   LIG    1        1.767   3.163   0.003  0.00  0.00    +0.600 C 
ATOM      7  N   LIG    1        1.489   3.960  -1.048  0.00  0.00    -0.610 N 
ATOM      8  C   LIG    1        2.010   5.335  -1.114  0.00  0.00    +0.260 C 
ATOM      9  C   LIG    1        2.683   5.527  -2.482  0.00  0.00    +0.190 C 
ATOM     10  O   LIG    1        1.769   5.145  -3.513  0.00  0.00    -0.370 OA
ATOM     11  C   LIG    1        1.387   3.768  -3.475  0.00  0.00    +0.140 C 
ATOM     12  C   LIG    1        0.462   3.462  -4.654  0.00  0.00    +0.060 C 
ATOM     13  C   LIG    1        3.939   4.657  -2.565  0.00  0.00    +0.020 C 
ATOM     14  C   LIG    1        0.652   3.483  -2.160  0.00  0.00    +0.250 C 
ATOM     15  O   LIG    1        2.394   3.599   0.948  0.00  0.00    -0.530 OA
ENDBRANCH   2   6
BRANCH   5  16
ATOM     16  C   LIG    1        1.656  -1.755   0.419  0.00  0.00    +0.270 A 
ATOM     17  C   LIG    1        0.702  -2.704   0.783  0.00  0.00    +0.100 A 
ATOM     18  C   LIG    1        1.128  -4.006   0.989  0.00  0.00    +0.060 A 
ATOM     19  C   LIG    1        2.484  -4.283   0.831  0.00  0.00    +0.260 A 
ATOM     20  N   LIG    1        3.318  -3.316   0.488  0.00  0.00    -0.270 NA
ATOM     21  N   LIG    1        2.923  -2.110   0.292  0.00  0.00    -0.210 NA
BRANCH  19  22
ATOM     22  O   LIG    1        2.948  -5.543   1.027  0.00  0.00    -0.290 OA
ATOM     23  C   LIG    1        4.350  -5.754   0.846  0.00  0.00    +0.280 C 
ENDBRANCH  19  22
ENDBRANCH   5  16
BRANCH   1  25
ATOM     24  C   LIG    1        4.392   0.520  -0.546  0.00  0.00    +0.050 C 
ATOM     25  C   LIG    1        3.524   0.648   0.707  0.00  0.00    +0.120 C 
ENDBRANCH   1  25
TORSDOF 4
