REMARK  Name = ZINCrD000000AKrz.0
REMARK                            x       y       z     vdW  Elec       q    Type
REMARK                         _______ _______ _______ _____ _____    ______ ____
ROOT
ATOM      1  C   LIG    1        1.223  -2.188  -0.023  0.00  0.00    +0.220 C 
ATOM      2  C   LIG    1        1.133  -2.493  -1.533  0.00  0.00    +0.030 C 
ATOM      3  C   LIG    1        0.340  -3.821  -1.606  0.00  0.00    +0.010 C 
ATOM      4  C   LIG    1       -0.714  -3.652  -0.482  0.00  0.00    +0.020 C 
ATOM      5  C   LIG    1        0.049  -2.926   0.645  0.00  0.00    +0.040 C 
ENDROOT
BRANCH   1   6
ATOM      6  C   LIG    1        1.102  -0.705   0.213  0.00  0.00    -0.070 A 
ATOM      7  C   LIG    1        1.916  -0.085   1.141  0.00  0.00    +0.040 A 
ATOM      8  C   LIG    1        1.808   1.275   1.361  0.00  0.00    +0.020 A 
ATOM      9  C   LIG    1        0.880   2.022   0.650  0.00  0.00    +0.050 A 
ATOM     10  O   LIG    1        0.781   3.360   0.881  0.00  0.00    -0.310 OA
ATOM     11  C   LIG    1        0.105   4.136  -0.115  0.00  0.00    +0.220 C 
ATOM     12  C   LIG    1       -1.192   3.408  -0.493  0.00  0.00    +0.220 C 
ATOM     13  O   LIG    1       -0.849   2.114  -1.000  0.00  0.00    -0.310 OA
ATOM     14  C   LIG    1        0.063   1.399  -0.287  0.00  0.00    +0.050 A 
ATOM     15  C   LIG    1        0.177   0.034  -0.501  0.00  0.00    +0.030 A 
ENDBRANCH   1   6
BRANCH   1  18
ATOM     16  O   LIG    1        3.657  -1.395  -0.877  0.00  0.00    -0.530 OA
ATOM     17  C   LIG    1        3.659  -2.254  -0.015  0.00  0.00    +0.600 C 
ATOM     18  N   LIG    1        2.494  -2.679   0.514  0.00  0.00    -0.720 N 
ATOM     19  H   LIG    1        2.498  -3.310   1.251  0.00  0.00    +0.400 HD
BRANCH  17  20
ATOM     20  C   LIG    1        4.926  -2.827   0.447  0.00  0.00    -0.320 A 
ATOM     21  C   LIG    1        6.215  -2.488  -0.008  0.00  0.00    +0.170 A 
ATOM     22  C   LIG    1        6.680  -1.577  -0.965  0.00  0.00    +0.050 A 
ATOM     23  C   LIG    1        8.021  -1.470  -1.189  0.00  0.00    +0.080 A 
ATOM     24  C   LIG    1        8.907  -2.275  -0.460  0.00  0.00    +0.000 A 
ATOM     25  C   LIG    1        8.437  -3.149   0.459  0.00  0.00    +0.280 A 
ATOM     26  N   LIG    1        7.099  -3.261   0.690  0.00  0.00    -0.270 N 
ATOM     27  N   LIG    1        6.364  -4.070   1.567  0.00  0.00    -0.320 NA
ATOM     28  C   LIG    1        5.089  -3.816   1.432  0.00  0.00    +0.320 A 
ENDBRANCH  17  20
ENDBRANCH   1  18
TORSDOF 3
