REMARK  Name = ZINCrD00000kZM7q.0
REMARK                            x       y       z     vdW  Elec       q    Type
REMARK                         _______ _______ _______ _____ _____    ______ ____
ROOT
ATOM      1  C   LIG    1        1.425  -3.971  -0.518  0.00  0.00    +0.560 C 
ATOM      2  N   LIG    1        1.171  -2.769   0.037  0.00  0.00    -0.730 N 
ATOM      3  H   LIG    1        0.481  -2.683   0.713  0.00  0.00    +0.400 HD
ATOM      4  O   LIG    1        2.290  -4.079  -1.365  0.00  0.00    -0.500 OA
ENDROOT
BRANCH   1   8
ATOM      5  C   LIG    1       -2.134  -6.002   2.319  0.00  0.00    +0.100 C 
ATOM      6  C   LIG    1       -1.064  -6.146   1.268  0.00  0.00    -0.080 A 
ATOM      7  C   LIG    1       -0.339  -5.038   0.873  0.00  0.00    +0.040 A 
ATOM      8  C   LIG    1        0.653  -5.155  -0.097  0.00  0.00    -0.080 A 
ATOM      9  C   LIG    1        0.910  -6.414  -0.678  0.00  0.00    +0.100 A 
ATOM     10  N   LIG    1        1.782  -6.847  -1.610  0.00  0.00    -0.470 NA
ATOM     11  C   LIG    1        1.627  -8.127  -1.798  0.00  0.00    +0.490 A 
ATOM     12  N   LIG    1        0.643  -8.601  -0.991  0.00  0.00    -0.600 N 
ATOM     13  H   LIG    1        0.333  -9.518  -0.938  0.00  0.00    +0.430 HD
ATOM     14  C   LIG    1        0.166  -7.530  -0.259  0.00  0.00    +0.040 A 
ATOM     15  C   LIG    1       -0.816  -7.386   0.709  0.00  0.00    +0.050 A 
ENDBRANCH   1   8
BRANCH   2  16
ATOM     16  C   LIG    1        1.938  -1.593  -0.381  0.00  0.00    +0.290 C 
BRANCH  16  17
ATOM     17  C   LIG    1        1.455  -0.367   0.396  0.00  0.00    +0.000 C 
ATOM     18  C   LIG    1        0.002  -0.004   0.011  0.00  0.00    +0.080 C 
ATOM     19  C   LIG    1       -0.018   1.508   0.024  0.00  0.00    +0.520 C 
ATOM     20  N   LIG    1        1.237   1.988   0.001  0.00  0.00    -0.560 N 
ATOM     21  O   LIG    1       -1.022   2.189   0.047  0.00  0.00    -0.500 OA
ATOM     22  C   LIG    1        2.223   0.901  -0.039  0.00  0.00    +0.290 C 
BRANCH  20  23
ATOM     23  C   LIG    1        1.563   3.349   0.013  0.00  0.00    +0.170 A 
ATOM     24  C   LIG    1        0.560   4.305  -0.074  0.00  0.00    +0.020 A 
ATOM     25  C   LIG    1        0.884   5.648  -0.057  0.00  0.00    +0.060 A 
ATOM     26  C   LIG    1        2.207   6.040   0.037  0.00  0.00    -0.060 A 
ATOM     27  C   LIG    1        3.209   5.090   0.118  0.00  0.00    +0.060 A 
ATOM     28 CL   LIG    1        2.611   7.729   0.052  0.00  0.00    -0.070 Cl
ATOM     29  C   LIG    1        2.891   3.746   0.107  0.00  0.00    -0.010 A 
ENDBRANCH  20  23
ENDBRANCH  16  17
ENDBRANCH   2  16
TORSDOF 4
