REMARK  Name = ZINCrD00000kZM7q.1
REMARK                            x       y       z     vdW  Elec       q    Type
REMARK                         _______ _______ _______ _____ _____    ______ ____
ROOT
ATOM      1  C   LIG    1        1.118   5.509   0.871  0.00  0.00    +0.570 C 
ATOM      2  N   LIG    1        1.049   4.303   0.273  0.00  0.00    -0.720 N 
ATOM      3  H   LIG    1        0.562   4.201  -0.559  0.00  0.00    +0.400 HD
ATOM      4  O   LIG    1        1.729   5.636   1.915  0.00  0.00    -0.550 OA
ENDROOT
BRANCH   1   8
ATOM      5  C   LIG    1       -1.626   7.460  -2.807  0.00  0.00    +0.100 C 
ATOM      6  C   LIG    1       -0.872   7.627  -1.512  0.00  0.00    -0.110 A 
ATOM      7  C   LIG    1       -0.248   6.535  -0.938  0.00  0.00    +0.070 A 
ATOM      8  C   LIG    1        0.454   6.675   0.259  0.00  0.00    -0.130 A 
ATOM      9  C   LIG    1        0.518   7.930   0.879  0.00  0.00    +0.100 A 
ATOM     10  N   LIG    1        1.112   8.401   2.026  0.00  0.00    -0.590 N 
ATOM     11  H   LIG    1        1.630   7.881   2.659  0.00  0.00    +0.430 HD
ATOM     12  C   LIG    1        0.836   9.731   2.110  0.00  0.00    +0.490 A 
ATOM     13  N   LIG    1        0.117  10.103   1.091  0.00  0.00    -0.490 NA
ATOM     14  C   LIG    1       -0.114   9.035   0.285  0.00  0.00    +0.040 A 
ATOM     15  C   LIG    1       -0.811   8.868  -0.915  0.00  0.00    +0.110 A 
ENDBRANCH   1   8
BRANCH   2  16
ATOM     16  C   LIG    1        1.709   3.145   0.881  0.00  0.00    +0.290 C 
BRANCH  16  17
ATOM     17  C   LIG    1        1.478   1.909   0.009  0.00  0.00    +0.000 C 
ATOM     18  C   LIG    1       -0.016   1.509   0.002  0.00  0.00    +0.080 C 
ATOM     19  C   LIG    1        0.006  -0.004  -0.011  0.00  0.00    +0.520 C 
ATOM     20  N   LIG    1        1.223  -0.452   0.341  0.00  0.00    -0.560 N 
ATOM     21  O   LIG    1       -0.938  -0.710  -0.297  0.00  0.00    -0.500 OA
ATOM     22  C   LIG    1        2.136   0.660   0.634  0.00  0.00    +0.290 C 
BRANCH  20  23
ATOM     23  C   LIG    1        1.575  -1.804   0.419  0.00  0.00    +0.170 A 
ATOM     24  C   LIG    1        2.892  -2.167   0.672  0.00  0.00    -0.010 A 
ATOM     25  C   LIG    1        3.235  -3.502   0.753  0.00  0.00    +0.060 A 
ATOM     26  C   LIG    1        2.271  -4.478   0.573  0.00  0.00    -0.060 A 
ATOM     27  C   LIG    1        0.959  -4.120   0.316  0.00  0.00    +0.060 A 
ATOM     28 CL   LIG    1        2.707  -6.156   0.670  0.00  0.00    -0.070 Cl
ATOM     29  C   LIG    1        0.609  -2.786   0.239  0.00  0.00    +0.020 A 
ENDBRANCH  20  23
ENDBRANCH  16  17
ENDBRANCH   2  16
TORSDOF 4
