REMARK  Name = ZINCqH0000038mNc.0
REMARK                            x       y       z     vdW  Elec       q    Type
REMARK                         _______ _______ _______ _____ _____    ______ ____
ROOT
ATOM      1  C   LIG    1       -3.526  -0.994   0.512  0.00  0.00    +0.510 C 
ATOM      2  N   LIG    1       -3.615  -2.336   0.606  0.00  0.00    -0.630 N 
ATOM      3  H   LIG    1       -2.891  -2.894   0.279  0.00  0.00    +0.430 HD
ATOM      4  O   LIG    1       -4.429  -0.297   0.921  0.00  0.00    -0.440 OA
ENDROOT
BRANCH   2   5
ATOM      5  C   LIG    1       -4.739  -2.918   1.169  0.00  0.00    +0.340 A 
ATOM      6  N   LIG    1       -5.748  -2.268   1.636  0.00  0.00    -0.460 NA
ATOM      7  C   LIG    1       -6.773  -2.978   2.150  0.00  0.00    +0.120 A 
ATOM      8  C   LIG    1       -7.978  -2.506   2.712  0.00  0.00    +0.080 A 
ATOM      9  C   LIG    1       -8.918  -3.387   3.199  0.00  0.00    +0.080 A 
ATOM     10  C   LIG    1       -8.690  -4.761   3.140  0.00  0.00    +0.070 A 
ATOM     11  O   LIG    1       -9.614  -5.642   3.614  0.00  0.00    -0.300 OA
ATOM     12  C   LIG    1      -10.613  -5.116   4.494  0.00  0.00    +0.230 C 
ATOM     13  C   LIG    1      -11.157  -3.819   3.881  0.00  0.00    +0.230 C 
ATOM     14  C   LIG    1       -7.515  -5.240   2.593  0.00  0.00    +0.080 A 
ATOM     15  O   LIG    1      -10.070  -2.898   3.742  0.00  0.00    -0.300 OA
ATOM     16  C   LIG    1       -6.558  -4.358   2.099  0.00  0.00    -0.170 A 
ATOM     17  S   LIG    1       -4.987  -4.649   1.355  0.00  0.00    +0.080 S 
ENDBRANCH   2   5
BRANCH   1  18
ATOM     18  C   LIG    1       -2.303  -0.361  -0.100  0.00  0.00    +0.190 C 
ATOM     19  C   LIG    1       -2.216  -0.745  -1.579  0.00  0.00    +0.060 C 
BRANCH  18  20
ATOM     20  O   LIG    1       -2.392   1.060   0.019  0.00  0.00    -0.280 OA
BRANCH  20  26
ATOM     21  C   LIG    1       -0.042   5.313   0.482  0.00  0.00    +0.100 C 
ATOM     22  C   LIG    1       -0.038   3.826   0.237  0.00  0.00    -0.040 A 
ATOM     23  C   LIG    1        1.155   3.167   0.004  0.00  0.00    -0.030 A 
ATOM     24  C   LIG    1        1.162   1.803  -0.222  0.00  0.00    +0.050 A 
ATOM     25  C   LIG    1       -0.024   1.094  -0.213  0.00  0.00    -0.090 A 
ATOM     26  C   LIG    1       -1.223   1.754   0.016  0.00  0.00    +0.130 A 
ATOM     27  C   LIG    1       -1.227   3.122   0.247  0.00  0.00    -0.020 A 
ENDBRANCH  20  26
ENDBRANCH  18  20
ENDBRANCH   1  18
TORSDOF 4
