REMARK  Name = ZINCpk00000ebOlK.0
REMARK                            x       y       z     vdW  Elec       q    Type
REMARK                         _______ _______ _______ _____ _____    ______ ____
ROOT
ATOM      1  C   LIG    1        0.451   0.941  -4.454  0.00  0.00    +0.160 A 
ATOM      2  N   LIG    1        1.290   0.222  -3.749  0.00  0.00    -0.240 NA
ATOM      3  N   LIG    1        0.826   0.186  -2.428  0.00  0.00    -0.350 NA
ATOM      4  C   LIG    1       -0.287   0.878  -2.371  0.00  0.00    +0.410 A 
ATOM      5  N   LIG    1       -0.546   1.365  -3.619  0.00  0.00    -0.460 N 
ENDROOT
BRANCH   4   6
ATOM      6  N   LIG    1       -1.062   1.084  -1.238  0.00  0.00    -0.450 N 
ATOM      7  C   LIG    1       -0.477   0.409  -0.069  0.00  0.00    +0.200 C 
ATOM      8  C   LIG    1       -1.392   0.612   1.142  0.00  0.00    +0.240 C 
ATOM      9  O   LIG    1       -1.579   2.013   1.362  0.00  0.00    -0.380 OA
ATOM     10  C   LIG    1       -2.147   2.701   0.244  0.00  0.00    +0.250 C 
ATOM     11  C   LIG    1       -1.240   2.520  -0.975  0.00  0.00    +0.170 C 
ENDBRANCH   4   6
BRANCH   5  12
ATOM     12  C   LIG    1       -1.691   2.195  -3.999  0.00  0.00    +0.200 C 
ATOM     13  C   LIG    1       -2.031   2.293  -5.488  0.00  0.00    +0.070 C 
ATOM     14  C   LIG    1       -1.403   3.487  -4.767  0.00  0.00    +0.050 C 
ENDBRANCH   5  12
BRANCH   1  15
ATOM     15  S   LIG    1        0.583   1.297  -6.174  0.00  0.00    +0.250 S 
BRANCH  15  18
ATOM     16  O   LIG    1        1.919   1.121  -8.879  0.00  0.00    -0.510 OA
ATOM     17  C   LIG    1        2.541   0.511  -8.026  0.00  0.00    +0.510 A 
ATOM     18  C   LIG    1        2.066   0.467  -6.638  0.00  0.00    -0.010 A 
ATOM     19  N   LIG    1        2.761  -0.207  -5.745  0.00  0.00    -0.350 NA
ATOM     20  C   LIG    1        3.884  -0.838  -6.089  0.00  0.00    +0.150 A 
ATOM     21  C   LIG    1        4.352  -0.814  -7.355  0.00  0.00    +0.250 A 
ATOM     22  N   LIG    1        3.687  -0.136  -8.335  0.00  0.00    -0.450 N 
BRANCH  22  23
ATOM     23  C   LIG    1        4.204  -0.116  -9.705  0.00  0.00    +0.190 C 
ATOM     24  C   LIG    1        5.382  -1.037 -10.030  0.00  0.00    +0.060 C 
ATOM     25  C   LIG    1        5.598   0.475  -9.925  0.00  0.00    +0.050 C 
ENDBRANCH  22  23
ENDBRANCH  15  18
ENDBRANCH   1  15
TORSDOF 5
