REMARK  Name = ZINCnE000001Ty1K.0
REMARK                            x       y       z     vdW  Elec       q    Type
REMARK                         _______ _______ _______ _____ _____    ______ ____
ROOT
ATOM      1  C   LIG    1       -0.066  -0.001  -0.076  0.00  0.00    -0.240 A 
ATOM      2  C   LIG    1       -1.201  -0.757   0.000  0.00  0.00    +0.080 A 
ATOM      3  C   LIG    1       -0.999  -2.106  -0.106  0.00  0.00    +0.020 A 
ATOM      4  C   LIG    1        0.304  -2.477  -0.271  0.00  0.00    -0.150 A 
ATOM      5  S   LIG    1        1.329  -1.049  -0.300  0.00  0.00    +0.190 S 
ENDROOT
BRANCH   1  11
ATOM      6  C   LIG    1        2.079   3.144   3.116  0.00  0.00    -0.100 C 
ATOM      7  C   LIG    1        1.910   1.630   2.963  0.00  0.00    +0.030 C 
ATOM      8  C   LIG    1        1.934   1.266   1.475  0.00  0.00    +0.240 C 
ATOM      9  N   LIG    1        0.914   2.060   0.777  0.00  0.00    -0.590 N 
ATOM     10  C   LIG    1        0.934   3.522   0.925  0.00  0.00    +0.270 C 
ATOM     11  C   LIG    1       -0.018   1.460   0.010  0.00  0.00    +0.590 C 
ATOM     12  O   LIG    1       -0.817   2.133  -0.615  0.00  0.00    -0.530 OA
ATOM     13  C   LIG    1        0.918   3.861   2.424  0.00  0.00    +0.030 C 
BRANCH   6  15
ATOM     14  O   LIG    1        2.861   4.351   4.994  0.00  0.00    -0.700 OA
ATOM     15  C   LIG    1        2.089   3.502   4.579  0.00  0.00    +0.500 C 
ATOM     16  O   LIG    1        1.327   2.944   5.349  0.00  0.00    -0.700 OA
ENDBRANCH   6  15
ENDBRANCH   1  11
BRANCH   4  17
ATOM     17  C   LIG    1        0.781  -3.869  -0.411  0.00  0.00    -0.020 A 
ATOM     18  C   LIG    1       -0.128  -4.928  -0.374  0.00  0.00    +0.070 A 
ATOM     19  C   LIG    1        0.322  -6.224  -0.510  0.00  0.00    -0.010 A 
ATOM     20  C   LIG    1        1.675  -6.478  -0.672  0.00  0.00    +0.100 A 
ATOM     21  C   LIG    1        2.582  -5.431  -0.706  0.00  0.00    +0.000 A 
ATOM     22  F   LIG    1        2.111  -7.750  -0.799  0.00  0.00    -0.140 F 
ATOM     23  C   LIG    1        2.142  -4.130  -0.576  0.00  0.00    +0.050 A 
ENDBRANCH   4  17
TORSDOF 3
