REMARK  Name = ZINCkj000005jka7.1
REMARK                            x       y       z     vdW  Elec       q    Type
REMARK                         _______ _______ _______ _____ _____    ______ ____
ROOT
ATOM      1  C   LIG    1       -4.319   1.773   0.182  0.00  0.00    +0.070 C 
ATOM      2  C   LIG    1       -2.837   2.146   0.124  0.00  0.00    +0.130 C 
ATOM      3  C   LIG    1       -2.208   1.548  -1.141  0.00  0.00    +0.290 C 
ATOM      4  N   LIG    1       -0.753   1.760  -1.080  0.00  0.00    -0.630 N 
ATOM      5  C   LIG    1       -0.046   1.358   0.147  0.00  0.00    +0.240 C 
ATOM      6  C   LIG    1       -0.779   1.965   1.349  0.00  0.00    +0.210 C 
ATOM      7  C   LIG    1       -0.087   2.305  -2.117  0.00  0.00    +0.710 C 
ATOM      8  N   LIG    1        1.226   2.583  -2.003  0.00  0.00    -0.760 N 
ATOM      9  H   LIG    1        1.709   2.326  -1.202  0.00  0.00    +0.390 HD
ATOM     10  O   LIG    1       -0.672   2.546  -3.155  0.00  0.00    -0.560 OA
ATOM     11  O   LIG    1       -2.167   1.625   1.274  0.00  0.00    -0.370 OA
ENDROOT
BRANCH   8  12
ATOM     12  C   LIG    1        1.926   3.274  -3.089  0.00  0.00    +0.330 C 
BRANCH  12  13
ATOM     13  C   LIG    1        3.418   3.356  -2.764  0.00  0.00    +0.300 C 
BRANCH  13  14
ATOM     14  C   LIG    1        4.004   1.968  -2.739  0.00  0.00    -0.110 A 
ATOM     15  C   LIG    1        4.699   1.390  -3.735  0.00  0.00    +0.030 A 
ATOM     16  C   LIG    1        5.057   0.097  -3.288  0.00  0.00    -0.050 A 
ATOM     17  C   LIG    1        4.552  -0.040  -2.049  0.00  0.00    +0.230 A 
ATOM     18  O   LIG    1        3.915   1.096  -1.722  0.00  0.00    -0.190 OA
ENDBRANCH  13  14
BRANCH  13  19
ATOM     19  N   LIG    1        3.599   3.988  -1.450  0.00  0.00    -0.390 N 
ATOM     20  C   LIG    1        2.937   5.299  -1.441  0.00  0.00    +0.330 C 
ATOM     21  C   LIG    1        5.033   4.162  -1.184  0.00  0.00    +0.330 C 
ATOM     22  H   LIG    1        3.193   3.401  -0.736  0.00  0.00    +0.420 HD
ENDBRANCH  13  19
ENDBRANCH  12  13
ENDBRANCH   8  12
TORSDOF 4
