REMARK  Name = ZINCpk00000ySgaw.0
REMARK                            x       y       z     vdW  Elec       q    Type
REMARK                         _______ _______ _______ _____ _____    ______ ____
ROOT
ATOM      1  C   LIG    1        3.655   3.355  -3.824  0.00  0.00    -0.020 A 
ATOM      2  C   LIG    1        3.990   3.152  -5.119  0.00  0.00    +0.150 A 
ATOM      3  N   LIG    1        4.979   4.033  -5.396  0.00  0.00    -0.280 N 
ATOM      4  N   LIG    1        5.224   4.712  -4.330  0.00  0.00    -0.080 NA
ATOM      5  N   LIG    1        4.452   4.332  -3.374  0.00  0.00    -0.260 NA
ENDROOT
BRANCH   3   6
ATOM      6  C   LIG    1        5.659   4.184  -6.684  0.00  0.00    +0.320 C 
ATOM      7  C   LIG    1        4.824   5.073  -7.630  0.00  0.00    +0.060 C 
ATOM      8  C   LIG    1        3.979   4.036  -8.400  0.00  0.00    +0.090 C 
ATOM      9  C   LIG    1        4.794   2.761  -8.370  0.00  0.00    -0.110 A 
ATOM     10  C   LIG    1        4.699   1.615  -9.146  0.00  0.00    +0.110 A 
ATOM     11  C   LIG    1        5.566   0.558  -8.934  0.00  0.00    +0.010 A 
ATOM     12  C   LIG    1        6.531   0.645  -7.948  0.00  0.00    +0.050 A 
ATOM     13  C   LIG    1        6.627   1.786  -7.176  0.00  0.00    +0.040 A 
ATOM     14  F   LIG    1        3.755   1.530 -10.109  0.00  0.00    -0.130 F 
ATOM     15  C   LIG    1        5.760   2.846  -7.385  0.00  0.00    -0.100 A 
ENDBRANCH   3   6
BRANCH   1  16
ATOM     16  C   LIG    1        2.597   2.622  -3.040  0.00  0.00    +0.110 C 
BRANCH  16  17
ATOM     17  C   LIG    1        3.221   2.022  -1.778  0.00  0.00    +0.320 C 
BRANCH  17  22
ATOM     18  O   LIG    1       -0.852  -0.625   0.597  0.00  0.00    -0.500 OA
ATOM     19  C   LIG    1        0.002  -0.004   0.002  0.00  0.00    +0.520 C 
ATOM     20  C   LIG    1       -0.018   1.504   0.010  0.00  0.00    +0.090 C 
ATOM     21  C   LIG    1        1.420   2.026  -0.001  0.00  0.00    +0.300 C 
ATOM     22  N   LIG    1        2.193   1.309  -1.016  0.00  0.00    -0.620 N 
ATOM     23  C   LIG    1        1.974   0.007  -1.259  0.00  0.00    +0.710 C 
ATOM     24  O   LIG    1        2.701  -0.583  -2.033  0.00  0.00    -0.550 OA
ATOM     25  N   LIG    1        0.969  -0.659  -0.667  0.00  0.00    -0.680 N 
ATOM     26  H   LIG    1        0.939  -1.627  -0.722  0.00  0.00    +0.430 HD
ENDBRANCH  17  22
ENDBRANCH  16  17
ENDBRANCH   1  16
TORSDOF 4
