REMARK  Name = ZINCvU0000000ABZ.0
REMARK                            x       y       z     vdW  Elec       q    Type
REMARK                         _______ _______ _______ _____ _____    ______ ____
ROOT
ATOM      1  C   LIG    1        8.790   2.193   0.388  0.00  0.00    +0.150 A 
ATOM      2  N   LIG    1        8.705   3.504   0.389  0.00  0.00    -0.280 NA
ATOM      3  N   LIG    1        9.877   4.024   0.484  0.00  0.00    -0.260 NA
ATOM      4  C   LIG    1       10.784   3.077   0.550  0.00  0.00    +0.240 A 
ATOM      5  N   LIG    1       10.117   1.873   0.496  0.00  0.00    -0.410 N 
ENDROOT
BRANCH   4   6
ATOM      6  C   LIG    1       12.245   3.267   0.666  0.00  0.00    -0.030 A 
ATOM      7  C   LIG    1       13.112   2.201   0.421  0.00  0.00    +0.060 A 
ATOM      8  C   LIG    1       14.475   2.385   0.527  0.00  0.00    -0.010 A 
ATOM      9  C   LIG    1       14.983   3.623   0.886  0.00  0.00    +0.120 A 
ATOM     10  C   LIG    1       14.127   4.684   1.136  0.00  0.00    +0.000 A 
ATOM     11  F   LIG    1       16.319   3.796   0.994  0.00  0.00    -0.130 F 
ATOM     12  C   LIG    1       12.763   4.512   1.028  0.00  0.00    +0.110 A 
ENDBRANCH   4   6
BRANCH   5  13
ATOM     13  C   LIG    1       10.678   0.590   0.539  0.00  0.00    +0.090 A 
ATOM     14  C   LIG    1       11.336   0.156   1.683  0.00  0.00    +0.030 A 
ATOM     15  C   LIG    1       11.884  -1.111   1.724  0.00  0.00    +0.040 A 
ATOM     16  C   LIG    1       11.787  -1.944   0.625  0.00  0.00    +0.040 A 
ATOM     17  C   LIG    1       11.137  -1.513  -0.517  0.00  0.00    +0.040 A 
ATOM     18  C   LIG    1       10.583  -0.249  -0.563  0.00  0.00    +0.030 A 
ENDBRANCH   5  13
BRANCH   1  19
ATOM     19  S   LIG    1        7.447   1.058   0.276  0.00  0.00    +0.100 S 
BRANCH  19  20
ATOM     20  C   LIG    1        6.062   2.219   0.174  0.00  0.00    +0.100 C 
BRANCH  20  23
ATOM     21  N   LIG    1        3.599   2.112  -0.021  0.00  0.00    -0.660 N 
ATOM     22  H   LIG    1        3.592   3.079  -0.097  0.00  0.00    +0.420 HD
ATOM     23  C   LIG    1        4.770   1.451   0.068  0.00  0.00    +0.540 C 
ATOM     24  O   LIG    1        4.784   0.238   0.062  0.00  0.00    -0.500 OA
BRANCH  21  30
ATOM     25  C   LIG    1        1.248   1.950  -0.588  0.00  0.00    -0.110 A 
ATOM     26  C   LIG    1        0.055   1.242  -0.566  0.00  0.00    +0.020 A 
ATOM     27  C   LIG    1        0.001  -0.001   0.036  0.00  0.00    +0.010 A 
ATOM     28  C   LIG    1        1.132  -0.543   0.616  0.00  0.00    +0.030 A 
ATOM     29  C   LIG    1        2.326   0.156   0.599  0.00  0.00    +0.040 A 
ATOM     30  C   LIG    1        2.390   1.403  -0.002  0.00  0.00    +0.170 A 
BRANCH  25  32
ATOM     31  C   LIG    1       -0.376   3.782  -1.944  0.00  0.00    +0.150 C 
ATOM     32  S   LIG    1        1.321   3.535  -1.354  0.00  0.00    -0.130 S 
ENDBRANCH  25  32
ENDBRANCH  21  30
ENDBRANCH  20  23
ENDBRANCH  19  20
ENDBRANCH   1  19
TORSDOF 7
