REMARK  Name = ZINC650000002utN.0
REMARK                            x       y       z     vdW  Elec       q    Type
REMARK                         _______ _______ _______ _____ _____    ______ ____
ROOT
ATOM      1  S   LIG    1       -0.017   1.417   0.010  0.00  0.00    +2.690 S 
ATOM      2  O   LIG    1        1.162   2.210   0.003  0.00  0.00    -0.970 OA
ATOM      3  O   LIG    1        0.002  -0.004   0.002  0.00  0.00    -0.970 OA
ENDROOT
BRANCH   1   4
ATOM      4  N   LIG    1       -0.875   1.865   1.354  0.00  0.00    -1.250 NA
ATOM      5  H   LIG    1       -1.730   2.313   1.256  0.00  0.00    +0.420 HD
ATOM      6  H   LIG    1       -0.522   1.680   2.238  0.00  0.00    +0.420 HD
ENDBRANCH   1   4
BRANCH   1   8
ATOM      7  C   LIG    1       -0.490   2.826  -2.208  0.00  0.00    +0.240 C 
ATOM      8  C   LIG    1       -0.957   1.909  -1.397  0.00  0.00    -0.580 C 
ENDBRANCH   1   8
TORSDOF 2
