REMARK  Name = ZINCrD000006UPZA.0
REMARK                            x       y       z     vdW  Elec       q    Type
REMARK                         _______ _______ _______ _____ _____    ______ ____
ROOT
ATOM      1  N   LIG    1        0.364  -1.072  -1.250  0.00  0.00    -1.090 NA
ATOM      2  H   LIG    1        1.151  -0.908  -1.792  0.00  0.00    +0.430 HD
ENDROOT
BRANCH   1   3
ATOM      3  S   LIG    1       -0.521  -2.454  -1.470  0.00  0.00    +2.690 S 
ATOM      4  O   LIG    1       -0.707  -3.022  -0.181  0.00  0.00    -0.940 OA
ATOM      5  O   LIG    1        0.089  -3.153  -2.547  0.00  0.00    -0.940 OA
BRANCH   3   6
ATOM      6  C   LIG    1       -2.117  -1.966  -2.035  0.00  0.00    -0.680 A 
ATOM      7  C   LIG    1       -3.117  -1.688  -1.123  0.00  0.00    +0.160 A 
ATOM      8  C   LIG    1       -4.369  -1.301  -1.566  0.00  0.00    +0.020 A 
ATOM      9  C   LIG    1       -4.622  -1.202  -2.921  0.00  0.00    +0.140 A 
ATOM     10  C   LIG    1       -3.623  -1.485  -3.833  0.00  0.00    -0.200 A 
ATOM     11  C   LIG    1       -2.370  -1.867  -3.391  0.00  0.00    +0.190 A 
BRANCH  10  12
ATOM     12  C   LIG    1       -3.899  -1.377  -5.311  0.00  0.00    +0.510 C 
ATOM     13  F   LIG    1       -2.721  -1.029  -5.981  0.00  0.00    -0.170 F 
ATOM     14  F   LIG    1       -4.869  -0.394  -5.533  0.00  0.00    -0.170 F 
ATOM     15  F   LIG    1       -4.362  -2.607  -5.790  0.00  0.00    -0.170 F 
ENDBRANCH  10  12
ENDBRANCH   3   6
ENDBRANCH   1   3
BRANCH   1  16
ATOM     16  C   LIG    1       -0.041  -0.097  -0.234  0.00  0.00    +0.240 C 
BRANCH  16  17
ATOM     17  C   LIG    1        0.742  -0.335   1.032  0.00  0.00    +0.500 C 
ATOM     18  N   LIG    1        0.274   0.123   2.209  0.00  0.00    -0.730 N 
ATOM     19  H   LIG    1       -0.601   0.541   2.255  0.00  0.00    +0.400 HD
ATOM     20  O   LIG    1        1.793  -0.938   0.990  0.00  0.00    -0.520 OA
BRANCH  18  21
ATOM     21  C   LIG    1        1.086  -0.009   3.422  0.00  0.00    +0.360 C 
BRANCH  21  22
ATOM     22  C   LIG    1        0.340   0.577   4.593  0.00  0.00    -0.210 A 
ATOM     23  C   LIG    1       -0.494  -0.095   5.388  0.00  0.00    +0.030 A 
ATOM     24  C   LIG    1       -1.065   0.655   6.401  0.00  0.00    +0.000 A 
ATOM     25  C   LIG    1       -0.695   1.936   6.429  0.00  0.00    -0.030 A 
ATOM     26  S   LIG    1        0.442   2.251   5.124  0.00  0.00    +0.120 S 
ENDBRANCH  21  22
ENDBRANCH  18  21
ENDBRANCH  16  17
BRANCH  16  28
ATOM     27  C   LIG    1        1.705   1.435  -1.155  0.00  0.00    +0.030 C 
ATOM     28  C   LIG    1        0.235   1.318  -0.746  0.00  0.00    +0.000 C 
ATOM     29  C   LIG    1       -0.655   1.605  -1.958  0.00  0.00    +0.040 C 
ENDBRANCH  16  28
ENDBRANCH   1  16
TORSDOF 8
