REMARK  Name = ZINCkj000005bNTY.0
REMARK                            x       y       z     vdW  Elec       q    Type
REMARK                         _______ _______ _______ _____ _____    ______ ____
ROOT
ATOM      1  C   LIG    1       -4.049   0.767   0.609  0.00  0.00    +0.230 C 
ATOM      2  C   LIG    1       -3.789   1.758  -0.530  0.00  0.00    +0.020 C 
ATOM      3  C   LIG    1       -3.023   2.965   0.014  0.00  0.00    +0.030 C 
ATOM      4  C   LIG    1       -1.674   2.507   0.572  0.00  0.00    +0.020 C 
ATOM      5  C   LIG    1       -1.912   1.524   1.729  0.00  0.00    +0.280 C 
ATOM      6  N   LIG    1       -2.768   0.432   1.245  0.00  0.00    -0.600 N 
ATOM      7  C   LIG    1       -2.387  -0.853   1.388  0.00  0.00    +0.590 C 
ATOM      8  O   LIG    1       -3.164  -1.750   1.123  0.00  0.00    -0.530 OA
ENDROOT
BRANCH   7   9
ATOM      9  C   LIG    1       -1.028  -1.171   1.866  0.00  0.00    -0.260 A 
ATOM     10  C   LIG    1       -0.341  -2.252   1.329  0.00  0.00    +0.250 A 
ATOM     11  C   LIG    1        0.954  -2.513   1.812  0.00  0.00    -0.280 A 
ATOM     12  C   LIG    1        1.927  -3.461   1.536  0.00  0.00    +0.340 A 
ATOM     13  N   LIG    1        2.978  -3.207   2.324  0.00  0.00    -0.400 N 
ATOM     14  H   LIG    1        3.801  -3.720   2.335  0.00  0.00    +0.460 HD
ATOM     15  N   LIG    1        2.716  -2.092   3.128  0.00  0.00    -0.280 NA
ATOM     16  C   LIG    1        1.508  -1.637   2.857  0.00  0.00    +0.280 A 
ATOM     17  N   LIG    1        0.768  -0.616   3.322  0.00  0.00    -0.460 NA
ATOM     18  C   LIG    1       -0.433  -0.381   2.868  0.00  0.00    +0.380 A 
ENDBRANCH   7   9
BRANCH   1  20
ATOM     19  C   LIG    1       -3.951  -0.930  -1.222  0.00  0.00    +0.080 C 
ATOM     20  C   LIG    1       -4.690  -0.504   0.047  0.00  0.00    +0.190 C 
BRANCH  20  21
ATOM     21  N   LIG    1       -6.100  -0.241  -0.272  0.00  0.00    -0.640 N 
ATOM     22  H   LIG    1       -6.160   0.534  -0.915  0.00  0.00    +0.420 HD
ATOM     23  H   LIG    1       -6.600  -0.015   0.575  0.00  0.00    +0.430 HD
ATOM     24  H   LIG    1       -6.508  -1.061  -0.694  0.00  0.00    +0.440 HD
ENDBRANCH  20  21
ENDBRANCH   1  20
TORSDOF 3
