REMARK  Name = ZINCrH000004r3PM.0
REMARK                            x       y       z     vdW  Elec       q    Type
REMARK                         _______ _______ _______ _____ _____    ______ ____
ROOT
ATOM      1  C   LIG    1       -0.995   2.482  -0.199  0.00  0.00    +0.570 C 
ATOM      2  N   LIG    1       -0.908   3.767   0.200  0.00  0.00    -0.600 N 
ATOM      3  C   LIG    1        0.312   4.269   0.846  0.00  0.00    +0.260 C 
ATOM      4  C   LIG    1        0.792   5.514   0.084  0.00  0.00    +0.040 C 
ATOM      5  C   LIG    1       -0.348   6.533   0.015  0.00  0.00    +0.040 C 
ATOM      6  C   LIG    1       -1.530   5.929  -0.745  0.00  0.00    +0.090 C 
ATOM      7  C   LIG    1       -2.034   4.690   0.002  0.00  0.00    +0.290 C 
ATOM      8  O   LIG    1       -2.037   2.059  -0.661  0.00  0.00    -0.520 OA
ENDROOT
BRANCH   6   9
ATOM      9  C   LIG    1       -2.640   6.944  -0.840  0.00  0.00    +0.290 A 
ATOM     10  N   LIG    1       -2.837   7.741  -1.850  0.00  0.00    -0.480 NA
ATOM     11  C   LIG    1       -3.919   8.525  -1.608  0.00  0.00    +0.050 A 
ATOM     12  C   LIG    1       -4.562   9.530  -2.335  0.00  0.00    +0.070 A 
ATOM     13  C   LIG    1       -5.660  10.152  -1.812  0.00  0.00    +0.000 A 
ATOM     14  C   LIG    1       -6.147   9.796  -0.562  0.00  0.00    +0.030 A 
ATOM     15  C   LIG    1       -5.528   8.808   0.173  0.00  0.00    +0.010 A 
ATOM     16  C   LIG    1       -4.411   8.164  -0.342  0.00  0.00    +0.050 A 
ATOM     17  N   LIG    1       -3.584   7.158   0.116  0.00  0.00    -0.600 N 
ATOM     18  H   LIG    1       -3.661   6.692   0.963  0.00  0.00    +0.420 HD
ENDBRANCH   6   9
BRANCH   1  23
ATOM     19  C   LIG    1        3.574  -0.984   0.278  0.00  0.00    +0.130 C 
ATOM     20  C   LIG    1        2.376  -0.077   0.154  0.00  0.00    +0.000 A 
ATOM     21  C   LIG    1        2.070   0.802   1.177  0.00  0.00    +0.040 A 
ATOM     22  C   LIG    1        0.975   1.635   1.069  0.00  0.00    +0.110 A 
ATOM     23  C   LIG    1        0.176   1.589  -0.074  0.00  0.00    -0.130 A 
ATOM     24  C   LIG    1        0.491   0.698  -1.102  0.00  0.00    +0.160 A 
ATOM     25  C   LIG    1        1.588  -0.129  -0.982  0.00  0.00    -0.040 A 
BRANCH  25  26
ATOM     26  N   LIG    1        1.923  -1.074  -2.071  0.00  0.00    +0.020 N 
ATOM     27  O   LIG    1        1.034  -1.624  -2.695  0.00  0.00    -0.150 OA
ATOM     28  O   LIG    1        3.088  -1.301  -2.343  0.00  0.00    -0.140 OA
ENDBRANCH  25  26
ENDBRANCH   1  23
TORSDOF 3
