REMARK  Name = ZINCpe000000Uz5x.0
REMARK                            x       y       z     vdW  Elec       q    Type
REMARK                         _______ _______ _______ _____ _____    ______ ____
ROOT
ATOM      1  C   LIG    1       -3.176   7.904  -1.614  0.00  0.00    +0.300 C 
ATOM      2  N   LIG    1       -2.550   7.798  -0.294  0.00  0.00    -0.600 N 
ATOM      3  C   LIG    1       -3.248   8.122   0.812  0.00  0.00    +0.530 C 
ATOM      4  O   LIG    1       -2.704   8.118   1.895  0.00  0.00    -0.520 OA
ENDROOT
BRANCH   3   5
ATOM      5  C   LIG    1       -4.706   8.489   0.702  0.00  0.00    +0.010 C 
ATOM      6  C   LIG    1       -4.876   9.998   0.410  0.00  0.00    +0.090 C 
ATOM      7  C   LIG    1       -5.041  10.623   1.778  0.00  0.00    +0.520 C 
ATOM      8  N   LIG    1       -5.337   9.677   2.686  0.00  0.00    -0.520 N 
ATOM      9  O   LIG    1       -4.923  11.806   2.020  0.00  0.00    -0.520 OA
ATOM     10  C   LIG    1       -5.416   8.349   2.066  0.00  0.00    +0.310 C 
BRANCH   8  11
ATOM     11  C   LIG    1       -5.545   9.928   4.055  0.00  0.00    +0.010 A 
ATOM     12  C   LIG    1       -5.481  11.140   4.665  0.00  0.00    +0.230 A 
ATOM     13  N   LIG    1       -5.743  10.949   5.984  0.00  0.00    -0.470 N 
ATOM     14  H   LIG    1       -5.766  11.638   6.666  0.00  0.00    +0.450 HD
ATOM     15  N   LIG    1       -5.973   9.582   6.184  0.00  0.00    -0.280 NA
ATOM     16  C   LIG    1       -5.862   8.973   5.032  0.00  0.00    +0.230 A 
ENDBRANCH   8  11
ENDBRANCH   3   5
BRANCH   2  17
ATOM     17  C   LIG    1       -1.163   7.339  -0.177  0.00  0.00    +0.340 C 
BRANCH  17  18
ATOM     18  C   LIG    1       -1.141   5.840  -0.030  0.00  0.00    +0.500 C 
ATOM     19  N   LIG    1        0.035   5.192   0.095  0.00  0.00    -0.670 N 
ATOM     20  H   LIG    1        0.861   5.696   0.165  0.00  0.00    +0.410 HD
ATOM     21  O   LIG    1       -2.180   5.215  -0.024  0.00  0.00    -0.510 OA
BRANCH  19  22
ATOM     22  C   LIG    1        0.064   3.794   0.124  0.00  0.00    +0.140 A 
ATOM     23  C   LIG    1       -0.858   3.063  -0.615  0.00  0.00    +0.010 A 
ATOM     24  C   LIG    1       -0.826   1.683  -0.585  0.00  0.00    +0.030 A 
ATOM     25  C   LIG    1        0.121   1.028   0.180  0.00  0.00    -0.010 A 
ATOM     26  C   LIG    1        1.037   1.752   0.921  0.00  0.00    +0.030 A 
ATOM     27  C   LIG    1        1.014   3.133   0.891  0.00  0.00    -0.020 A 
ENDBRANCH  19  22
ENDBRANCH  17  18
ENDBRANCH   2  17
TORSDOF 5
