REMARK  Name = ZINCrD00000l1A5M.0
REMARK                            x       y       z     vdW  Elec       q    Type
REMARK                         _______ _______ _______ _____ _____    ______ ____
ROOT
ATOM      1  C   LIG    1        0.002  -0.004   0.002  0.00  0.00    +0.270 C 
ATOM      2  N   LIG    1       -0.018   1.461   0.010  0.00  0.00    -0.630 N 
ATOM      3  C   LIG    1       -1.194   2.119   0.019  0.00  0.00    +0.690 C 
ATOM      4  N   LIG    1       -2.352   1.429   0.021  0.00  0.00    -0.750 N 
ATOM      5  H   LIG    1       -2.339   0.459   0.016  0.00  0.00    +0.390 HD
ATOM      6  O   LIG    1       -1.210   3.334   0.026  0.00  0.00    -0.530 OA
ENDROOT
BRANCH   4   7
ATOM      7  C   LIG    1       -3.631   2.144   0.031  0.00  0.00    +0.290 C 
BRANCH   7   8
ATOM      8  C   LIG    1       -4.780   1.134   0.031  0.00  0.00    +0.160 C 
BRANCH   8   9
ATOM      9  N   LIG    1       -6.062   1.851   0.041  0.00  0.00    -0.490 NA
ATOM     10  C   LIG    1       -6.374   2.368   1.402  0.00  0.00    +0.220 C 
ATOM     11  C   LIG    1       -7.886   2.466   1.422  0.00  0.00    -0.100 A 
ATOM     12  C   LIG    1       -8.755   3.221   2.182  0.00  0.00    +0.020 A 
ATOM     13  C   LIG    1      -10.120   3.108   1.986  0.00  0.00    +0.010 A 
ATOM     14  C   LIG    1      -10.612   2.242   1.028  0.00  0.00    +0.010 A 
ATOM     15  C   LIG    1       -9.740   1.486   0.265  0.00  0.00    +0.020 A 
ATOM     16  C   LIG    1       -8.380   1.597   0.461  0.00  0.00    -0.100 A 
ATOM     17  C   LIG    1       -7.197   0.918  -0.200  0.00  0.00    +0.220 C 
ENDBRANCH   8   9
ENDBRANCH   7   8
ENDBRANCH   4   7
BRANCH   2  18
ATOM     18  C   LIG    1        1.241   2.211   0.002  0.00  0.00    +0.360 C 
BRANCH  18  19
ATOM     19  C   LIG    1        1.659   2.475  -1.421  0.00  0.00    -0.080 A 
ATOM     20  C   LIG    1        2.607   1.698  -2.010  0.00  0.00    +0.030 A 
ATOM     21  C   LIG    1        3.008   1.924  -3.326  0.00  0.00    +0.010 A 
ATOM     22  C   LIG    1        2.460   2.932  -4.059  0.00  0.00    +0.040 A 
ATOM     23  C   LIG    1        1.479   3.755  -3.483  0.00  0.00    -0.110 A 
ATOM     24  C   LIG    1        0.887   4.807  -4.207  0.00  0.00    +0.070 A 
ATOM     25  C   LIG    1       -0.073   5.556  -3.588  0.00  0.00    -0.040 A 
ATOM     26  C   LIG    1       -0.429   5.277  -2.270  0.00  0.00    +0.290 A 
ATOM     27  N   LIG    1        0.128   4.299  -1.597  0.00  0.00    -0.410 NA
ATOM     28  C   LIG    1        1.066   3.523  -2.148  0.00  0.00    +0.130 A 
ENDBRANCH  18  19
ENDBRANCH   2  18
TORSDOF 5
