REMARK  Name = ZINCrH000004ogI6.0
REMARK                            x       y       z     vdW  Elec       q    Type
REMARK                         _______ _______ _______ _____ _____    ______ ____
ROOT
ATOM      1  N   LIG    1       -2.698   2.064   2.378  0.00  0.00    -0.740 N 
ATOM      2  H   LIG    1       -2.715   1.256   1.840  0.00  0.00    +0.400 HD
ATOM      3  C   LIG    1       -1.953   3.117   1.988  0.00  0.00    +0.710 C 
ATOM      4  N   LIG    1       -1.315   3.089   0.801  0.00  0.00    -0.620 N 
ATOM      5  C   LIG    1       -1.366   1.865   0.015  0.00  0.00    +0.340 C 
ATOM      6  C   LIG    1       -0.023   1.209  -0.001  0.00  0.00    +0.510 C 
ATOM      7  N   LIG    1        1.133   1.807  -0.010  0.00  0.00    -0.650 N 
ATOM      8  H   LIG    1        1.837   1.216  -0.319  0.00  0.00    +0.400 HD
ATOM      9  C   LIG    1        1.619   3.054   0.304  0.00  0.00    +0.180 A 
ATOM     10  C   LIG    1        3.017   3.138   0.418  0.00  0.00    -0.030 A 
ATOM     11  C   LIG    1        3.641   4.321   0.730  0.00  0.00    +0.050 A 
ATOM     12  C   LIG    1        2.885   5.461   0.934  0.00  0.00    -0.010 A 
ATOM     13  C   LIG    1        1.515   5.393   0.814  0.00  0.00    +0.050 A 
ATOM     14  C   LIG    1        0.873   4.199   0.494  0.00  0.00    -0.130 A 
ATOM     15  O   LIG    1       -0.009  -0.004  -0.010  0.00  0.00    -0.530 OA
ATOM     16  C   LIG    1       -0.618   4.272   0.372  0.00  0.00    +0.360 C 
ATOM     17  O   LIG    1       -1.856   4.092   2.707  0.00  0.00    -0.570 OA
ENDROOT
BRANCH   1  19
ATOM     18  C   LIG    1       -2.595   1.764   4.803  0.00  0.00    +0.040 C 
ATOM     19  C   LIG    1       -3.482   2.138   3.613  0.00  0.00    +0.300 C 
BRANCH  19  20
ATOM     20  C   LIG    1       -4.642   1.180   3.531  0.00  0.00    -0.100 A 
ATOM     21  C   LIG    1       -4.472  -0.067   2.960  0.00  0.00    +0.000 A 
ATOM     22  C   LIG    1       -5.539  -0.940   2.889  0.00  0.00    +0.010 A 
ATOM     23  C   LIG    1       -6.785  -0.571   3.378  0.00  0.00    -0.070 A 
ATOM     24  C   LIG    1       -7.910  -1.565   3.252  0.00  0.00    +0.070 C 
ATOM     25  C   LIG    1       -9.053  -1.205   4.199  0.00  0.00    +0.020 C 
ATOM     26  C   LIG    1       -9.415   0.269   3.982  0.00  0.00    +0.020 C 
ATOM     27  C   LIG    1       -8.272   1.131   4.514  0.00  0.00    +0.080 C 
ATOM     28  C   LIG    1       -6.954   0.671   3.948  0.00  0.00    -0.070 A 
ATOM     29  C   LIG    1       -5.879   1.547   4.020  0.00  0.00    +0.010 A 
ENDBRANCH  19  20
ENDBRANCH   1  19
TORSDOF 2
