REMARK  Name = ZINCpk00000jUrEw.2
REMARK                            x       y       z     vdW  Elec       q    Type
REMARK                         _______ _______ _______ _____ _____    ______ ____
ROOT
ATOM      1  C   LIG    1       -4.737   4.393   3.209  0.00  0.00    +0.200 C 
ATOM      2  C   LIG    1       -4.360   4.377   1.706  0.00  0.00    +0.170 C 
ATOM      3  N   LIG    1       -4.534   5.794   1.297  0.00  0.00    -0.500 NA
ATOM      4  C   LIG    1       -4.029   6.605   2.426  0.00  0.00    +0.170 C 
ATOM      5  C   LIG    1       -4.160   5.742   3.696  0.00  0.00    +0.180 C 
ENDROOT
BRANCH   5   6
ATOM      6  O   LIG    1       -5.054   6.358   4.624  0.00  0.00    -0.550 OA
ATOM      7  H   LIG    1       -4.765   7.229   4.930  0.00  0.00    +0.380 HD
ENDBRANCH   5   6
BRANCH   1   8
ATOM      8  O   LIG    1       -4.120   3.302   3.896  0.00  0.00    -0.290 OA
BRANCH   8  11
ATOM      9  N   LIG    1       -5.516   0.173   4.670  0.00  0.00    -0.370 N 
ATOM     10  C   LIG    1       -4.474   1.045   4.702  0.00  0.00    +0.200 A 
ATOM     11  C   LIG    1       -4.873   2.181   4.078  0.00  0.00    -0.030 A 
ATOM     12  C   LIG    1       -6.197   2.000   3.659  0.00  0.00    +0.180 A 
ATOM     13  N   LIG    1       -6.579   0.798   4.007  0.00  0.00    -0.270 NA
BRANCH   9  15
ATOM     14  C   LIG    1       -6.699  -1.323   6.201  0.00  0.00    +0.040 C 
ATOM     15  C   LIG    1       -5.525  -1.181   5.231  0.00  0.00    +0.330 C 
ENDBRANCH   9  15
ENDBRANCH   8  11
ENDBRANCH   1   8
BRANCH   3  16
ATOM     16  C   LIG    1       -3.786   6.082   0.066  0.00  0.00    +0.200 C 
BRANCH  16  17
ATOM     17  C   LIG    1       -4.264   5.153  -1.051  0.00  0.00    +0.200 C 
BRANCH  17  18
ATOM     18  O   LIG    1       -5.635   5.431  -1.347  0.00  0.00    -0.290 OA
BRANCH  18  19
ATOM     19  C   LIG    1       -6.218   4.688  -2.324  0.00  0.00    +0.170 A 
ATOM     20  C   LIG    1       -5.485   3.711  -2.984  0.00  0.00    -0.120 A 
ATOM     21  C   LIG    1       -6.077   2.955  -3.978  0.00  0.00    +0.090 A 
ATOM     22  C   LIG    1       -7.399   3.170  -4.317  0.00  0.00    -0.120 A 
ATOM     23  C   LIG    1       -8.136   4.146  -3.661  0.00  0.00    +0.170 A 
ATOM     24  C   LIG    1       -7.543   4.909  -2.667  0.00  0.00    -0.050 A 
BRANCH  23  25
ATOM     25  O   LIG    1       -9.436   4.357  -3.996  0.00  0.00    -0.310 OA
ATOM     26  C   LIG    1       -9.980   3.538  -5.033  0.00  0.00    +0.250 C 
ENDBRANCH  23  25
ENDBRANCH  18  19
ENDBRANCH  17  18
ENDBRANCH  16  17
ENDBRANCH   3  16
TORSDOF 9
