REMARK  Name = ZINCrD000000BXgo.0
REMARK                            x       y       z     vdW  Elec       q    Type
REMARK                         _______ _______ _______ _____ _____    ______ ____
ROOT
ATOM      1  O   LIG    1        0.836   3.730  -2.085  0.00  0.00    -0.570 OA
ATOM      2  C   LIG    1        1.108   4.259  -1.024  0.00  0.00    +0.710 C 
ATOM      3  N   LIG    1        1.251   3.508   0.085  0.00  0.00    -0.740 N 
ATOM      4  H   LIG    1        1.468   3.929   0.932  0.00  0.00    +0.400 HD
ATOM      5  N   LIG    1        1.266   5.596  -0.959  0.00  0.00    -0.680 N 
ATOM      6  H   LIG    1        1.406   6.026  -0.100  0.00  0.00    +0.410 HD
ENDROOT
BRANCH   3   7
ATOM      7  C   LIG    1        1.079   2.054   0.014  0.00  0.00    +0.250 C 
ATOM      8  C   LIG    1       -0.407   1.707   0.149  0.00  0.00    -0.010 C 
ATOM      9  C   LIG    1       -0.569   0.185   0.152  0.00  0.00    +0.230 C 
ATOM     10  O   LIG    1        0.202  -0.373   1.219  0.00  0.00    -0.370 OA
ATOM     11  C   LIG    1        1.605  -0.120   1.120  0.00  0.00    +0.210 C 
ATOM     12  C   LIG    1        1.854   1.390   1.156  0.00  0.00    +0.010 C 
BRANCH  11  13
ATOM     13  C   LIG    1        2.316  -0.775   2.276  0.00  0.00    -0.140 A 
ATOM     14  C   LIG    1        3.578  -1.322   2.104  0.00  0.00    +0.080 A 
ATOM     15  C   LIG    1        4.197  -1.909   3.198  0.00  0.00    -0.030 A 
ATOM     16  C   LIG    1        3.535  -1.940   4.410  0.00  0.00    +0.260 A 
ATOM     17  N   LIG    1        2.332  -1.413   4.536  0.00  0.00    -0.490 NA
ATOM     18  C   LIG    1        1.716  -0.842   3.519  0.00  0.00    +0.290 A 
ENDBRANCH  11  13
ENDBRANCH   3   7
BRANCH   5  19
ATOM     19  C   LIG    1        1.227   6.364  -2.129  0.00  0.00    +0.160 A 
ATOM     20  C   LIG    1        1.712   5.839  -3.320  0.00  0.00    +0.060 A 
ATOM     21  C   LIG    1        1.669   6.595  -4.474  0.00  0.00    +0.010 A 
ATOM     22  C   LIG    1        1.151   7.883  -4.443  0.00  0.00    +0.140 A 
ATOM     23  C   LIG    1        0.672   8.409  -3.250  0.00  0.00    +0.040 A 
ATOM     24  C   LIG    1        0.710   7.652  -2.097  0.00  0.00    +0.020 A 
BRANCH  22  25
ATOM     25  N   LIG    1        1.112   8.652  -5.615  0.00  0.00    -0.320 N 
ATOM     26  C   LIG    1        1.547   8.265  -6.835  0.00  0.00    +0.230 A 
ATOM     27  C   LIG    1        1.331   9.290  -7.693  0.00  0.00    -0.110 A 
ATOM     28  C   LIG    1        0.752  10.340  -6.973  0.00  0.00    +0.250 A 
ATOM     29  N   LIG    1        0.620   9.959  -5.727  0.00  0.00    -0.290 NA
ENDBRANCH  22  25
ENDBRANCH   5  19
TORSDOF 4
