REMARK  Name = ZINCrg00000xBmZQ.0
REMARK                            x       y       z     vdW  Elec       q    Type
REMARK                         _______ _______ _______ _____ _____    ______ ____
ROOT
ATOM      1  C   LIG    1       -0.037   1.099  -2.490  0.00  0.00    +0.240 C 
ATOM      2  C   LIG    1        1.399   1.629  -2.501  0.00  0.00    +0.010 C 
ATOM      3  C   LIG    1        2.139   1.122  -1.262  0.00  0.00    +0.020 C 
ATOM      4  C   LIG    1        1.423   1.615  -0.003  0.00  0.00    +0.010 C 
ATOM      5  C   LIG    1       -0.013   1.086   0.008  0.00  0.00    +0.240 C 
ATOM      6  C   LIG    1       -0.753   1.593  -1.232  0.00  0.00    +0.030 C 
ENDROOT
BRANCH   1   8
ATOM      7  C   LIG    1        0.083  -1.032  -3.666  0.00  0.00    +0.520 C 
ATOM      8  N   LIG    1       -0.017  -0.366  -2.498  0.00  0.00    -0.730 N 
ATOM      9  H   LIG    1       -0.075  -0.856  -1.664  0.00  0.00    +0.400 HD
ATOM     10  O   LIG    1        0.156  -0.419  -4.710  0.00  0.00    -0.530 OA
BRANCH   7  11
ATOM     11  C   LIG    1        0.103  -2.539  -3.674  0.00  0.00    +0.050 C 
BRANCH  11  13
ATOM     12  C   LIG    1        1.496  -2.487  -5.758  0.00  0.00    +0.020 C 
ATOM     13  C   LIG    1        0.222  -3.039  -5.115  0.00  0.00    -0.050 C 
ATOM     14  C   LIG    1       -1.013  -2.604  -5.929  0.00  0.00    +0.030 C 
ATOM     15  C   LIG    1       -1.292  -3.804  -6.868  0.00  0.00    +0.000 C 
ATOM     16  C   LIG    1       -0.979  -5.023  -5.966  0.00  0.00    +0.000 C 
ATOM     17  C   LIG    1        0.244  -4.578  -5.138  0.00  0.00    +0.010 C 
ENDBRANCH  11  13
ENDBRANCH   7  11
ENDBRANCH   1   8
BRANCH   5  18
ATOM     18  N   LIG    1       -0.698   1.558   1.213  0.00  0.00    -0.720 N 
ATOM     19  H   LIG    1       -1.241   2.362   1.179  0.00  0.00    +0.400 HD
ATOM     20  C   LIG    1       -0.575   0.877   2.369  0.00  0.00    +0.490 C 
ATOM     21  O   LIG    1        0.103  -0.128   2.412  0.00  0.00    -0.520 OA
BRANCH  20  22
ATOM     22  C   LIG    1       -1.281   1.363   3.609  0.00  0.00    +0.370 C 
BRANCH  22  23
ATOM     23  N   LIG    1       -0.991   0.457   4.723  0.00  0.00    -0.610 N 
ATOM     24  C   LIG    1       -1.764  -0.735   5.113  0.00  0.00    +0.320 C 
ATOM     25  C   LIG    1       -1.010  -1.273   6.313  0.00  0.00    +0.530 C 
ATOM     26  N   LIG    1        0.025  -0.430   6.501  0.00  0.00    -0.680 N 
ATOM     27  H   LIG    1        0.683  -0.524   7.207  0.00  0.00    +0.430 HD
ATOM     28  O   LIG    1       -1.283  -2.254   6.970  0.00  0.00    -0.470 OA
ATOM     29  C   LIG    1        0.031   0.553   5.593  0.00  0.00    +0.710 C 
ATOM     30  O   LIG    1        0.867   1.435   5.558  0.00  0.00    -0.540 OA
ENDBRANCH  22  23
ENDBRANCH  20  22
ENDBRANCH   5  18
TORSDOF 6
