REMARK  Name = ZINCvU00000005Ab.0
REMARK                            x       y       z     vdW  Elec       q    Type
REMARK                         _______ _______ _______ _____ _____    ______ ____
ROOT
ATOM      1  C   LIG    1       -5.210   0.861   0.038  0.00  0.00    +0.150 A 
ATOM      2  N   LIG    1       -5.142  -0.445   0.162  0.00  0.00    -0.290 NA
ATOM      3  N   LIG    1       -6.321  -0.955   0.113  0.00  0.00    -0.250 NA
ATOM      4  C   LIG    1       -7.213  -0.006  -0.054  0.00  0.00    +0.220 A 
ATOM      5  N   LIG    1       -6.529   1.186  -0.107  0.00  0.00    -0.450 N 
ENDROOT
BRANCH   4   6
ATOM      6  C   LIG    1       -8.676  -0.185  -0.163  0.00  0.00    -0.060 A 
ATOM      7  C   LIG    1       -9.538   0.613   0.589  0.00  0.00    +0.060 A 
ATOM      8  C   LIG    1      -10.903   0.445   0.477  0.00  0.00    +0.010 A 
ATOM      9  C   LIG    1      -11.419  -0.520  -0.369  0.00  0.00    +0.070 A 
ATOM     10  C   LIG    1      -10.571  -1.320  -1.114  0.00  0.00    +0.000 A 
ATOM     11  C   LIG    1       -9.202  -1.159  -1.017  0.00  0.00    +0.140 A 
ATOM     12  F   LIG    1       -8.375  -1.940  -1.745  0.00  0.00    -0.120 F 
ENDBRANCH   4   6
BRANCH   5  13
ATOM     13  C   LIG    1       -7.096   2.526  -0.281  0.00  0.00    +0.240 C 
ATOM     14  C   LIG    1       -6.514   3.166  -1.543  0.00  0.00    +0.010 C 
ATOM     15  C   LIG    1       -7.107   4.564  -1.726  0.00  0.00    +0.040 C 
ATOM     16  C   LIG    1       -6.762   5.427  -0.510  0.00  0.00    +0.010 C 
ATOM     17  C   LIG    1       -7.344   4.787   0.752  0.00  0.00    +0.040 C 
ATOM     18  C   LIG    1       -6.751   3.388   0.934  0.00  0.00    +0.010 C 
ENDBRANCH   5  13
BRANCH   1  19
ATOM     19  S   LIG    1       -3.852   1.984   0.050  0.00  0.00    +0.090 S 
BRANCH  19  20
ATOM     20  C   LIG    1       -2.484   0.821   0.278  0.00  0.00    +0.100 C 
BRANCH  20  23
ATOM     21  N   LIG    1       -0.021   0.914   0.483  0.00  0.00    -0.720 N 
ATOM     22  H   LIG    1       -0.023  -0.052   0.574  0.00  0.00    +0.400 HD
ATOM     23  C   LIG    1       -1.182   1.578   0.319  0.00  0.00    +0.540 C 
ATOM     24  O   LIG    1       -1.179   2.786   0.205  0.00  0.00    -0.520 OA
BRANCH  21  26
ATOM     25  C   LIG    1        1.740   1.879  -0.913  0.00  0.00    +0.040 C 
ATOM     26  C   LIG    1        1.245   1.649   0.517  0.00  0.00    +0.290 C 
BRANCH  26  27
ATOM     27  C   LIG    1        2.270   0.851   1.281  0.00  0.00    -0.100 A 
ATOM     28  C   LIG    1        2.333  -0.521   1.125  0.00  0.00    +0.000 A 
ATOM     29  C   LIG    1        3.276  -1.253   1.823  0.00  0.00    +0.010 A 
ATOM     30  C   LIG    1        4.149  -0.614   2.684  0.00  0.00    +0.000 A 
ATOM     31  C   LIG    1        4.082   0.758   2.843  0.00  0.00    +0.020 A 
ATOM     32  C   LIG    1        3.142   1.490   2.142  0.00  0.00    +0.020 A 
ENDBRANCH  26  27
ENDBRANCH  21  26
ENDBRANCH  20  23
ENDBRANCH  19  20
ENDBRANCH   1  19
TORSDOF 7
