REMARK  Name = ZINCqH0000005ZBI.0
REMARK                            x       y       z     vdW  Elec       q    Type
REMARK                         _______ _______ _______ _____ _____    ______ ____
ROOT
ATOM      1  C   LIG    1       -0.029   1.398   0.016  0.00  0.00    -0.140 A 
ATOM      2  C   LIG    1       -0.003   0.004   0.002  0.00  0.00    +0.180 A 
ATOM      3  C   LIG    1        1.240  -0.662  -0.021  0.00  0.00    -0.080 A 
ATOM      4  C   LIG    1        1.310  -2.064  -0.035  0.00  0.00    +0.040 A 
ATOM      5  C   LIG    1        2.526  -2.678  -0.057  0.00  0.00    +0.010 A 
ATOM      6  C   LIG    1        3.703  -1.934  -0.063  0.00  0.00    +0.040 A 
ATOM      7  C   LIG    1        3.672  -0.572  -0.050  0.00  0.00    +0.030 A 
ATOM      8  C   LIG    1        2.437   0.096  -0.028  0.00  0.00    -0.020 A 
ATOM      9  C   LIG    1        2.373   1.503  -0.013  0.00  0.00    +0.030 A 
ATOM     10  C   LIG    1        1.173   2.132   0.008  0.00  0.00    +0.080 A 
ENDROOT
BRANCH   1  11
ATOM     11  C   LIG    1       -1.319   2.106   0.033  0.00  0.00    +0.500 C 
ATOM     12  O   LIG    1       -2.358   1.475   0.035  0.00  0.00    -0.480 OA
BRANCH  11  14
ATOM     13  C   LIG    1       -2.656   4.084   0.064  0.00  0.00    +0.270 C 
ATOM     14  O   LIG    1       -1.348   3.453   0.047  0.00  0.00    -0.360 OA
ENDBRANCH  11  14
ENDBRANCH   1  11
BRANCH   2  15
ATOM     15  O   LIG    1       -1.158  -0.702   0.009  0.00  0.00    -0.290 OA
BRANCH  15  16
ATOM     16  C   LIG    1       -1.728  -1.027  -1.260  0.00  0.00    +0.240 C 
BRANCH  16  17
ATOM     17  C   LIG    1       -3.001  -1.808  -1.054  0.00  0.00    +0.520 C 
ATOM     18  N   LIG    1       -3.715  -2.226  -2.118  0.00  0.00    -0.670 N 
ATOM     19  H   LIG    1       -3.447  -1.967  -3.013  0.00  0.00    +0.420 HD
ATOM     20  O   LIG    1       -3.382  -2.061   0.070  0.00  0.00    -0.480 OA
BRANCH  18  21
ATOM     21  C   LIG    1       -4.843  -3.033  -1.930  0.00  0.00    +0.180 A 
ATOM     22  C   LIG    1       -5.154  -4.018  -2.857  0.00  0.00    -0.030 A 
ATOM     23  C   LIG    1       -6.265  -4.818  -2.667  0.00  0.00    +0.070 A 
ATOM     24  C   LIG    1       -7.073  -4.631  -1.562  0.00  0.00    -0.030 A 
ATOM     25  C   LIG    1       -6.769  -3.645  -0.638  0.00  0.00    +0.120 A 
ATOM     26  F   LIG    1       -7.560  -3.464   0.442  0.00  0.00    -0.130 F 
ATOM     27  C   LIG    1       -5.655  -2.845  -0.820  0.00  0.00    -0.010 A 
ENDBRANCH  18  21
ENDBRANCH  16  17
ENDBRANCH  15  16
ENDBRANCH   2  15
TORSDOF 6
