REMARK  Name = ZINCrH000004qous.0
REMARK                            x       y       z     vdW  Elec       q    Type
REMARK                         _______ _______ _______ _____ _____    ______ ____
ROOT
ATOM      1  C   LIG    1       -0.440   3.037  -0.141  0.00  0.00    +0.090 C 
ATOM      2  C   LIG    1       -0.926   2.499   1.180  0.00  0.00    -0.160 A 
ATOM      3  C   LIG    1       -0.207   2.744   2.328  0.00  0.00    +0.110 A 
ATOM      4  C   LIG    1       -0.659   2.245   3.553  0.00  0.00    -0.190 A 
ATOM      5  C   LIG    1       -1.840   1.499   3.608  0.00  0.00    +0.080 A 
ATOM      6  C   LIG    1       -2.554   1.258   2.456  0.00  0.00    -0.070 A 
ATOM      7  C   LIG    1       -2.104   1.760   1.238  0.00  0.00    +0.240 A 
ENDROOT
BRANCH   4   8
ATOM      8  C   LIG    1        0.108   2.506   4.785  0.00  0.00    +0.570 C 
ATOM      9  N   LIG    1       -0.506   3.036   5.862  0.00  0.00    -0.610 N 
ATOM     10  C   LIG    1       -1.952   3.264   5.832  0.00  0.00    +0.300 C 
ATOM     11  C   LIG    1       -2.628   2.356   6.872  0.00  0.00    +0.110 C 
ATOM     12  S   LIG    1       -1.924   2.716   8.508  0.00  0.00    -0.250 S 
ATOM     13  C   LIG    1       -0.143   2.496   8.221  0.00  0.00    +0.110 C 
ATOM     14  C   LIG    1        0.281   3.384   7.046  0.00  0.00    +0.310 C 
ATOM     15  O   LIG    1        1.294   2.243   4.830  0.00  0.00    -0.530 OA
ENDBRANCH   4   8
BRANCH   7  16
ATOM     16  N   LIG    1       -2.831   1.520   0.078  0.00  0.00    -0.730 N 
ATOM     17  H   LIG    1       -2.517   1.866  -0.772  0.00  0.00    +0.400 HD
BRANCH  16  18
ATOM     18  C   LIG    1       -4.071   0.742   0.138  0.00  0.00    +0.350 C 
BRANCH  18  19
ATOM     19  C   LIG    1       -4.659   0.627  -1.245  0.00  0.00    +0.160 A 
ATOM     20  N   LIG    1       -5.430   1.589  -1.692  0.00  0.00    -0.450 NA
ATOM     21  C   LIG    1       -5.972   1.537  -2.913  0.00  0.00    +0.300 A 
ATOM     22  N   LIG    1       -6.753   2.526  -3.360  0.00  0.00    -0.460 NA
ATOM     23  C   LIG    1       -7.295   2.483  -4.553  0.00  0.00    +0.330 A 
ATOM     24  C   LIG    1       -7.087   1.410  -5.416  0.00  0.00    -0.020 A 
ATOM     25  C   LIG    1       -6.300   0.364  -5.023  0.00  0.00    +0.110 A 
ATOM     26  C   LIG    1       -5.721   0.415  -3.743  0.00  0.00    -0.150 A 
ATOM     27  C   LIG    1       -4.899  -0.622  -3.266  0.00  0.00    +0.110 A 
ATOM     28  C   LIG    1       -4.374  -0.501  -2.010  0.00  0.00    -0.010 A 
ENDBRANCH  18  19
ENDBRANCH  16  18
ENDBRANCH   7  16
TORSDOF 4
