REMARK  Name = ZINCpe000000UAMS.0
REMARK                            x       y       z     vdW  Elec       q    Type
REMARK                         _______ _______ _______ _____ _____    ______ ____
ROOT
ATOM      1  S   LIG    1        0.027  -0.840   1.431  0.00  0.00    +2.690 S 
ATOM      2  O   LIG    1        0.569   0.044   2.404  0.00  0.00    -0.950 OA
ATOM      3  O   LIG    1        0.586  -2.114   1.142  0.00  0.00    -0.950 OA
ENDROOT
BRANCH   1   4
ATOM      4  C   LIG    1       -1.648  -1.126   1.898  0.00  0.00    -0.700 A 
ATOM      5  C   LIG    1       -2.310  -0.206   2.690  0.00  0.00    +0.160 A 
ATOM      6  C   LIG    1       -3.625  -0.425   3.053  0.00  0.00    -0.040 A 
ATOM      7  C   LIG    1       -4.278  -1.576   2.631  0.00  0.00    +0.240 A 
ATOM      8  C   LIG    1       -3.608  -2.500   1.840  0.00  0.00    -0.010 A 
ATOM      9  C   LIG    1       -2.296  -2.272   1.475  0.00  0.00    +0.160 A 
BRANCH   7  10
ATOM     10  N   LIG    1       -5.608  -1.804   3.002  0.00  0.00    -0.570 N 
ATOM     11  C   LIG    1       -6.427  -0.913   3.838  0.00  0.00    +0.280 C 
ATOM     12  C   LIG    1       -7.784  -1.637   3.925  0.00  0.00    +0.280 C 
ATOM     13  O   LIG    1       -7.587  -2.851   3.145  0.00  0.00    -0.310 OA
ATOM     14  C   LIG    1       -6.340  -2.872   2.659  0.00  0.00    +0.650 C 
ATOM     15  O   LIG    1       -5.912  -3.776   1.970  0.00  0.00    -0.490 OA
ENDBRANCH   7  10
ENDBRANCH   1   4
BRANCH   1  17
ATOM     16  C   LIG    1       -0.018   1.461   0.010  0.00  0.00    +0.300 C 
ATOM     17  N   LIG    1        0.002  -0.004   0.002  0.00  0.00    -1.000 NA
BRANCH  17  18
ATOM     18  C   LIG    1       -0.000  -0.730  -1.271  0.00  0.00    +0.290 C 
BRANCH  18  19
ATOM     19  C   LIG    1        1.434  -0.854  -1.790  0.00  0.00    +0.280 C 
BRANCH  19  20
ATOM     20  N   LIG    1        1.432  -1.579  -3.062  0.00  0.00    -0.620 N 
ATOM     21  C   LIG    1        1.562  -3.036  -3.185  0.00  0.00    +0.260 C 
ATOM     22  C   LIG    1        1.072  -3.372  -4.613  0.00  0.00    +0.040 C 
ATOM     23  C   LIG    1        1.342  -2.044  -5.358  0.00  0.00    +0.050 C 
ATOM     24  C   LIG    1        1.316  -0.996  -4.268  0.00  0.00    +0.520 C 
ATOM     25  O   LIG    1        1.207   0.198  -4.454  0.00  0.00    -0.530 OA
ENDBRANCH  19  20
ENDBRANCH  18  19
ENDBRANCH  17  18
ENDBRANCH   1  17
TORSDOF 6
