REMARK  Name = ZINCkj000005gCeq.1
REMARK                            x       y       z     vdW  Elec       q    Type
REMARK                         _______ _______ _______ _____ _____    ______ ____
ROOT
ATOM      1  N   LIG    1       -0.127   1.536  -3.201  0.00  0.00    -0.730 N 
ATOM      2  H   LIG    1       -0.994   1.966  -3.265  0.00  0.00    +0.390 HD
ATOM      3  C   LIG    1        0.367   1.190  -1.996  0.00  0.00    +0.700 C 
ATOM      4  N   LIG    1       -0.345   1.441  -0.879  0.00  0.00    -0.750 N 
ATOM      5  H   LIG    1       -1.212   1.870  -0.943  0.00  0.00    +0.400 HD
ATOM      6  O   LIG    1        1.454   0.652  -1.916  0.00  0.00    -0.580 OA
ENDROOT
BRANCH   1   7
ATOM      7  C   LIG    1        0.646   1.264  -4.415  0.00  0.00    +0.250 C 
ATOM      8  C   LIG    1        0.378  -0.169  -4.880  0.00  0.00    +0.020 C 
BRANCH   7   9
ATOM      9  C   LIG    1        0.231   2.243  -5.515  0.00  0.00    +0.020 C 
BRANCH   9  10
ATOM     10  C   LIG    1        0.614   3.666  -5.102  0.00  0.00    -0.020 C 
ATOM     11  C   LIG    1        2.137   3.779  -5.013  0.00  0.00    +0.030 C 
BRANCH  10  13
ATOM     12  C   LIG    1        0.361   6.086  -5.668  0.00  0.00    +0.020 C 
ATOM     13  C   LIG    1        0.088   4.657  -6.142  0.00  0.00    +0.000 C 
ENDBRANCH  10  13
ENDBRANCH   9  10
ENDBRANCH   7   9
ENDBRANCH   1   7
BRANCH   4  14
ATOM     14  C   LIG    1        0.192   1.065   0.431  0.00  0.00    +0.320 C 
BRANCH  14  15
ATOM     15  C   LIG    1       -0.745   1.570   1.530  0.00  0.00    +0.130 C 
ATOM     16  C   LIG    1       -0.755   3.100   1.530  0.00  0.00    +0.280 C 
ATOM     17  N   LIG    1       -1.670   3.585   2.571  0.00  0.00    -0.390 N 
ATOM     18  C   LIG    1       -3.029   3.102   2.295  0.00  0.00    +0.280 C 
ATOM     19  C   LIG    1       -3.039   1.572   2.302  0.00  0.00    +0.210 C 
ATOM     20  C   LIG    1       -1.664   5.054   2.582  0.00  0.00    +0.330 C 
ATOM     21  H   LIG    1       -1.367   3.241   3.470  0.00  0.00    +0.420 HD
ATOM     22  N   LIG    1       -2.106   1.074   1.280  0.00  0.00    -0.540 NA
ATOM     23  C   LIG    1       -2.129  -0.393   1.217  0.00  0.00    +0.230 C 
ENDBRANCH  14  15
ENDBRANCH   4  14
TORSDOF 6
