REMARK  Name = ZINCkj000005gCeq.0
REMARK                            x       y       z     vdW  Elec       q    Type
REMARK                         _______ _______ _______ _____ _____    ______ ____
ROOT
ATOM      1  N   LIG    1       -0.817   1.141  -0.160  0.00  0.00    -0.730 N 
ATOM      2  H   LIG    1       -0.988   2.092  -0.080  0.00  0.00    +0.390 HD
ATOM      3  C   LIG    1        0.450   0.682  -0.180  0.00  0.00    +0.700 C 
ATOM      4  N   LIG    1        1.480   1.547  -0.096  0.00  0.00    -0.750 N 
ATOM      5  H   LIG    1        1.310   2.498  -0.016  0.00  0.00    +0.400 HD
ATOM      6  O   LIG    1        0.664  -0.510  -0.280  0.00  0.00    -0.580 OA
ENDROOT
BRANCH   1   7
ATOM      7  C   LIG    1       -1.938   0.201  -0.257  0.00  0.00    +0.250 C 
ATOM      8  C   LIG    1       -2.268  -0.345   1.133  0.00  0.00    +0.020 C 
BRANCH   7   9
ATOM      9  C   LIG    1       -3.161   0.924  -0.825  0.00  0.00    +0.020 C 
BRANCH   9  10
ATOM     10  C   LIG    1       -2.873   1.362  -2.262  0.00  0.00    -0.020 C 
ATOM     11  C   LIG    1       -2.688   0.126  -3.145  0.00  0.00    +0.030 C 
BRANCH  10  13
ATOM     12  C   LIG    1       -3.707   2.734  -4.177  0.00  0.00    +0.020 C 
ATOM     13  C   LIG    1       -4.046   2.192  -2.787  0.00  0.00    +0.000 C 
ENDBRANCH  10  13
ENDBRANCH   9  10
ENDBRANCH   7   9
ENDBRANCH   1   7
BRANCH   4  14
ATOM     14  C   LIG    1        2.858   1.049  -0.125  0.00  0.00    +0.320 C 
BRANCH  14  15
ATOM     15  C   LIG    1        3.828   2.233  -0.142  0.00  0.00    +0.140 C 
ATOM     16  C   LIG    1        3.661   3.010  -1.450  0.00  0.00    +0.280 C 
ATOM     17  N   LIG    1        4.578   4.158  -1.457  0.00  0.00    -0.380 N 
ATOM     18  C   LIG    1        4.260   5.048  -0.333  0.00  0.00    +0.280 C 
ATOM     19  C   LIG    1        4.431   4.288   0.984  0.00  0.00    +0.210 C 
ATOM     20  C   LIG    1        5.961   3.680  -1.327  0.00  0.00    +0.320 C 
ATOM     21  H   LIG    1        4.477   4.663  -2.325  0.00  0.00    +0.430 HD
ATOM     22  N   LIG    1        3.537   3.121   0.993  0.00  0.00    -0.540 NA
ATOM     23  C   LIG    1        3.631   2.395   2.267  0.00  0.00    +0.230 C 
ENDBRANCH  14  15
ENDBRANCH   4  14
TORSDOF 6
