REMARK  Name = ZINCpk00000xIfiS.0
REMARK                            x       y       z     vdW  Elec       q    Type
REMARK                         _______ _______ _______ _____ _____    ______ ____
ROOT
ATOM      1  C   LIG    1        0.002  -0.004   0.002  0.00  0.00    +0.270 C 
ENDROOT
BRANCH   1   2
ATOM      2  N   LIG    1       -0.018   1.461   0.010  0.00  0.00    -1.120 NA
ATOM      3  H   LIG    1        0.816   1.957   0.005  0.00  0.00    +0.420 HD
BRANCH   2   4
ATOM      4  S   LIG    1       -1.463   2.269   0.021  0.00  0.00    +2.700 S 
ATOM      5  O   LIG    1       -2.259   1.683  -1.000  0.00  0.00    -0.950 OA
ATOM      6  O   LIG    1       -1.148   3.654   0.062  0.00  0.00    -0.950 OA
BRANCH   4  10
ATOM      7  C   LIG    1       -3.507   1.307   3.946  0.00  0.00    +0.190 A 
ATOM      8  C   LIG    1       -2.660   2.402   3.854  0.00  0.00    -0.030 A 
ATOM      9  C   LIG    1       -2.037   2.693   2.656  0.00  0.00    +0.170 A 
ATOM     10  C   LIG    1       -2.258   1.895   1.548  0.00  0.00    -0.720 A 
ATOM     11  C   LIG    1       -3.107   0.806   1.636  0.00  0.00    +0.160 A 
ATOM     12  C   LIG    1       -3.727   0.507   2.834  0.00  0.00    -0.090 A 
BRANCH   7  14
ATOM     13  C   LIG    1       -4.980  -0.123   5.145  0.00  0.00    +0.250 C 
ATOM     14  O   LIG    1       -4.121   1.019   5.124  0.00  0.00    -0.310 OA
ENDBRANCH   7  14
ENDBRANCH   4  10
ENDBRANCH   2   4
ENDBRANCH   1   2
BRANCH   1  15
ATOM     15  C   LIG    1        1.399  -0.493  -0.387  0.00  0.00    +0.270 C 
BRANCH  15  16
ATOM     16  N   LIG    1        1.418  -1.958  -0.395  0.00  0.00    -0.730 N 
ATOM     17  H   LIG    1        0.616  -2.455  -0.173  0.00  0.00    +0.400 HD
ATOM     18  C   LIG    1        2.552  -2.615  -0.712  0.00  0.00    +0.520 C 
ATOM     19  O   LIG    1        3.556  -1.993  -0.990  0.00  0.00    -0.510 OA
BRANCH  18  20
ATOM     20  C   LIG    1        2.572  -4.122  -0.720  0.00  0.00    +0.200 C 
BRANCH  20  21
ATOM     21  O   LIG    1        3.877  -4.578  -1.084  0.00  0.00    -0.360 OA
BRANCH  21  22
ATOM     22  C   LIG    1        4.005  -6.001  -1.122  0.00  0.00    +0.150 C 
ATOM     23  C   LIG    1        4.437  -6.511   0.254  0.00  0.00    -0.010 C 
ATOM     24  C   LIG    1        4.574  -8.034   0.214  0.00  0.00    +0.010 C 
ATOM     25  C   LIG    1        5.625  -8.424  -0.828  0.00  0.00    +0.000 C 
ATOM     26  C   LIG    1        5.192  -7.914  -2.204  0.00  0.00    +0.010 C 
ATOM     27  C   LIG    1        5.056  -6.391  -2.163  0.00  0.00    +0.020 C 
ENDBRANCH  21  22
ENDBRANCH  20  21
ENDBRANCH  18  20
ENDBRANCH  15  16
ENDBRANCH   1  15
TORSDOF 9
