REMARK  Name = ZINCrD00000l8D28.0
REMARK                            x       y       z     vdW  Elec       q    Type
REMARK                         _______ _______ _______ _____ _____    ______ ____
ROOT
ATOM      1  S   LIG    1       -6.285   2.465   0.379  0.00  0.00    +0.090 S 
ENDROOT
BRANCH   1   2
ATOM      2  C   LIG    1       -7.628   1.330   0.497  0.00  0.00    +0.140 A 
ATOM      3  N   LIG    1       -7.546   0.020   0.477  0.00  0.00    -0.290 NA
ATOM      4  N   LIG    1       -8.720  -0.492   0.587  0.00  0.00    -0.280 NA
ATOM      5  C   LIG    1       -9.614   0.452   0.674  0.00  0.00    +0.230 A 
ATOM      6  N   LIG    1       -8.950   1.647   0.620  0.00  0.00    -0.460 N 
BRANCH   5   7
ATOM      7  C   LIG    1      -11.102   0.263   0.810  0.00  0.00    +0.040 C 
ATOM      8  C   LIG    1      -11.614  -1.157   1.056  0.00  0.00    +0.070 C 
ATOM      9  C   LIG    1      -11.823  -0.494  -0.307  0.00  0.00    +0.060 C 
ENDBRANCH   5   7
BRANCH   6  10
ATOM     10  C   LIG    1       -9.537   2.988   0.682  0.00  0.00    +0.440 C 
BRANCH  10  11
ATOM     11  C   LIG    1       -9.868   3.456  -0.712  0.00  0.00    -0.060 A 
ATOM     12  C   LIG    1      -11.034   3.256  -1.352  0.00  0.00    -0.020 A 
ATOM     13  C   LIG    1      -10.911   3.860  -2.625  0.00  0.00    -0.070 A 
ATOM     14  C   LIG    1       -9.675   4.385  -2.689  0.00  0.00    +0.190 A 
ATOM     15  O   LIG    1       -9.047   4.138  -1.528  0.00  0.00    -0.160 OA
ENDBRANCH  10  11
ENDBRANCH   6  10
ENDBRANCH   1   2
BRANCH   1  16
ATOM     16  C   LIG    1       -4.903   1.304   0.246  0.00  0.00    +0.110 C 
BRANCH  16  19
ATOM     17  N   LIG    1       -2.442   1.411   0.021  0.00  0.00    -0.670 N 
ATOM     18  H   LIG    1       -2.436   0.444  -0.051  0.00  0.00    +0.420 HD
ATOM     19  C   LIG    1       -3.611   2.072   0.132  0.00  0.00    +0.540 C 
ATOM     20  O   LIG    1       -3.624   3.285   0.139  0.00  0.00    -0.500 OA
BRANCH  17  26
ATOM     21  C   LIG    1       -0.095   1.571   0.607  0.00  0.00    -0.060 A 
ATOM     22  C   LIG    1        1.105   2.286   0.582  0.00  0.00    +0.090 A 
ATOM     23  C   LIG    1        1.155   3.524  -0.021  0.00  0.00    +0.010 A 
ATOM     24  C   LIG    1        0.021   4.064  -0.605  0.00  0.00    +0.070 A 
ATOM     25  C   LIG    1       -1.173   3.368  -0.589  0.00  0.00    +0.030 A 
ATOM     26  C   LIG    1       -1.240   2.118   0.009  0.00  0.00    +0.190 A 
BRANCH  21  28
ATOM     27  N   LIG    1       -0.200  -0.737   1.729  0.00  0.00    -0.410 NA
ATOM     28  C   LIG    1       -0.153   0.284   1.232  0.00  0.00    +0.250 C 
ENDBRANCH  21  28
ENDBRANCH  17  26
ENDBRANCH  16  19
ENDBRANCH   1  16
TORSDOF 8
