REMARK  Name = ZINCrg000000sSAK.0
REMARK                            x       y       z     vdW  Elec       q    Type
REMARK                         _______ _______ _______ _____ _____    ______ ____
ROOT
ATOM      1  N   LIG    1       -3.403   2.968  -1.154  0.00  0.00    -0.990 NA
ATOM      2  C   LIG    1       -3.357   1.503  -1.052  0.00  0.00    +0.290 C 
ATOM      3  C   LIG    1       -2.458   1.121   0.130  0.00  0.00    +0.290 C 
ATOM      4  N   LIG    1       -1.194   1.863   0.018  0.00  0.00    -0.630 N 
ATOM      5  C   LIG    1       -1.240   3.329  -0.078  0.00  0.00    +0.270 C 
ATOM      6  C   LIG    1       -0.014   1.212   0.009  0.00  0.00    +0.710 C 
ATOM      7  N   LIG    1        1.140   1.908   0.005  0.00  0.00    -0.750 N 
ATOM      8  H   LIG    1        1.123   2.875  -0.059  0.00  0.00    +0.390 HD
ATOM      9  O   LIG    1        0.009  -0.004  -0.002  0.00  0.00    -0.580 OA
ATOM     10  C   LIG    1       -2.139   3.710  -1.266  0.00  0.00    +0.300 C 
ENDROOT
BRANCH   1  11
ATOM     11  S   LIG    1       -4.852   3.769  -1.141  0.00  0.00    +2.680 S 
ATOM     12  O   LIG    1       -5.831   2.834  -1.575  0.00  0.00    -0.940 OA
ATOM     13  O   LIG    1       -4.628   5.015  -1.787  0.00  0.00    -0.940 OA
BRANCH  11  19
ATOM     14  C   LIG    1       -5.471   3.106   1.447  0.00  0.00    +0.070 A 
ATOM     15  C   LIG    1       -5.769   3.409   2.777  0.00  0.00    +0.050 A 
ATOM     16  C   LIG    1       -5.822   4.726   3.186  0.00  0.00    +0.090 A 
ATOM     17  C   LIG    1       -5.580   5.745   2.282  0.00  0.00    +0.030 A 
ATOM     18  C   LIG    1       -5.279   5.451   0.963  0.00  0.00    +0.140 A 
ATOM     19  C   LIG    1       -5.229   4.140   0.539  0.00  0.00    -0.640 A 
BRANCH  14  21
ATOM     20  N   LIG    1       -5.369   0.660   0.673  0.00  0.00    -0.350 NA
ATOM     21  C   LIG    1       -5.414   1.742   1.015  0.00  0.00    +0.210 C 
ENDBRANCH  14  21
ENDBRANCH  11  19
ENDBRANCH   1  11
BRANCH   7  22
ATOM     22  C   LIG    1        2.421   1.202   0.100  0.00  0.00    +0.280 C 
BRANCH  22  23
ATOM     23  C   LIG    1        3.565   2.218   0.075  0.00  0.00    -0.020 C 
ATOM     24  C   LIG    1        3.599   2.918  -1.287  0.00  0.00    +0.000 C 
ATOM     25  C   LIG    1        4.794   3.874  -1.330  0.00  0.00    +0.210 C 
ATOM     26  O   LIG    1        5.997   3.143  -1.084  0.00  0.00    -0.380 OA
ATOM     27  C   LIG    1        6.041   2.506   0.194  0.00  0.00    +0.210 C 
ATOM     28  C   LIG    1        4.896   1.495   0.299  0.00  0.00    +0.010 C 
ENDBRANCH  22  23
ENDBRANCH   7  22
TORSDOF 5
