REMARK  Name = ZINCBI00000009eu.1
REMARK                            x       y       z     vdW  Elec       q    Type
REMARK                         _______ _______ _______ _____ _____    ______ ____
ROOT
ATOM      1  C   LIG    1       -2.366   2.655   3.674  0.00  0.00    +0.080 A 
ATOM      2  C   LIG    1       -1.455   3.527   3.098  0.00  0.00    -0.010 A 
ATOM      3  C   LIG    1       -0.745   3.142   1.975  0.00  0.00    +0.120 A 
ATOM      4  C   LIG    1       -0.949   1.894   1.417  0.00  0.00    -0.640 A 
ATOM      5  C   LIG    1       -1.856   1.018   1.985  0.00  0.00    +0.140 A 
ATOM      6  C   LIG    1       -2.568   1.393   3.114  0.00  0.00    +0.170 A 
ENDROOT
BRANCH   1  11
ATOM      7  C   LIG    1       -4.623   5.221   8.068  0.00  0.00    +0.330 C 
ATOM      8  N   LIG    1       -3.848   4.867   6.871  0.00  0.00    -0.390 N 
ATOM      9  C   LIG    1       -2.995   3.708   7.166  0.00  0.00    +0.280 C 
ATOM     10  C   LIG    1       -2.173   3.350   5.926  0.00  0.00    +0.230 C 
ATOM     11  N   LIG    1       -3.082   3.040   4.813  0.00  0.00    -0.500 N 
ATOM     12  C   LIG    1       -3.959   4.183   4.522  0.00  0.00    +0.220 C 
ATOM     13  C   LIG    1       -4.766   4.534   5.774  0.00  0.00    +0.280 C 
ATOM     14  H   LIG    1       -3.270   5.649   6.601  0.00  0.00    +0.420 HD
ENDBRANCH   1  11
BRANCH   6  15
ATOM     15  N   LIG    1       -3.487   0.508   3.691  0.00  0.00    -0.660 N 
ATOM     16  H   LIG    1       -4.224   0.851   4.222  0.00  0.00    +0.420 HD
ATOM     17  C   LIG    1       -3.350  -0.820   3.509  0.00  0.00    +0.540 C 
ATOM     18  O   LIG    1       -2.372  -1.257   2.929  0.00  0.00    -0.500 OA
BRANCH  17  19
ATOM     19  C   LIG    1       -4.375  -1.738   4.008  0.00  0.00    -0.070 C 
ATOM     20  C   LIG    1       -4.237  -3.067   3.825  0.00  0.00    +0.150 C 
BRANCH  20  21
ATOM     21  C   LIG    1       -5.268  -3.989   4.327  0.00  0.00    -0.080 A 
ATOM     22  C   LIG    1       -6.392  -3.491   4.994  0.00  0.00    +0.110 A 
ATOM     23  C   LIG    1       -7.353  -4.362   5.461  0.00  0.00    +0.050 A 
ATOM     24  C   LIG    1       -7.208  -5.726   5.272  0.00  0.00    +0.020 A 
ATOM     25  C   LIG    1       -6.097  -6.227   4.612  0.00  0.00    -0.040 A 
ATOM     26 CL   LIG    1       -8.425  -6.814   5.864  0.00  0.00    +0.010 Cl
ATOM     27  C   LIG    1       -5.131  -5.368   4.135  0.00  0.00    +0.150 A 
BRANCH  25  28
ATOM     28  N   LIG    1       -5.951  -7.686   4.414  0.00  0.00    +0.020 N 
ATOM     29  O   LIG    1       -6.807  -8.446   4.831  0.00  0.00    -0.130 OA
ATOM     30  O   LIG    1       -4.975  -8.128   3.835  0.00  0.00    -0.150 OA
ENDBRANCH  25  28
ENDBRANCH  20  21
ENDBRANCH  17  19
ENDBRANCH   6  15
BRANCH   4  31
ATOM     31  S   LIG    1       -0.046   1.414  -0.018  0.00  0.00    +2.680 S 
ATOM     32  O   LIG    1        1.131   2.211  -0.035  0.00  0.00    -0.950 OA
ATOM     33  O   LIG    1       -0.023  -0.006  -0.021  0.00  0.00    -0.940 OA
BRANCH  31  34
ATOM     34  N   LIG    1       -0.940   1.871  -1.335  0.00  0.00    -0.990 NA
ATOM     35  C   LIG    1       -1.923   0.954  -1.927  0.00  0.00    +0.290 C 
ATOM     36  C   LIG    1       -3.277   1.674  -2.005  0.00  0.00    +0.010 C 
ATOM     37  C   LIG    1       -3.106   2.989  -2.769  0.00  0.00    +0.020 C 
ATOM     38  C   LIG    1       -2.123   3.892  -2.019  0.00  0.00    +0.010 C 
ATOM     39  C   LIG    1       -0.760   3.199  -1.938  0.00  0.00    +0.290 C 
ENDBRANCH  31  34
ENDBRANCH   4  31
TORSDOF 7
