REMARK  Name = ZINCAx0000000bqT.0
REMARK                            x       y       z     vdW  Elec       q    Type
REMARK                         _______ _______ _______ _____ _____    ______ ____
ROOT
ATOM      1  N   LIG    1       -1.885  11.093  -1.763  0.00  0.00    -0.410 NA
ATOM      2  C   LIG    1       -3.053  10.217  -1.985  0.00  0.00    +0.180 C 
ATOM      3  C   LIG    1       -2.107   9.234  -2.668  0.00  0.00    -0.060 C 
ATOM      4  C   LIG    1       -2.377   7.749  -2.393  0.00  0.00    +0.030 C 
ATOM      5  C   LIG    1       -2.940   7.217  -3.737  0.00  0.00    +0.020 C 
ATOM      6  C   LIG    1       -2.111   7.993  -4.791  0.00  0.00    +0.010 C 
ATOM      7  C   LIG    1       -1.942   9.402  -4.179  0.00  0.00    +0.050 C 
ATOM      8  C   LIG    1       -1.036   9.886  -1.800  0.00  0.00    +0.130 C 
ENDROOT
BRANCH   8   9
ATOM      9  C   LIG    1       -0.868   9.227  -0.456  0.00  0.00    +0.520 C 
ATOM     10  N   LIG    1        0.336   8.749  -0.085  0.00  0.00    -0.610 N 
ATOM     11  C   LIG    1        0.543   8.213   1.268  0.00  0.00    +0.280 C 
ATOM     12  C   LIG    1        1.115   6.795   1.152  0.00  0.00    +0.040 C 
ATOM     13  C   LIG    1        2.356   6.820   0.270  0.00  0.00    -0.040 C 
ATOM     14  C   LIG    1        3.459   7.680   0.916  0.00  0.00    +0.250 C 
ATOM     15  O   LIG    1        4.658   6.961   0.576  0.00  0.00    -0.300 OA
ATOM     16  C   LIG    1        4.361   5.643   0.409  0.00  0.00    +0.110 A 
ATOM     17  C   LIG    1        5.200   4.532   0.410  0.00  0.00    -0.010 A 
ATOM     18  C   LIG    1        4.684   3.269   0.206  0.00  0.00    +0.050 A 
ATOM     19  C   LIG    1        3.329   3.095  -0.008  0.00  0.00    -0.020 A 
ATOM     20  C   LIG    1        2.487   4.193  -0.004  0.00  0.00    +0.060 A 
ATOM     21  C   LIG    1        2.030   7.335  -1.126  0.00  0.00    +0.040 C 
ATOM     22  C   LIG    1        2.998   5.455   0.203  0.00  0.00    -0.160 A 
ATOM     23  C   LIG    1        1.465   8.757  -1.025  0.00  0.00    +0.280 C 
ATOM     24  O   LIG    1       -1.817   9.127   0.293  0.00  0.00    -0.520 OA
ENDBRANCH   8   9
BRANCH   1  26
ATOM     25  C   LIG    1       -0.499  12.100  -0.014  0.00  0.00    +0.050 C 
ATOM     26  C   LIG    1       -1.913  11.676  -0.415  0.00  0.00    +0.210 C 
BRANCH  26  27
ATOM     27  C   LIG    1       -2.820  12.880  -0.407  0.00  0.00    +0.440 A 
ATOM     28  N   LIG    1       -3.692  13.041   0.573  0.00  0.00    -0.630 NA
ATOM     29  C   LIG    1       -4.491  14.106   0.586  0.00  0.00    +0.630 A 
ATOM     30  N   LIG    1       -4.418  15.001  -0.392  0.00  0.00    -0.660 NA
ATOM     31  C   LIG    1       -3.544  14.833  -1.379  0.00  0.00    +0.620 A 
ATOM     32  N   LIG    1       -2.744  13.768  -1.382  0.00  0.00    -0.610 NA
BRANCH  31  33
ATOM     33  N   LIG    1       -3.464  15.760  -2.397  0.00  0.00    -0.810 N 
ATOM     34  H   LIG    1       -4.047  16.535  -2.394  0.00  0.00    +0.410 HD
ATOM     35  H   LIG    1       -2.825  15.636  -3.117  0.00  0.00    +0.420 HD
ENDBRANCH  31  33
BRANCH  29  36
ATOM     36  N   LIG    1       -5.397  14.276   1.613  0.00  0.00    -0.580 N 
ATOM     37  C   LIG    1       -5.477  13.288   2.692  0.00  0.00    +0.300 C 
ATOM     38  C   LIG    1       -6.280  15.445   1.623  0.00  0.00    +0.300 C 
ENDBRANCH  29  36
ENDBRANCH  26  27
ENDBRANCH   1  26
TORSDOF 5
