REMARK  Name = ZINCpk00000y6x1M.0
REMARK                            x       y       z     vdW  Elec       q    Type
REMARK                         _______ _______ _______ _____ _____    ______ ____
ROOT
ATOM      1  C   LIG    1        3.371   7.116  -1.798  0.00  0.00    +0.290 C 
ATOM      2  C   LIG    1        3.569   5.880  -0.916  0.00  0.00    +0.190 C 
ATOM      3  N   LIG    1        2.321   5.103  -0.883  0.00  0.00    -0.510 NA
ATOM      4  C   LIG    1        1.925   4.696  -2.239  0.00  0.00    +0.160 C 
ATOM      5  C   LIG    1        1.744   5.944  -3.108  0.00  0.00    +0.250 C 
ATOM      6  O   LIG    1        2.956   6.702  -3.103  0.00  0.00    -0.390 OA
ENDROOT
BRANCH   1  10
ATOM      7  C   LIG    1        6.425   8.888  -2.657  0.00  0.00    +0.180 A 
ATOM      8  N   LIG    1        6.429   8.919  -1.352  0.00  0.00    -0.280 NA
ATOM      9  N   LIG    1        5.386   8.317  -0.902  0.00  0.00    -0.270 NA
ATOM     10  C   LIG    1        4.669   7.875  -1.899  0.00  0.00    +0.180 A 
ATOM     11  N   LIG    1        5.310   8.221  -3.041  0.00  0.00    -0.560 N 
ATOM     12  H   LIG    1        5.028   8.031  -3.949  0.00  0.00    +0.430 HD
BRANCH   7  13
ATOM     13  C   LIG    1        7.469   9.481  -3.568  0.00  0.00    +0.150 C 
BRANCH  13  15
ATOM     14  C   LIG    1        8.711  11.566  -4.163  0.00  0.00    +0.020 C 
ATOM     15  C   LIG    1        7.651  10.964  -3.238  0.00  0.00    +0.020 C 
ENDBRANCH  13  15
ENDBRANCH   7  13
ENDBRANCH   1  10
BRANCH   3  16
ATOM     16  C   LIG    1        2.451   3.936  -0.000  0.00  0.00    +0.190 C 
BRANCH  16  17
ATOM     17  C   LIG    1        1.156   3.166   0.008  0.00  0.00    -0.100 A 
ATOM     18  C   LIG    1        1.175   1.783   0.000  0.00  0.00    +0.050 A 
ATOM     19  C   LIG    1       -0.013   1.076   0.008  0.00  0.00    -0.010 A 
ATOM     20  C   LIG    1       -1.221   1.752   0.017  0.00  0.00    +0.110 A 
ATOM     21  C   LIG    1       -1.238   3.136   0.030  0.00  0.00    -0.010 A 
ATOM     22  F   LIG    1       -2.382   1.062   0.019  0.00  0.00    -0.140 F 
ATOM     23  C   LIG    1       -0.050   3.842   0.023  0.00  0.00    +0.090 A 
ENDBRANCH  16  17
BRANCH  16  24
ATOM     24  C   LIG    1        2.770   4.397   1.399  0.00  0.00    +0.530 C 
ATOM     25  O   LIG    1        2.879   5.582   1.637  0.00  0.00    -0.510 OA
ATOM     26  N   LIG    1        2.935   3.494   2.385  0.00  0.00    -0.850 N 
ATOM     27  H   LIG    1        3.140   3.791   3.285  0.00  0.00    +0.410 HD
ATOM     28  H   LIG    1        2.848   2.547   2.195  0.00  0.00    +0.400 HD
ENDBRANCH  16  24
ENDBRANCH   3  16
TORSDOF 6
