REMARK  Name = ZINCpk00000y6x1M.1
REMARK                            x       y       z     vdW  Elec       q    Type
REMARK                         _______ _______ _______ _____ _____    ______ ____
ROOT
ATOM      1  C   LIG    1        0.551  -1.258   5.190  0.00  0.00    +0.300 C 
ATOM      2  C   LIG    1       -0.015  -0.747   6.518  0.00  0.00    +0.180 C 
ATOM      3  N   LIG    1        0.049  -1.823   7.518  0.00  0.00    -0.510 NA
ATOM      4  C   LIG    1        1.434  -2.281   7.703  0.00  0.00    +0.150 C 
ATOM      5  C   LIG    1        1.985  -2.776   6.363  0.00  0.00    +0.250 C 
ATOM      6  O   LIG    1        1.886  -1.728   5.395  0.00  0.00    -0.370 OA
ENDROOT
BRANCH   1   9
ATOM      7  C   LIG    1        0.000   1.080   2.488  0.00  0.00    +0.290 A 
ATOM      8  N   LIG    1       -0.290   0.001   3.168  0.00  0.00    -0.520 NA
ATOM      9  C   LIG    1        0.562  -0.136   4.183  0.00  0.00    +0.230 A 
ATOM     10  N   LIG    1        1.405   0.862   4.167  0.00  0.00    -0.290 NA
ATOM     11  N   LIG    1        1.059   1.669   3.071  0.00  0.00    -0.480 N 
ATOM     12  H   LIG    1        1.496   2.487   2.790  0.00  0.00    +0.440 HD
BRANCH   7  13
ATOM     13  C   LIG    1       -0.729   1.579   1.267  0.00  0.00    +0.160 C 
BRANCH  13  15
ATOM     14  C   LIG    1       -0.753   1.593  -1.232  0.00  0.00    +0.030 C 
ATOM     15  C   LIG    1       -0.013   1.086   0.008  0.00  0.00    +0.010 C 
ENDBRANCH  13  15
ENDBRANCH   7  13
ENDBRANCH   1   9
BRANCH   3  16
ATOM     16  C   LIG    1       -0.537  -1.391   8.794  0.00  0.00    +0.190 C 
BRANCH  16  17
ATOM     17  C   LIG    1       -0.454  -2.518   9.791  0.00  0.00    -0.100 A 
ATOM     18  C   LIG    1       -0.704  -3.816   9.389  0.00  0.00    +0.090 A 
ATOM     19  C   LIG    1       -0.624  -4.851  10.302  0.00  0.00    -0.010 A 
ATOM     20  C   LIG    1       -0.303  -4.585  11.622  0.00  0.00    +0.110 A 
ATOM     21  C   LIG    1       -0.058  -3.283  12.025  0.00  0.00    -0.010 A 
ATOM     22  F   LIG    1       -0.228  -5.595  12.517  0.00  0.00    -0.140 F 
ATOM     23  C   LIG    1       -0.134  -2.251  11.109  0.00  0.00    +0.050 A 
ENDBRANCH  16  17
BRANCH  16  24
ATOM     24  C   LIG    1       -1.981  -1.014   8.581  0.00  0.00    +0.530 C 
ATOM     25  O   LIG    1       -2.473  -1.097   7.475  0.00  0.00    -0.510 OA
ATOM     26  N   LIG    1       -2.725  -0.585   9.619  0.00  0.00    -0.850 N 
ATOM     27  H   LIG    1       -3.654  -0.342   9.482  0.00  0.00    +0.410 HD
ATOM     28  H   LIG    1       -2.332  -0.519  10.503  0.00  0.00    +0.400 HD
ENDBRANCH  16  24
ENDBRANCH   3  16
TORSDOF 6
