REMARK  Name = ZINCpk00000y6x1M.2
REMARK                            x       y       z     vdW  Elec       q    Type
REMARK                         _______ _______ _______ _____ _____    ______ ____
ROOT
ATOM      1  C   LIG    1        2.088  -1.216   1.717  0.00  0.00    +0.290 C 
ATOM      2  C   LIG    1        1.250  -2.351   2.309  0.00  0.00    +0.190 C 
ATOM      3  N   LIG    1        1.734  -3.636   1.784  0.00  0.00    -0.510 NA
ATOM      4  C   LIG    1        3.153  -3.833   2.114  0.00  0.00    +0.160 C 
ATOM      5  C   LIG    1        3.972  -2.682   1.524  0.00  0.00    +0.250 C 
ATOM      6  O   LIG    1        3.468  -1.440   2.021  0.00  0.00    -0.390 OA
ENDROOT
BRANCH   1  11
ATOM      7  C   LIG    1        0.405   1.756   2.920  0.00  0.00    +0.230 A 
ATOM      8  N   LIG    1        1.612   2.051   3.324  0.00  0.00    -0.310 NA
ATOM      9  N   LIG    1        2.441   0.984   2.938  0.00  0.00    -0.460 N 
ATOM     10  H   LIG    1        3.395   0.904   3.094  0.00  0.00    +0.450 HD
ATOM     11  C   LIG    1        1.649   0.098   2.311  0.00  0.00    +0.290 A 
ATOM     12  N   LIG    1        0.430   0.573   2.307  0.00  0.00    -0.530 NA
BRANCH   7  13
ATOM     13  C   LIG    1       -0.817   2.618   3.110  0.00  0.00    +0.150 C 
BRANCH  13  15
ATOM     14  C   LIG    1       -2.738   3.127   4.624  0.00  0.00    +0.030 C 
ATOM     15  C   LIG    1       -1.498   2.253   4.431  0.00  0.00    +0.010 C 
ENDBRANCH  13  15
ENDBRANCH   7  13
ENDBRANCH   1  11
BRANCH   3  16
ATOM     16  C   LIG    1        0.917  -4.750   2.285  0.00  0.00    +0.180 C 
BRANCH  16  17
ATOM     17  C   LIG    1        1.344  -6.029   1.610  0.00  0.00    -0.100 A 
ATOM     18  C   LIG    1        1.536  -6.056   0.242  0.00  0.00    +0.100 A 
ATOM     19  C   LIG    1        1.932  -7.226  -0.378  0.00  0.00    -0.020 A 
ATOM     20  C   LIG    1        2.126  -8.374   0.372  0.00  0.00    +0.110 A 
ATOM     21  C   LIG    1        1.928  -8.347   1.742  0.00  0.00    -0.020 A 
ATOM     22  F   LIG    1        2.508  -9.520  -0.233  0.00  0.00    -0.140 F 
ATOM     23  C   LIG    1        1.537  -7.174   2.360  0.00  0.00    +0.050 A 
ENDBRANCH  16  17
BRANCH  16  24
ATOM     24  C   LIG    1       -0.535  -4.484   1.985  0.00  0.00    +0.520 C 
ATOM     25  O   LIG    1       -0.841  -3.797   1.034  0.00  0.00    -0.510 OA
ATOM     26  N   LIG    1       -1.494  -5.010   2.773  0.00  0.00    -0.850 N 
ATOM     27  H   LIG    1       -2.429  -4.838   2.579  0.00  0.00    +0.410 HD
ATOM     28  H   LIG    1       -1.249  -5.560   3.533  0.00  0.00    +0.400 HD
ENDBRANCH  16  24
ENDBRANCH   3  16
TORSDOF 6
