REMARK  Name = ZINCrD000000CQXe.0
REMARK                            x       y       z     vdW  Elec       q    Type
REMARK                         _______ _______ _______ _____ _____    ______ ____
ROOT
ATOM      1  O   LIG    1       -3.009   2.930   1.545  0.00  0.00    -0.530 OA
ATOM      2  C   LIG    1       -2.232   2.342   0.823  0.00  0.00    +0.520 C 
ATOM      3  C   LIG    1       -2.413   2.141  -0.669  0.00  0.00    +0.080 C 
ATOM      4  C   LIG    1       -1.029   1.700  -1.148  0.00  0.00    -0.090 C 
ATOM      5  C   LIG    1       -0.376   1.131   0.110  0.00  0.00    +0.290 C 
ATOM      6  C   LIG    1       -0.225   2.859  -1.751  0.00  0.00    +0.070 C 
ATOM      7  C   LIG    1       -0.653   2.834  -3.237  0.00  0.00    +0.230 C 
ATOM      8  N   LIG    1       -1.193   1.494  -3.516  0.00  0.00    -0.630 N 
ATOM      9  C   LIG    1       -1.690   1.078  -4.698  0.00  0.00    +0.720 C 
ATOM     10  N   LIG    1       -1.718   1.920  -5.750  0.00  0.00    -0.680 N 
ATOM     11  H   LIG    1       -1.454   2.846  -5.637  0.00  0.00    +0.410 HD
ATOM     12  O   LIG    1       -2.112  -0.056  -4.815  0.00  0.00    -0.570 OA
ATOM     13  C   LIG    1       -1.103   0.678  -2.286  0.00  0.00    +0.310 C 
ATOM     14  N   LIG    1       -1.081   1.770   1.233  0.00  0.00    -0.730 N 
ATOM     15  H   LIG    1       -0.758   1.779   2.147  0.00  0.00    +0.410 HD
ENDROOT
BRANCH  10  16
ATOM     16  C   LIG    1       -2.130   1.457  -7.005  0.00  0.00    +0.170 A 
ATOM     17  C   LIG    1       -2.810   2.305  -7.870  0.00  0.00    -0.010 A 
ATOM     18  C   LIG    1       -3.217   1.852  -9.110  0.00  0.00    +0.040 A 
ATOM     19  C   LIG    1       -2.950   0.554  -9.497  0.00  0.00    +0.010 A 
ATOM     20  C   LIG    1       -2.268  -0.304  -8.636  0.00  0.00    -0.030 A 
ATOM     21  C   LIG    1       -1.852   0.153  -7.389  0.00  0.00    +0.030 A 
BRANCH  20  22
ATOM     22  C   LIG    1       -1.979  -1.700  -9.051  0.00  0.00    -0.020 A 
ATOM     23  C   LIG    1       -2.390  -2.155 -10.302  0.00  0.00    +0.060 A 
ATOM     24  C   LIG    1       -2.120  -3.454 -10.684  0.00  0.00    +0.030 A 
ATOM     25  C   LIG    1       -1.442  -4.304  -9.828  0.00  0.00    +0.070 A 
ATOM     26  C   LIG    1       -1.030  -3.855  -8.581  0.00  0.00    +0.070 A 
ATOM     27  F   LIG    1       -0.368  -4.688  -7.748  0.00  0.00    -0.130 F 
ATOM     28  F   LIG    1       -1.180  -5.574 -10.207  0.00  0.00    -0.130 F 
ATOM     29  C   LIG    1       -1.292  -2.555  -8.192  0.00  0.00    +0.030 A 
ENDBRANCH  20  22
ENDBRANCH  10  16
TORSDOF 2
