REMARK  Name = ZINCpk000000mURG.0
REMARK                            x       y       z     vdW  Elec       q    Type
REMARK                         _______ _______ _______ _____ _____    ______ ____
ROOT
ATOM      1  C   LIG    1       -0.475   1.431  -1.252  0.00  0.00    -0.020 C 
ATOM      2  C   LIG    1       -0.594   2.956  -1.196  0.00  0.00    +0.020 C 
ATOM      3  C   LIG    1       -1.554   3.434  -2.287  0.00  0.00    +0.030 C 
ATOM      4  C   LIG    1       -1.000   3.042  -3.660  0.00  0.00    +0.290 C 
ATOM      5  N   LIG    1       -0.746   1.595  -3.672  0.00  0.00    -0.560 N 
ATOM      6  C   LIG    1        0.092   1.016  -2.613  0.00  0.00    +0.310 C 
ENDROOT
BRANCH   5   7
ATOM      7  C   LIG    1       -1.286   0.794  -4.660  0.00  0.00    +0.500 A 
ATOM      8  N   LIG    1       -1.149  -0.511  -4.598  0.00  0.00    -0.530 NA
ATOM      9  C   LIG    1       -1.675  -1.318  -5.552  0.00  0.00    +0.170 A 
ATOM     10  C   LIG    1       -1.518  -2.707  -5.456  0.00  0.00    +0.060 A 
ATOM     11  C   LIG    1       -2.046  -3.526  -6.426  0.00  0.00    +0.060 A 
ATOM     12  C   LIG    1       -2.736  -2.988  -7.503  0.00  0.00    +0.020 A 
ATOM     13  C   LIG    1       -2.900  -1.624  -7.615  0.00  0.00    +0.060 A 
ATOM     14  C   LIG    1       -2.374  -0.777  -6.646  0.00  0.00    +0.030 A 
ATOM     15  N   LIG    1       -2.536   0.593  -6.750  0.00  0.00    -0.200 N 
ATOM     16  N   LIG    1       -3.109   1.364  -7.605  0.00  0.00    -0.080 NA
ATOM     17  N   LIG    1       -2.970   2.588  -7.230  0.00  0.00    -0.050 NA
ATOM     18  N   LIG    1       -2.306   2.637  -6.125  0.00  0.00    -0.260 NA
ATOM     19  C   LIG    1       -2.009   1.398  -5.782  0.00  0.00    +0.130 A 
ENDBRANCH   5   7
BRANCH   1  20
ATOM     20  C   LIG    1        0.461   0.951  -0.141  0.00  0.00    +0.030 C 
BRANCH  20  21
ATOM     21  C   LIG    1       -0.165   1.256   1.221  0.00  0.00    +0.260 C 
BRANCH  21  24
ATOM     22  C   LIG    1        1.305   0.488   4.671  0.00  0.00    +0.090 C 
ATOM     23  C   LIG    1        0.384   0.961   3.576  0.00  0.00    +0.510 C 
ATOM     24  N   LIG    1        0.731   0.796   2.285  0.00  0.00    -0.730 N 
ATOM     25  H   LIG    1        1.574   0.373   2.059  0.00  0.00    +0.400 HD
ATOM     26  O   LIG    1       -0.671   1.491   3.858  0.00  0.00    -0.550 OA
ENDBRANCH  21  24
ENDBRANCH  20  21
ENDBRANCH   1  20
TORSDOF 4
