REMARK  Name = ZINCvU0000000Ex5.0
REMARK                            x       y       z     vdW  Elec       q    Type
REMARK                         _______ _______ _______ _____ _____    ______ ____
ROOT
ATOM      1  C   LIG    1       -3.863  -2.122  -1.092  0.00  0.00    +0.290 A 
ATOM      2  N   LIG    1       -3.093  -3.155  -0.912  0.00  0.00    -0.480 NA
ATOM      3  C   LIG    1       -3.519  -4.183  -1.691  0.00  0.00    +0.050 A 
ATOM      4  C   LIG    1       -3.073  -5.493  -1.886  0.00  0.00    +0.070 A 
ATOM      5  C   LIG    1       -3.724  -6.309  -2.767  0.00  0.00    +0.000 A 
ATOM      6  C   LIG    1       -4.827  -5.851  -3.474  0.00  0.00    +0.030 A 
ATOM      7  C   LIG    1       -5.284  -4.562  -3.298  0.00  0.00    +0.000 A 
ATOM      8  C   LIG    1       -4.636  -3.719  -2.406  0.00  0.00    +0.060 A 
ATOM      9  N   LIG    1       -4.828  -2.412  -2.006  0.00  0.00    -0.480 N 
ENDROOT
BRANCH   1  12
ATOM     10  N   LIG    1       -1.911   0.492   0.542  0.00  0.00    -0.570 N 
ATOM     11  C   LIG    1       -2.323  -0.173  -0.700  0.00  0.00    +0.300 C 
ATOM     12  C   LIG    1       -3.704  -0.795  -0.396  0.00  0.00    +0.080 C 
ATOM     13  C   LIG    1       -3.635  -0.979   1.138  0.00  0.00    +0.090 C 
ATOM     14  C   LIG    1       -2.624   0.050   1.592  0.00  0.00    +0.530 C 
ATOM     15  O   LIG    1       -2.479   0.423   2.737  0.00  0.00    -0.510 OA
BRANCH  10  20
ATOM     16  C   LIG    1        2.182   4.407   0.868  0.00  0.00    +0.090 C 
ATOM     17  C   LIG    1        1.094   3.367   0.782  0.00  0.00    -0.070 A 
ATOM     18  C   LIG    1       -0.213   3.753   0.550  0.00  0.00    +0.010 A 
ATOM     19  C   LIG    1       -1.212   2.803   0.470  0.00  0.00    +0.020 A 
ATOM     20  C   LIG    1       -0.902   1.458   0.623  0.00  0.00    +0.130 A 
ATOM     21  C   LIG    1        0.412   1.073   0.856  0.00  0.00    -0.070 A 
ATOM     22  C   LIG    1        0.753  -0.386   1.022  0.00  0.00    +0.100 C 
ATOM     23  C   LIG    1        1.406   2.029   0.935  0.00  0.00    +0.010 A 
ENDBRANCH  10  20
ENDBRANCH   1  12
BRANCH   9  24
ATOM     24  C   LIG    1       -5.878  -1.505  -2.477  0.00  0.00    +0.350 C 
BRANCH  24  25
ATOM     25  C   LIG    1       -5.343  -0.659  -3.604  0.00  0.00    -0.120 A 
ATOM     26  C   LIG    1       -4.450   0.362  -3.338  0.00  0.00    +0.010 A 
ATOM     27  C   LIG    1       -3.959   1.137  -4.372  0.00  0.00    +0.010 A 
ATOM     28  C   LIG    1       -4.362   0.892  -5.671  0.00  0.00    +0.030 A 
ATOM     29  C   LIG    1       -5.255  -0.129  -5.937  0.00  0.00    +0.010 A 
ATOM     30  C   LIG    1       -5.741  -0.908  -4.904  0.00  0.00    -0.060 A 
ATOM     31  C   LIG    1       -6.710  -2.025  -5.195  0.00  0.00    +0.090 C 
ENDBRANCH  24  25
ENDBRANCH   9  24
TORSDOF 4
