REMARK  Name = ZINCqH00000054FK.1
REMARK                            x       y       z     vdW  Elec       q    Type
REMARK                         _______ _______ _______ _____ _____    ______ ____
ROOT
ATOM      1  N   LIG    1       -6.095   1.762  -1.036  0.00  0.00    -0.730 N 
ATOM      2  H   LIG    1       -6.065   2.643  -1.439  0.00  0.00    +0.400 HD
ATOM      3  C   LIG    1       -4.952   1.082  -0.816  0.00  0.00    +0.570 C 
ATOM      4  O   LIG    1       -4.989  -0.024  -0.310  0.00  0.00    -0.530 OA
ENDROOT
BRANCH   3   5
ATOM      5  C   LIG    1       -3.667   1.674  -1.186  0.00  0.00    -0.240 C 
ATOM      6  C   LIG    1       -2.515   0.993  -0.966  0.00  0.00    +0.170 C 
ATOM      7  C   LIG    1       -1.249   1.643  -1.339  0.00  0.00    -0.150 A 
ATOM      8  C   LIG    1       -0.066   0.917  -1.463  0.00  0.00    +0.120 A 
ATOM      9  C   LIG    1        1.097   1.568  -1.823  0.00  0.00    -0.120 A 
ATOM     10  C   LIG    1        1.092   2.934  -2.053  0.00  0.00    +0.110 A 
ATOM     11  C   LIG    1       -0.075   3.666  -1.926  0.00  0.00    +0.010 A 
ATOM     12 BR   LIG    1        2.706   0.590  -2.002  0.00  0.00    -0.040 Br
ATOM     13  C   LIG    1       -1.250   3.031  -1.567  0.00  0.00    +0.160 A 
ATOM     14  O   LIG    1       -2.410   3.719  -1.433  0.00  0.00    -0.300 OA
ATOM     15  C   LIG    1       -3.617   3.043  -1.813  0.00  0.00    +0.300 C 
ENDBRANCH   3   5
BRANCH   1  16
ATOM     16  C   LIG    1       -7.382   1.169  -0.666  0.00  0.00    +0.260 C 
BRANCH  16  17
ATOM     17  C   LIG    1       -8.494   2.201  -0.861  0.00  0.00    +0.210 C 
BRANCH  17  18
ATOM     18  C   LIG    1       -9.826   1.570  -0.548  0.00  0.00    -0.040 A 
ATOM     19  C   LIG    1      -10.193   1.346   0.766  0.00  0.00    +0.020 A 
ATOM     20  C   LIG    1      -11.417   0.771   1.055  0.00  0.00    +0.040 A 
ATOM     21  C   LIG    1      -12.271   0.411   0.030  0.00  0.00    -0.010 A 
ATOM     22  C   LIG    1      -11.902   0.630  -1.287  0.00  0.00    +0.100 A 
ATOM     23  F   LIG    1      -12.737   0.279  -2.289  0.00  0.00    -0.140 F 
ATOM     24  C   LIG    1      -10.679   1.211  -1.575  0.00  0.00    -0.020 A 
ENDBRANCH  17  18
BRANCH  17  26
ATOM     25  C   LIG    1       -7.522   2.927   1.234  0.00  0.00    +0.200 C 
ATOM     26  N   LIG    1       -8.268   3.340   0.039  0.00  0.00    -0.530 NA
ATOM     27  C   LIG    1       -7.580   4.434  -0.659  0.00  0.00    +0.200 C 
ENDBRANCH  17  26
ENDBRANCH  16  17
ENDBRANCH   1  16
TORSDOF 5
