REMARK  Name = ZINCrD0000072FoS.0
REMARK                            x       y       z     vdW  Elec       q    Type
REMARK                         _______ _______ _______ _____ _____    ______ ____
ROOT
ATOM      1  C   LIG    1       -0.022   1.758   0.012  0.00  0.00    +0.150 A 
ATOM      2  N   LIG    1       -1.088   2.524   0.020  0.00  0.00    -0.290 NA
ATOM      3  N   LIG    1       -0.738   3.761   0.029  0.00  0.00    -0.250 NA
ATOM      4  C   LIG    1        0.562   3.860   0.017  0.00  0.00    +0.190 A 
ATOM      5  N   LIG    1        1.067   2.586   0.006  0.00  0.00    -0.410 N 
ENDROOT
BRANCH   5   6
ATOM      6  C   LIG    1        2.418   2.211  -0.010  0.00  0.00    +0.100 A 
ATOM      7  C   LIG    1        3.236   2.513   1.070  0.00  0.00    +0.030 A 
ATOM      8  C   LIG    1        4.565   2.138   1.054  0.00  0.00    +0.040 A 
ATOM      9  C   LIG    1        5.083   1.471  -0.041  0.00  0.00    +0.030 A 
ATOM     10  C   LIG    1        4.272   1.173  -1.120  0.00  0.00    +0.040 A 
ATOM     11  C   LIG    1        2.941   1.541  -1.108  0.00  0.00    +0.040 A 
ENDBRANCH   5   6
BRANCH   1  12
ATOM     12  S   LIG    1        0.002  -0.004   0.002  0.00  0.00    +0.100 S 
BRANCH  12  13
ATOM     13  C   LIG    1       -1.776  -0.343   0.017  0.00  0.00    +0.110 C 
BRANCH  13  17
ATOM     14  C   LIG    1       -3.481  -3.770   0.015  0.00  0.00    +0.290 C 
ATOM     15  N   LIG    1       -3.259  -2.322   0.021  0.00  0.00    -0.730 N 
ATOM     16  H   LIG    1       -4.016  -1.716   0.031  0.00  0.00    +0.410 HD
ATOM     17  C   LIG    1       -2.004  -1.832   0.011  0.00  0.00    +0.530 C 
ATOM     18  O   LIG    1       -1.057  -2.590  -0.002  0.00  0.00    -0.520 OA
ENDBRANCH  13  17
ENDBRANCH  12  13
ENDBRANCH   1  12
BRANCH   4  19
ATOM     19  C   LIG    1        1.360   5.138   0.016  0.00  0.00    +0.330 C 
BRANCH  19  20
ATOM     20  O   LIG    1        1.599   5.548  -1.332  0.00  0.00    -0.320 OA
BRANCH  20  21
ATOM     21  C   LIG    1        2.312   6.692  -1.511  0.00  0.00    +0.080 A 
ATOM     22  C   LIG    1        1.657   7.912  -1.595  0.00  0.00    -0.090 A 
ATOM     23  C   LIG    1        2.384   9.074  -1.771  0.00  0.00    +0.010 A 
ATOM     24  C   LIG    1        3.761   9.019  -1.876  0.00  0.00    +0.020 A 
ATOM     25  C   LIG    1        4.416   7.804  -1.799  0.00  0.00    +0.010 A 
ATOM     26  C   LIG    1        0.155   7.971  -1.487  0.00  0.00    +0.100 C 
ATOM     27  C   LIG    1        3.694   6.640  -1.617  0.00  0.00    -0.090 A 
ATOM     28  C   LIG    1        4.407   5.315  -1.533  0.00  0.00    +0.090 C 
ENDBRANCH  20  21
ENDBRANCH  19  20
ENDBRANCH   4  19
TORSDOF 7
