REMARK  Name = ZINCpe000000XZgP.0
REMARK                            x       y       z     vdW  Elec       q    Type
REMARK                         _______ _______ _______ _____ _____    ______ ____
ROOT
ATOM      1  C   LIG    1       -1.167   2.230   0.256  0.00  0.00    +0.610 C 
ATOM      2  N   LIG    1       -0.091   1.464  -0.009  0.00  0.00    -0.600 N 
ATOM      3  C   LIG    1       -0.231   0.008  -0.093  0.00  0.00    +0.300 C 
ATOM      4  O   LIG    1       -1.075   3.443   0.220  0.00  0.00    -0.510 OA
ENDROOT
BRANCH   1   7
ATOM      5  C   LIG    1       -3.805   3.738   0.594  0.00  0.00    +0.170 C 
ATOM      6  C   LIG    1       -3.650   2.247   0.747  0.00  0.00    +0.160 A 
ATOM      7  C   LIG    1       -2.452   1.602   0.588  0.00  0.00    -0.310 A 
ATOM      8  S   LIG    1       -2.728  -0.117   0.862  0.00  0.00    +0.290 S 
ATOM      9  C   LIG    1       -4.386   0.183   1.150  0.00  0.00    +0.070 A 
ATOM     10  N   LIG    1       -4.645   1.454   1.038  0.00  0.00    -0.440 NA
BRANCH   9  11
ATOM     11  C   LIG    1       -5.386  -0.856   1.480  0.00  0.00    +0.380 A 
ATOM     12  N   LIG    1       -5.000  -2.123   1.561  0.00  0.00    -0.510 NA
ATOM     13  C   LIG    1       -5.867  -3.075   1.859  0.00  0.00    +0.340 A 
ATOM     14  C   LIG    1       -7.195  -2.737   2.077  0.00  0.00    -0.060 A 
ATOM     15  C   LIG    1       -7.565  -1.403   1.978  0.00  0.00    +0.330 A 
ATOM     16  N   LIG    1       -6.648  -0.500   1.682  0.00  0.00    -0.470 NA
ENDBRANCH   9  11
ENDBRANCH   1   7
BRANCH   2  17
ATOM     17  C   LIG    1        1.218   2.088  -0.218  0.00  0.00    +0.330 C 
BRANCH  17  18
ATOM     18  C   LIG    1        1.394   2.408  -1.680  0.00  0.00    +0.500 C 
ATOM     19  N   LIG    1        2.531   2.991  -2.110  0.00  0.00    -0.620 N 
ATOM     20  C   LIG    1        3.611   3.329  -1.170  0.00  0.00    +0.240 C 
ATOM     21  C   LIG    1        4.926   2.761  -1.728  0.00  0.00    +0.220 C 
ATOM     22  O   LIG    1        5.095   3.207  -3.076  0.00  0.00    -0.380 OA
ATOM     23  C   LIG    1        4.081   2.752  -3.975  0.00  0.00    +0.220 C 
ATOM     24  C   LIG    1        2.725   3.313  -3.533  0.00  0.00    +0.260 C 
ATOM     25  O   LIG    1        0.513   2.142  -2.469  0.00  0.00    -0.520 OA
ENDBRANCH  17  18
ENDBRANCH   2  17
TORSDOF 4
