REMARK  Name = ZINCtV00000L6jVh.0
REMARK                            x       y       z     vdW  Elec       q    Type
REMARK                         _______ _______ _______ _____ _____    ______ ____
ROOT
ATOM      1  C   LIG    1        1.143  -0.658   0.205  0.00  0.00    +0.440 A 
ATOM      2  N   LIG    1       -0.002   0.001   0.073  0.00  0.00    -0.580 NA
ATOM      3  C   LIG    1       -0.015   1.324  -0.048  0.00  0.00    +0.510 A 
ATOM      4  C   LIG    1        1.209   2.008  -0.033  0.00  0.00    -0.280 A 
ATOM      5  C   LIG    1        2.399   1.274   0.109  0.00  0.00    +0.340 A 
ATOM      6  O   LIG    1        3.422   2.146   0.094  0.00  0.00    -0.160 OA
ATOM      7  C   LIG    1        2.982   3.412  -0.050  0.00  0.00    +0.080 A 
ATOM      8  C   LIG    1        1.616   3.415  -0.136  0.00  0.00    -0.080 A 
ATOM      9  N   LIG    1        2.318  -0.047   0.224  0.00  0.00    -0.540 NA
ENDROOT
BRANCH   1  14
ATOM     10  C   LIG    1        0.994  -6.391   0.718  0.00  0.00    +0.090 C 
ATOM     11  C   LIG    1        1.033  -4.891   0.584  0.00  0.00    -0.060 A 
ATOM     12  C   LIG    1       -0.146  -4.181   0.445  0.00  0.00    +0.000 A 
ATOM     13  C   LIG    1       -0.116  -2.807   0.322  0.00  0.00    +0.080 A 
ATOM     14  C   LIG    1        1.105  -2.134   0.338  0.00  0.00    -0.060 A 
ATOM     15  C   LIG    1        2.290  -2.856   0.472  0.00  0.00    +0.080 A 
ATOM     16  C   LIG    1        2.248  -4.229   0.601  0.00  0.00    +0.000 A 
ENDBRANCH   1  14
BRANCH   7  17
ATOM     17  C   LIG    1        3.841   4.610  -0.104  0.00  0.00    -0.030 A 
ATOM     18  C   LIG    1        4.973   4.626  -0.923  0.00  0.00    +0.040 A 
ATOM     19  C   LIG    1        5.768   5.752  -0.973  0.00  0.00    +0.010 A 
ATOM     20  C   LIG    1        5.453   6.860  -0.207  0.00  0.00    +0.030 A 
ATOM     21  C   LIG    1        4.336   6.850   0.610  0.00  0.00    +0.010 A 
ATOM     22  C   LIG    1        3.528   5.734   0.666  0.00  0.00    +0.050 A 
ENDBRANCH   7  17
BRANCH   8  23
ATOM     23  C   LIG    1        0.733   4.591  -0.300  0.00  0.00    -0.030 A 
ATOM     24  C   LIG    1       -0.131   4.967   0.730  0.00  0.00    +0.010 A 
ATOM     25  C   LIG    1       -0.948   6.068   0.573  0.00  0.00    +0.010 A 
ATOM     26  C   LIG    1       -0.919   6.792  -0.606  0.00  0.00    +0.020 A 
ATOM     27  C   LIG    1       -0.069   6.421  -1.632  0.00  0.00    +0.020 A 
ATOM     28  C   LIG    1        0.757   5.326  -1.486  0.00  0.00    +0.030 A 
ENDBRANCH   8  23
BRANCH   3  29
ATOM     29  N   LIG    1       -1.208   2.010  -0.192  0.00  0.00    -0.820 N 
ATOM     30  H   LIG    1       -1.204   2.976  -0.280  0.00  0.00    +0.410 HD
ATOM     31  H   LIG    1       -2.048   1.525  -0.205  0.00  0.00    +0.410 HD
ENDBRANCH   3  29
TORSDOF 4
