REMARK  Name = ZINCnE000001L5q5.1
REMARK                            x       y       z     vdW  Elec       q    Type
REMARK                         _______ _______ _______ _____ _____    ______ ____
ROOT
ATOM      1  N   LIG    1       -0.657   2.180   4.163  0.00  0.00    -0.630 N 
ATOM      2  C   LIG    1       -0.280   0.892   4.046  0.00  0.00    +0.560 C 
ATOM      3  O   LIG    1       -0.762   0.194   3.174  0.00  0.00    -0.490 OA
ATOM      4  C   LIG    1       -0.011   3.046   5.153  0.00  0.00    +0.260 C 
ENDROOT
BRANCH   2   5
ATOM      5  C   LIG    1        0.718   0.328   4.974  0.00  0.00    -0.290 A 
ATOM      6  C   LIG    1        0.922   0.912   6.226  0.00  0.00    +0.110 A 
ATOM      7  C   LIG    1        1.853   0.377   7.091  0.00  0.00    -0.230 A 
ATOM      8  C   LIG    1        2.596  -0.733   6.720  0.00  0.00    +0.070 A 
ATOM      9  C   LIG    1        2.408  -1.316   5.482  0.00  0.00    -0.150 A 
ATOM     10 BR   LIG    1        2.123   1.164   8.789  0.00  0.00    -0.110 Br
ATOM     11  C   LIG    1        1.472  -0.794   4.602  0.00  0.00    +0.320 A 
ATOM     12  O   LIG    1        1.287  -1.367   3.386  0.00  0.00    -0.670 OA
ENDBRANCH   2   5
BRANCH   1  13
ATOM     13  C   LIG    1       -1.715   2.716   3.302  0.00  0.00    +0.340 C 
BRANCH  13  17
ATOM     14  C   LIG    1        0.024   4.297  -0.271  0.00  0.00    +0.160 A 
ATOM     15  C   LIG    1       -0.340   5.148   0.763  0.00  0.00    -0.140 A 
ATOM     16  C   LIG    1       -0.901   4.634   1.917  0.00  0.00    +0.100 A 
ATOM     17  C   LIG    1       -1.102   3.273   2.043  0.00  0.00    -0.170 A 
ATOM     18  C   LIG    1       -0.741   2.418   1.010  0.00  0.00    +0.190 A 
ATOM     19  C   LIG    1       -0.173   2.931  -0.146  0.00  0.00    -0.120 A 
BRANCH  14  21
ATOM     20  C   LIG    1        0.755   6.220  -1.463  0.00  0.00    +0.230 C 
ATOM     21  O   LIG    1        0.577   4.803  -1.405  0.00  0.00    -0.320 OA
ENDBRANCH  14  21
BRANCH  18  22
ATOM     22  O   LIG    1       -0.939   1.079   1.135  0.00  0.00    -0.250 OA
ATOM     23  C   LIG    1       -0.544   0.260   0.033  0.00  0.00    +0.220 C 
ENDBRANCH  18  22
ENDBRANCH  13  17
ENDBRANCH   1  13
TORSDOF 5
