REMARK  Name = ZINCvU0000000GTa.0
REMARK                            x       y       z     vdW  Elec       q    Type
REMARK                         _______ _______ _______ _____ _____    ______ ____
ROOT
ATOM      1  O   LIG    1       -2.522   1.836   0.796  0.00  0.00    -0.510 OA
ATOM      2  C   LIG    1       -2.767   3.001   0.563  0.00  0.00    +0.520 C 
ATOM      3  N   LIG    1       -1.785   3.827   0.151  0.00  0.00    -0.670 N 
ATOM      4  H   LIG    1       -1.993   4.740  -0.102  0.00  0.00    +0.410 HD
ENDROOT
BRANCH   2   5
ATOM      5  C   LIG    1       -4.170   3.525   0.735  0.00  0.00    -0.010 C 
ATOM      6  C   LIG    1       -5.084   2.392   1.207  0.00  0.00    +0.060 C 
ATOM      7  C   LIG    1       -6.502   2.931   1.413  0.00  0.00    +0.020 C 
ATOM      8  C   LIG    1       -7.040   3.465   0.081  0.00  0.00    +0.270 C 
ATOM      9  N   LIG    1       -6.090   4.452  -0.450  0.00  0.00    -0.600 N 
ATOM     10  C   LIG    1       -6.505   5.689  -0.791  0.00  0.00    +0.560 C 
ATOM     11  O   LIG    1       -5.726   6.472  -1.300  0.00  0.00    -0.530 OA
ATOM     12  C   LIG    1       -4.681   4.066  -0.604  0.00  0.00    +0.300 C 
BRANCH  10  13
ATOM     13  C   LIG    1       -7.905   6.093  -0.547  0.00  0.00    -0.130 A 
ATOM     14  C   LIG    1       -8.947   5.200  -0.805  0.00  0.00    +0.070 A 
ATOM     15  C   LIG    1      -10.251   5.580  -0.569  0.00  0.00    +0.020 A 
ATOM     16  C   LIG    1      -10.529   6.849  -0.088  0.00  0.00    -0.010 A 
ATOM     17  C   LIG    1       -9.500   7.741   0.165  0.00  0.00    +0.030 A 
ATOM     18 CL   LIG    1      -12.174   7.324   0.200  0.00  0.00    -0.060 Cl
ATOM     19  C   LIG    1       -8.191   7.370  -0.061  0.00  0.00    +0.090 A 
ENDBRANCH  10  13
ENDBRANCH   2   5
BRANCH   3  20
ATOM     20  C   LIG    1       -0.463   3.367   0.087  0.00  0.00    +0.110 A 
ATOM     21  C   LIG    1        0.586   4.223   0.394  0.00  0.00    +0.040 A 
ATOM     22  C   LIG    1        1.888   3.770   0.326  0.00  0.00    +0.010 A 
ATOM     23  C   LIG    1        2.149   2.457  -0.039  0.00  0.00    +0.110 A 
ATOM     24  C   LIG    1        1.100   1.599  -0.341  0.00  0.00    -0.050 A 
ATOM     25  C   LIG    1       -0.203   2.053  -0.278  0.00  0.00    +0.060 A 
BRANCH  23  26
ATOM     26  O   LIG    1        3.431   2.010  -0.100  0.00  0.00    -0.260 OA
BRANCH  26  27
ATOM     27  C   LIG    1        3.636   0.694  -0.368  0.00  0.00    +0.080 A 
ATOM     28  C   LIG    1        4.004  -0.174   0.650  0.00  0.00    +0.010 A 
ATOM     29  C   LIG    1        4.207  -1.512   0.375  0.00  0.00    +0.030 A 
ATOM     30  C   LIG    1        4.054  -1.986  -0.915  0.00  0.00    +0.010 A 
ATOM     31  C   LIG    1        3.692  -1.122  -1.933  0.00  0.00    +0.020 A 
ATOM     32  C   LIG    1        3.483   0.216  -1.662  0.00  0.00    +0.000 A 
ENDBRANCH  26  27
ENDBRANCH  23  26
ENDBRANCH   3  20
TORSDOF 5
