REMARK  Name = ZINCkj00000a7UGr.1
REMARK                            x       y       z     vdW  Elec       q    Type
REMARK                         _______ _______ _______ _____ _____    ______ ____
ROOT
ATOM      1  O   LIG    1        5.121   7.351   0.293  0.00  0.00    -0.930 OA
ATOM      2  S   LIG    1        4.135   8.010   1.076  0.00  0.00    +2.590 S 
ATOM      3  C   LIG    1        2.473   7.481   0.551  0.00  0.00    -0.340 C 
ATOM      4  C   LIG    1        2.457   5.919   0.661  0.00  0.00    +0.310 C 
ATOM      5  N   LIG    1        1.259   5.561   1.453  0.00  0.00    -0.400 N 
ATOM      6  C   LIG    1        1.134   6.014   2.862  0.00  0.00    +0.260 C 
ATOM      7  C   LIG    1        2.398   5.388   3.580  0.00  0.00    +0.060 C 
ATOM      8  C   LIG    1        2.985   6.571   4.388  0.00  0.00    +0.030 C 
ATOM      9  C   LIG    1        3.372   7.840   3.616  0.00  0.00    +0.290 C 
ATOM     10  H   LIG    1        0.454   5.910   0.954  0.00  0.00    +0.420 HD
ATOM     11  O   LIG    1        4.167   9.423   1.224  0.00  0.00    -0.920 OA
ATOM     12  N   LIG    1        4.430   7.452   2.620  0.00  0.00    -1.110 NA
ATOM     13  H   LIG    1        5.212   6.928   2.854  0.00  0.00    +0.440 HD
ENDROOT
BRANCH   5  14
ATOM     14  C   LIG    1        1.158   4.096   1.456  0.00  0.00    +0.260 C 
BRANCH  14  15
ATOM     15  C   LIG    1        0.880   3.602   0.035  0.00  0.00    +0.100 C 
BRANCH  15  16
ATOM     16  C   LIG    1        0.641   2.114   0.058  0.00  0.00    -0.080 A 
ATOM     17  C   LIG    1        1.702   1.241  -0.094  0.00  0.00    +0.010 A 
ATOM     18  C   LIG    1        1.484  -0.124  -0.073  0.00  0.00    +0.060 A 
ATOM     19  C   LIG    1        0.205  -0.618   0.101  0.00  0.00    +0.000 A 
ATOM     20  C   LIG    1       -0.859   0.256   0.253  0.00  0.00    +0.110 A 
ATOM     21  F   LIG    1       -2.109  -0.226   0.423  0.00  0.00    -0.130 F 
ATOM     22  C   LIG    1       -0.639   1.623   0.232  0.00  0.00    -0.010 A 
ENDBRANCH  15  16
ENDBRANCH  14  15
ENDBRANCH   5  14
TORSDOF 3
