REMARK  Name = ZINCkj00000a7UGr.0
REMARK                            x       y       z     vdW  Elec       q    Type
REMARK                         _______ _______ _______ _____ _____    ______ ____
ROOT
ATOM      1  O   LIG    1       -3.834  -4.355   0.605  0.00  0.00    -0.930 OA
ATOM      2  S   LIG    1       -3.466  -3.749   1.836  0.00  0.00    +2.590 S 
ATOM      3  C   LIG    1       -2.836  -2.067   1.532  0.00  0.00    -0.360 C 
ATOM      4  C   LIG    1       -3.961  -1.315   0.744  0.00  0.00    +0.320 C 
ATOM      5  N   LIG    1       -4.206  -0.044   1.463  0.00  0.00    -0.400 N 
ATOM      6  C   LIG    1       -4.707  -0.063   2.861  0.00  0.00    +0.270 C 
ATOM      7  C   LIG    1       -6.084  -0.842   2.764  0.00  0.00    +0.060 C 
ATOM      8  C   LIG    1       -6.007  -1.866   3.923  0.00  0.00    +0.030 C 
ATOM      9  C   LIG    1       -4.827  -2.846   3.933  0.00  0.00    +0.290 C 
ATOM     10  H   LIG    1       -4.866   0.488   0.915  0.00  0.00    +0.430 HD
ATOM     11  O   LIG    1       -2.606  -4.429   2.740  0.00  0.00    -0.920 OA
ATOM     12  N   LIG    1       -4.909  -3.657   2.668  0.00  0.00    -1.110 NA
ATOM     13  H   LIG    1       -5.724  -4.086   2.366  0.00  0.00    +0.440 HD
ENDROOT
BRANCH   5  14
ATOM     14  C   LIG    1       -2.945   0.708   1.462  0.00  0.00    +0.250 C 
BRANCH  14  15
ATOM     15  C   LIG    1       -2.513   0.978   0.019  0.00  0.00    +0.100 C 
BRANCH  15  16
ATOM     16  C   LIG    1       -1.219   1.750   0.017  0.00  0.00    -0.080 A 
ATOM     17  C   LIG    1       -0.013   1.076   0.008  0.00  0.00    +0.010 A 
ATOM     18  C   LIG    1        1.176   1.783   0.000  0.00  0.00    +0.060 A 
ATOM     19  C   LIG    1        1.158   3.164   0.008  0.00  0.00    +0.000 A 
ATOM     20  C   LIG    1       -0.050   3.841   0.023  0.00  0.00    +0.110 A 
ATOM     21  F   LIG    1       -0.068   5.192   0.030  0.00  0.00    -0.130 F 
ATOM     22  C   LIG    1       -1.239   3.132   0.031  0.00  0.00    -0.010 A 
ENDBRANCH  15  16
ENDBRANCH  14  15
ENDBRANCH   5  14
TORSDOF 3
