REMARK  Name = ZINCrH00000No4Fx.0
REMARK                            x       y       z     vdW  Elec       q    Type
REMARK                         _______ _______ _______ _____ _____    ______ ____
ROOT
ATOM      1  C   LIG    1       -2.514   1.037   0.028  0.00  0.00    +0.510 C 
ATOM      2  O   LIG    1       -3.560   1.654   0.045  0.00  0.00    -0.470 OA
ENDROOT
BRANCH   1   7
ATOM      3  C   LIG    1        0.063   3.815   0.033  0.00  0.00    +0.160 A 
ATOM      4  N   LIG    1        1.180   3.105   0.009  0.00  0.00    -0.460 NA
ATOM      5  C   LIG    1        1.173   1.788  -0.005  0.00  0.00    +0.210 A 
ATOM      6  C   LIG    1       -0.012   1.074   0.004  0.00  0.00    +0.050 A 
ATOM      7  C   LIG    1       -1.226   1.764   0.024  0.00  0.00    -0.010 A 
ATOM      8  C   LIG    1       -1.188   3.174   0.044  0.00  0.00    -0.010 A 
BRANCH   5   9
ATOM      9  C   LIG    1        2.483   1.042  -0.032  0.00  0.00    +0.010 C 
ATOM     10  C   LIG    1        2.458  -0.443   0.332  0.00  0.00    +0.040 C 
ATOM     11  C   LIG    1        3.057   0.574   1.306  0.00  0.00    +0.050 C 
ENDBRANCH   5   9
BRANCH   3  13
ATOM     12  C   LIG    1        1.939   5.807   0.028  0.00  0.00    +0.150 C 
ATOM     13  S   LIG    1        0.144   5.575   0.051  0.00  0.00    -0.030 S 
ENDBRANCH   3  13
BRANCH   8  14
ATOM     14  C   LIG    1       -2.400   3.936   0.070  0.00  0.00    +0.240 C 
ATOM     15  N   LIG    1       -3.361   4.541   0.090  0.00  0.00    -0.360 NA
ENDBRANCH   8  14
ENDBRANCH   1   7
BRANCH   1  16
ATOM     16  O   LIG    1       -2.528  -0.310   0.014  0.00  0.00    -0.320 OA
BRANCH  16  17
ATOM     17  C   LIG    1       -3.828  -0.956   0.019  0.00  0.00    +0.190 C 
ATOM     18  C   LIG    1       -4.298  -1.168  -1.421  0.00  0.00    +0.080 C 
BRANCH  17  19
ATOM     19  C   LIG    1       -3.723  -2.289   0.714  0.00  0.00    +0.520 C 
ATOM     20  N   LIG    1       -4.813  -3.072   0.839  0.00  0.00    -0.670 N 
ATOM     21  H   LIG    1       -5.679  -2.749   0.542  0.00  0.00    +0.410 HD
ATOM     22  O   LIG    1       -2.658  -2.658   1.161  0.00  0.00    -0.490 OA
BRANCH  20  23
ATOM     23  C   LIG    1       -4.697  -4.350   1.397  0.00  0.00    +0.140 A 
ATOM     24  C   LIG    1       -5.492  -5.388   0.930  0.00  0.00    -0.010 A 
ATOM     25  C   LIG    1       -5.372  -6.649   1.480  0.00  0.00    +0.030 A 
ATOM     26  C   LIG    1       -4.469  -6.876   2.502  0.00  0.00    +0.000 A 
ATOM     27  C   LIG    1       -3.679  -5.843   2.972  0.00  0.00    +0.030 A 
ATOM     28  C   LIG    1       -3.791  -4.581   2.423  0.00  0.00    +0.020 A 
ENDBRANCH  20  23
ENDBRANCH  17  19
ENDBRANCH  16  17
ENDBRANCH   1  16
TORSDOF 8
