REMARK  Name = ZINCrD0000074lAK.0
REMARK                            x       y       z     vdW  Elec       q    Type
REMARK                         _______ _______ _______ _____ _____    ______ ____
ROOT
ATOM      1  C   LIG    1        0.148   5.911  -0.284  0.00  0.00    +0.270 C 
ENDROOT
BRANCH   1   2
ATOM      2  C   LIG    1        0.252   4.411  -0.189  0.00  0.00    +0.520 C 
ATOM      3  N   LIG    1        1.463   3.822  -0.129  0.00  0.00    -0.660 N 
ATOM      4  H   LIG    1        2.264   4.365  -0.059  0.00  0.00    +0.420 HD
ATOM      5  O   LIG    1       -0.753   3.733  -0.167  0.00  0.00    -0.490 OA
BRANCH   3   6
ATOM      6  C   LIG    1        1.565   2.425  -0.167  0.00  0.00    +0.140 A 
ATOM      7  C   LIG    1        0.563   1.670  -0.758  0.00  0.00    +0.060 A 
ATOM      8  C   LIG    1        0.666   0.292  -0.795  0.00  0.00    +0.010 A 
ATOM      9  C   LIG    1        1.766  -0.337  -0.243  0.00  0.00    +0.030 A 
ATOM     10  C   LIG    1        2.770   0.409   0.348  0.00  0.00    -0.030 A 
ATOM     11  C   LIG    1        2.674   1.790   0.388  0.00  0.00    +0.080 A 
BRANCH  11  12
ATOM     12  O   LIG    1        3.660   2.525   0.969  0.00  0.00    -0.330 OA
BRANCH  12  13
ATOM     13  C   LIG    1        4.767   1.806   1.517  0.00  0.00    +0.590 C 
ATOM     14  F   LIG    1        5.393   1.070   0.505  0.00  0.00    -0.200 F 
ATOM     15  F   LIG    1        4.311   0.936   2.513  0.00  0.00    -0.200 F 
ENDBRANCH  12  13
ENDBRANCH  11  12
ENDBRANCH   3   6
ENDBRANCH   1   2
BRANCH   1  16
ATOM     16  O   LIG    1       -1.251   6.297  -0.335  0.00  0.00    -0.330 OA
BRANCH  16  17
ATOM     17  C   LIG    1       -1.519   7.614  -0.421  0.00  0.00    +0.520 C 
ATOM     18  O   LIG    1       -0.610   8.418  -0.453  0.00  0.00    -0.480 OA
BRANCH  17  21
ATOM     19  C   LIG    1       -2.076  10.430  -0.786  0.00  0.00    +0.140 C 
ATOM     20  C   LIG    1       -3.201   9.436  -0.653  0.00  0.00    +0.060 A 
ATOM     21  C   LIG    1       -2.920   8.080  -0.477  0.00  0.00    -0.140 A 
ATOM     22  C   LIG    1       -3.969   7.167  -0.349  0.00  0.00    +0.160 A 
ATOM     23  C   LIG    1       -5.274   7.609  -0.402  0.00  0.00    +0.020 A 
ATOM     24  C   LIG    1       -5.546   8.954  -0.581  0.00  0.00    +0.150 A 
ATOM     25  C   LIG    1       -4.511   9.864  -0.709  0.00  0.00    -0.070 A 
BRANCH  25  26
ATOM     26  N   LIG    1       -4.811  11.301  -0.900  0.00  0.00    +0.030 N 
ATOM     27  O   LIG    1       -3.905  12.114  -0.929  0.00  0.00    -0.150 OA
ATOM     28  O   LIG    1       -5.965  11.671  -1.028  0.00  0.00    -0.160 OA
ENDBRANCH  25  26
ENDBRANCH  17  21
ENDBRANCH  16  17
ENDBRANCH   1  16
TORSDOF 8
