REMARK  Name = ZINCpe00000MJJzr.0
REMARK                            x       y       z     vdW  Elec       q    Type
REMARK                         _______ _______ _______ _____ _____    ______ ____
ROOT
ATOM      1  C   LIG    1       -1.451  -0.563   0.052  0.00  0.00    +0.150 C 
ATOM      2  C   LIG    1       -2.318  -0.268   1.294  0.00  0.00    +0.070 C 
ATOM      3  C   LIG    1       -3.049  -1.615   1.536  0.00  0.00    +0.040 C 
ATOM      4  C   LIG    1       -1.959  -2.638   1.131  0.00  0.00    +0.260 C 
ATOM      5  N   LIG    1       -1.270  -2.021  -0.017  0.00  0.00    -0.620 N 
ATOM      6  C   LIG    1       -0.588  -2.683  -0.972  0.00  0.00    +0.530 C 
ATOM      7  O   LIG    1        0.017  -2.066  -1.823  0.00  0.00    -0.510 OA
ENDROOT
BRANCH   1  11
ATOM      8  C   LIG    1       -3.674  -0.418  -3.059  0.00  0.00    +0.280 C 
ATOM      9  N   LIG    1       -3.077  -0.844  -1.791  0.00  0.00    -0.730 N 
ATOM     10  H   LIG    1       -3.350  -1.681  -1.383  0.00  0.00    +0.400 HD
ATOM     11  C   LIG    1       -2.148  -0.074  -1.192  0.00  0.00    +0.520 C 
ATOM     12  O   LIG    1       -1.872   1.014  -1.653  0.00  0.00    -0.500 OA
ENDBRANCH   1  11
BRANCH   1  13
ATOM     13  C   LIG    1       -0.091   0.124   0.191  0.00  0.00    +0.190 C 
BRANCH  13  14
ATOM     14  O   LIG    1       -0.278   1.539   0.258  0.00  0.00    -0.370 OA
ATOM     15  C   LIG    1        0.938   2.280   0.389  0.00  0.00    +0.200 C 
ENDBRANCH  13  14
ENDBRANCH   1  13
BRANCH   6  16
ATOM     16  C   LIG    1       -0.576  -4.190  -0.982  0.00  0.00    +0.120 C 
BRANCH  16  17
ATOM     17  C   LIG    1        0.253  -4.678  -2.142  0.00  0.00    -0.100 A 
ATOM     18  C   LIG    1       -0.344  -4.910  -3.367  0.00  0.00    +0.060 A 
ATOM     19  C   LIG    1        0.415  -5.353  -4.434  0.00  0.00    -0.070 A 
ATOM     20  C   LIG    1        1.774  -5.575  -4.271  0.00  0.00    +0.130 A 
ATOM     21  C   LIG    1        2.370  -5.347  -3.039  0.00  0.00    -0.010 A 
ATOM     22  C   LIG    1        1.608  -4.899  -1.978  0.00  0.00    +0.070 A 
BRANCH  20  23
ATOM     23  O   LIG    1        2.522  -6.016  -5.317  0.00  0.00    -0.310 OA
BRANCH  23  24
ATOM     24  C   LIG    1        1.841  -6.230  -6.556  0.00  0.00    +0.380 C 
BRANCH  24  25
ATOM     25  C   LIG    1        2.801  -6.703  -7.567  0.00  0.00    +0.210 C 
ATOM     26  N   LIG    1        3.541  -7.068  -8.347  0.00  0.00    -0.390 NA
ENDBRANCH  24  25
ENDBRANCH  23  24
ENDBRANCH  20  23
ENDBRANCH  16  17
ENDBRANCH   6  16
TORSDOF 8
