REMARK  Name = ZINCrD00000F5LBX.0
REMARK                            x       y       z     vdW  Elec       q    Type
REMARK                         _______ _______ _______ _____ _____    ______ ____
ROOT
ATOM      1  C   LIG    1        1.911  -1.799  -0.102  0.00  0.00    +0.190 C 
ATOM      2  C   LIG    1        1.355  -0.400  -0.045  0.00  0.00    +0.140 A 
ATOM      3  C   LIG    1        0.035  -0.048  -0.022  0.00  0.00    -0.100 A 
ATOM      4  N   LIG    1       -0.048   1.293   0.028  0.00  0.00    -0.190 NA
ATOM      5  N   LIG    1        1.136   1.798   0.037  0.00  0.00    -0.060 NA
ATOM      6  N   LIG    1        2.065   0.749  -0.009  0.00  0.00    -0.310 N 
ENDROOT
BRANCH   3   7
ATOM      7  C   LIG    1       -1.107  -0.982  -0.047  0.00  0.00    +0.620 C 
ATOM      8  N   LIG    1       -2.368  -0.506  -0.020  0.00  0.00    -0.610 N 
ATOM      9  C   LIG    1       -2.756   0.925   0.042  0.00  0.00    +0.280 C 
ATOM     10  C   LIG    1       -4.278   0.936   0.129  0.00  0.00    -0.030 C 
ATOM     11  C   LIG    1       -5.003   2.072  -0.564  0.00  0.00    +0.040 C 
ATOM     12  C   LIG    1       -6.510   1.835  -0.366  0.00  0.00    +0.000 C 
ATOM     13  C   LIG    1       -6.940   0.475  -0.906  0.00  0.00    +0.000 C 
ATOM     14  C   LIG    1       -6.099  -0.665  -0.308  0.00  0.00    +0.040 C 
ATOM     15  C   LIG    1       -4.648  -0.369  -0.638  0.00  0.00    -0.020 C 
ATOM     16  C   LIG    1       -3.609  -1.325  -0.040  0.00  0.00    +0.270 C 
ATOM     17  O   LIG    1       -0.910  -2.181  -0.092  0.00  0.00    -0.530 OA
ENDBRANCH   3   7
BRANCH   6  18
ATOM     18  C   LIG    1        3.460   0.869  -0.016  0.00  0.00    +0.120 A 
ATOM     19  C   LIG    1        4.215   0.171  -0.934  0.00  0.00    +0.070 A 
ATOM     20  C   LIG    1        5.602   0.287  -0.951  0.00  0.00    +0.030 A 
ATOM     21  C   LIG    1        6.254   1.083  -0.059  0.00  0.00    +0.090 A 
ATOM     22  C   LIG    1        5.522   1.806   0.896  0.00  0.00    -0.110 A 
ATOM     23  C   LIG    1        6.147   2.640   1.838  0.00  0.00    +0.320 A 
ATOM     24  N   LIG    1        5.422   3.297   2.712  0.00  0.00    -0.480 NA
ATOM     25  C   LIG    1        4.100   3.214   2.755  0.00  0.00    +0.250 A 
ATOM     26  C   LIG    1        3.400   2.433   1.885  0.00  0.00    -0.010 A 
ATOM     27  C   LIG    1        4.108   1.699   0.919  0.00  0.00    -0.010 A 
ENDBRANCH   6  18
TORSDOF 2
