REMARK  Name = ZINCpk00000k4nAz.1
REMARK                            x       y       z     vdW  Elec       q    Type
REMARK                         _______ _______ _______ _____ _____    ______ ____
ROOT
ATOM      1  C   LIG    1       -3.672   3.650   5.307  0.00  0.00    +0.120 C 
ATOM      2  C   LIG    1       -3.208   4.459   6.531  0.00  0.00    +0.310 C 
ATOM      3  N   LIG    1       -4.365   3.867   7.234  0.00  0.00    -0.650 N 
ATOM      4  C   LIG    1       -5.116   4.233   8.291  0.00  0.00    +0.550 C 
ATOM      5  O   LIG    1       -6.089   3.578   8.600  0.00  0.00    -0.520 OA
ATOM      6  C   LIG    1       -4.370   2.715   6.311  0.00  0.00    +0.310 C 
ENDROOT
BRANCH   4   7
ATOM      7  C   LIG    1       -4.747   5.457   9.090  0.00  0.00    +0.080 C 
ATOM      8  C   LIG    1       -3.944   5.050  10.300  0.00  0.00    -0.240 A 
ATOM      9  C   LIG    1       -4.136   5.554  11.546  0.00  0.00    +0.110 A 
ATOM     10  N   LIG    1       -3.251   4.967  12.368  0.00  0.00    -0.470 N 
ATOM     11  H   LIG    1       -3.159   5.132  13.320  0.00  0.00    +0.440 HD
ATOM     12  N   LIG    1       -2.484   4.073  11.606  0.00  0.00    -0.290 NA
ATOM     13  C   LIG    1       -5.178   6.590  11.888  0.00  0.00    +0.120 C 
ATOM     14  C   LIG    1       -5.651   7.248  10.586  0.00  0.00    +0.040 C 
ATOM     15  C   LIG    1       -2.903   4.126  10.366  0.00  0.00    +0.240 A 
ATOM     16  C   LIG    1       -6.021   6.164   9.570  0.00  0.00    +0.010 C 
ATOM     17  C   LIG    1       -6.729   6.805   8.375  0.00  0.00    +0.030 C 
ENDBRANCH   4   7
BRANCH   1  21
ATOM     18  C   LIG    1       -1.315   2.242   2.944  0.00  0.00    -0.060 A 
ATOM     19  C   LIG    1       -0.688   1.953   4.117  0.00  0.00    +0.280 A 
ATOM     20  O   LIG    1       -1.466   2.427   5.103  0.00  0.00    -0.190 OA
ATOM     21  C   LIG    1       -2.546   2.995   4.549  0.00  0.00    +0.210 A 
ATOM     22  N   LIG    1       -2.467   2.896   3.256  0.00  0.00    -0.430 NA
BRANCH  18  23
ATOM     23  C   LIG    1       -0.834   1.915   1.591  0.00  0.00    +0.550 C 
ATOM     24  O   LIG    1        0.221   1.329   1.446  0.00  0.00    -0.500 OA
BRANCH  23  26
ATOM     25  C   LIG    1       -1.028   1.911  -0.789  0.00  0.00    +0.280 C 
ATOM     26  O   LIG    1       -1.563   2.266   0.513  0.00  0.00    -0.340 OA
ENDBRANCH  23  26
ENDBRANCH  18  23
ENDBRANCH   1  21
TORSDOF 4
