REMARK  Name = ZINCpk00000k4nAz.0
REMARK                            x       y       z     vdW  Elec       q    Type
REMARK                         _______ _______ _______ _____ _____    ______ ____
ROOT
ATOM      1  C   LIG    1       -3.384   2.686   5.849  0.00  0.00    +0.120 C 
ATOM      2  C   LIG    1       -4.559   3.648   6.103  0.00  0.00    +0.310 C 
ATOM      3  N   LIG    1       -3.999   3.813   7.459  0.00  0.00    -0.650 N 
ATOM      4  C   LIG    1       -4.509   4.167   8.655  0.00  0.00    +0.550 C 
ATOM      5  O   LIG    1       -3.811   4.132   9.646  0.00  0.00    -0.520 OA
ATOM      6  C   LIG    1       -2.655   3.436   6.978  0.00  0.00    +0.310 C 
ENDROOT
BRANCH   4   7
ATOM      7  C   LIG    1       -5.947   4.605   8.761  0.00  0.00    +0.080 C 
ATOM      8  C   LIG    1       -6.024   6.112   8.728  0.00  0.00    -0.230 A 
ATOM      9  C   LIG    1       -5.365   6.963   7.920  0.00  0.00    +0.240 A 
ATOM     10  N   LIG    1       -5.745   8.218   8.252  0.00  0.00    -0.480 N 
ATOM     11  H   LIG    1       -5.431   9.037   7.837  0.00  0.00    +0.440 HD
ATOM     12  N   LIG    1       -6.671   8.127   9.302  0.00  0.00    -0.280 NA
ATOM     13  C   LIG    1       -6.839   6.868   9.586  0.00  0.00    +0.100 A 
ATOM     14  C   LIG    1       -7.735   6.258  10.636  0.00  0.00    +0.140 C 
ATOM     15  C   LIG    1       -7.909   4.769  10.311  0.00  0.00    +0.040 C 
ATOM     16  C   LIG    1       -6.538   4.125  10.092  0.00  0.00    +0.010 C 
ATOM     17  C   LIG    1       -6.690   2.602  10.061  0.00  0.00    +0.030 C 
ENDBRANCH   4   7
BRANCH   1  21
ATOM     18  C   LIG    1       -1.777   2.429   2.613  0.00  0.00    -0.060 A 
ATOM     19  C   LIG    1       -1.965   3.775   2.687  0.00  0.00    +0.280 A 
ATOM     20  O   LIG    1       -2.566   4.022   3.861  0.00  0.00    -0.190 OA
ATOM     21  C   LIG    1       -2.744   2.854   4.495  0.00  0.00    +0.210 A 
ATOM     22  N   LIG    1       -2.280   1.891   3.757  0.00  0.00    -0.430 NA
BRANCH  18  23
ATOM     23  C   LIG    1       -1.152   1.692   1.501  0.00  0.00    +0.550 C 
ATOM     24  O   LIG    1       -0.745   2.293   0.527  0.00  0.00    -0.500 OA
BRANCH  23  26
ATOM     25  C   LIG    1       -0.406  -0.309   0.432  0.00  0.00    +0.280 C 
ATOM     26  O   LIG    1       -1.032   0.351   1.564  0.00  0.00    -0.340 OA
ENDBRANCH  23  26
ENDBRANCH  18  23
ENDBRANCH   1  21
TORSDOF 4
