REMARK  Name = ZINCrH00000tj171.0
REMARK                            x       y       z     vdW  Elec       q    Type
REMARK                         _______ _______ _______ _____ _____    ______ ____
ROOT
ATOM      1  C   LIG    1       -0.013   1.086   0.008  0.00  0.00    +0.130 C 
ATOM      2  C   LIG    1       -0.718   1.572   1.248  0.00  0.00    -0.120 A 
ATOM      3  C   LIG    1        0.000   1.807   2.409  0.00  0.00    +0.160 A 
ATOM      4  C   LIG    1       -0.643   2.257   3.561  0.00  0.00    -0.020 A 
ATOM      5  C   LIG    1       -1.990   2.472   3.561  0.00  0.00    +0.090 A 
ATOM      6  C   LIG    1       -2.732   2.240   2.396  0.00  0.00    -0.150 A 
ATOM      7  C   LIG    1       -4.179   2.462   2.367  0.00  0.00    +0.020 A 
ATOM      8  C   LIG    1       -4.843   2.218   1.207  0.00  0.00    -0.050 A 
ATOM      9  C   LIG    1       -4.134   1.764   0.076  0.00  0.00    +0.510 A 
ATOM     10  O   LIG    1       -4.741   1.548  -0.958  0.00  0.00    -0.450 OA
ATOM     11  O   LIG    1       -2.807   1.562   0.109  0.00  0.00    -0.270 OA
ATOM     12  C   LIG    1       -2.087   1.791   1.229  0.00  0.00    +0.170 A 
ENDROOT
BRANCH   3  13
ATOM     13  O   LIG    1        1.341   1.597   2.425  0.00  0.00    -0.490 OA
ATOM     14  H   LIG    1        1.864   2.372   2.178  0.00  0.00    +0.400 HD
ENDBRANCH   3  13
BRANCH   7  15
ATOM     15  C   LIG    1       -4.912   2.948   3.591  0.00  0.00    +0.300 C 
BRANCH  15  16
ATOM     16  O   LIG    1       -6.326   3.081   3.287  0.00  0.00    -0.350 OA
BRANCH  16  17
ATOM     17  C   LIG    1       -7.128   3.509   4.281  0.00  0.00    +0.520 C 
ATOM     18  O   LIG    1       -6.659   3.764   5.373  0.00  0.00    -0.480 OA
BRANCH  17  19
ATOM     19  C   LIG    1       -8.574   3.668   4.045  0.00  0.00    -0.150 A 
ATOM     20  C   LIG    1       -9.118   3.377   2.792  0.00  0.00    +0.120 A 
ATOM     21  C   LIG    1      -10.471   3.527   2.578  0.00  0.00    -0.020 A 
ATOM     22  C   LIG    1      -11.295   3.967   3.600  0.00  0.00    +0.100 A 
ATOM     23  C   LIG    1      -10.771   4.260   4.844  0.00  0.00    -0.070 A 
ATOM     24  C   LIG    1       -9.413   4.108   5.079  0.00  0.00    +0.170 A 
BRANCH  24  25
ATOM     25  O   LIG    1       -8.898   4.389   6.302  0.00  0.00    -0.290 OA
BRANCH  25  26
ATOM     26  C   LIG    1       -9.814   4.832   7.306  0.00  0.00    +0.600 C 
ATOM     27  F   LIG    1      -10.780   3.845   7.523  0.00  0.00    -0.200 F 
ATOM     28  F   LIG    1      -10.438   6.010   6.881  0.00  0.00    -0.200 F 
ENDBRANCH  25  26
ENDBRANCH  24  25
ENDBRANCH  17  19
ENDBRANCH  16  17
ENDBRANCH  15  16
ENDBRANCH   7  15
TORSDOF 7
