REMARK  Name = ZINCvU0000000ESg.0
REMARK                            x       y       z     vdW  Elec       q    Type
REMARK                         _______ _______ _______ _____ _____    ______ ____
ROOT
ATOM      1  C   LIG    1       -0.018   1.475   0.010  0.00  0.00    -0.060 A 
ATOM      2  C   LIG    1       -1.212   2.179   0.005  0.00  0.00    +0.020 A 
ATOM      3  C   LIG    1       -1.184   3.586   0.018  0.00  0.00    +0.200 A 
ATOM      4  N   LIG    1       -0.053   4.266   0.025  0.00  0.00    -0.460 NA
ATOM      5  C   LIG    1        1.139   3.668   0.025  0.00  0.00    +0.140 A 
ATOM      6  C   LIG    1        2.328   4.421   0.031  0.00  0.00    +0.060 A 
ATOM      7  C   LIG    1        3.530   3.783   0.030  0.00  0.00    +0.060 A 
ATOM      8  C   LIG    1        3.607   2.392   0.024  0.00  0.00    -0.090 A 
ATOM      9  C   LIG    1        2.474   1.630   0.017  0.00  0.00    +0.110 A 
ATOM     10 BR   LIG    1        5.299   1.549   0.023  0.00  0.00    -0.040 Br
ATOM     11  C   LIG    1        1.222   2.252   0.018  0.00  0.00    -0.070 A 
ENDROOT
BRANCH   1  14
ATOM     12  N   LIG    1       -1.151  -0.694   0.105  0.00  0.00    -0.710 N 
ATOM     13  H   LIG    1       -1.994  -0.221   0.185  0.00  0.00    +0.400 HD
ATOM     14  C   LIG    1        0.002  -0.004   0.002  0.00  0.00    +0.560 C 
ATOM     15  O   LIG    1        1.058  -0.597  -0.098  0.00  0.00    -0.520 OA
BRANCH  12  16
ATOM     16  C   LIG    1       -1.131  -2.159   0.097  0.00  0.00    +0.350 C 
BRANCH  16  22
ATOM     17  C   LIG    1       -4.874  -3.410   2.969  0.00  0.00    +0.130 C 
ATOM     18  C   LIG    1       -4.305  -3.272   1.580  0.00  0.00    +0.130 A 
ATOM     19  C   LIG    1       -5.077  -3.622   0.489  0.00  0.00    -0.020 A 
ATOM     20  C   LIG    1       -4.545  -3.491  -0.785  0.00  0.00    +0.070 A 
ATOM     21  C   LIG    1       -3.251  -3.011  -0.913  0.00  0.00    -0.020 A 
ATOM     22  C   LIG    1       -2.539  -2.681   0.225  0.00  0.00    +0.110 A 
ATOM     23  N   LIG    1       -3.075  -2.823   1.421  0.00  0.00    -0.470 NA
ENDBRANCH  16  22
ENDBRANCH  12  16
ENDBRANCH   1  14
BRANCH   3  24
ATOM     24  C   LIG    1       -2.458   4.322   0.018  0.00  0.00    +0.000 C 
ATOM     25  C   LIG    1       -2.456   5.667   0.025  0.00  0.00    +0.100 C 
BRANCH  25  26
ATOM     26  C   LIG    1       -3.731   6.404   0.026  0.00  0.00    -0.080 A 
ATOM     27  C   LIG    1       -4.944   5.709   0.013  0.00  0.00    +0.060 A 
ATOM     28  C   LIG    1       -6.134   6.405   0.019  0.00  0.00    -0.010 A 
ATOM     29  C   LIG    1       -6.130   7.792   0.026  0.00  0.00    +0.110 A 
ATOM     30  C   LIG    1       -4.930   8.487   0.033  0.00  0.00    -0.010 A 
ATOM     31  F   LIG    1       -7.299   8.468   0.027  0.00  0.00    -0.140 F 
ATOM     32  C   LIG    1       -3.734   7.802   0.033  0.00  0.00    +0.070 A 
ENDBRANCH  25  26
ENDBRANCH   3  24
TORSDOF 5
