REMARK  Name = ZINCnE000001N4nI.0
REMARK                            x       y       z     vdW  Elec       q    Type
REMARK                         _______ _______ _______ _____ _____    ______ ____
ROOT
ATOM      1  C   LIG    1       -0.076   5.774   0.034  0.00  0.00    +0.300 C 
ENDROOT
BRANCH   1   2
ATOM      2  C   LIG    1       -0.056   4.267   0.025  0.00  0.00    -0.100 A 
ATOM      3  C   LIG    1        1.151   3.592   0.010  0.00  0.00    +0.030 A 
ATOM      4  C   LIG    1        1.169   2.210   0.003  0.00  0.00    +0.000 A 
ATOM      5  C   LIG    1       -0.018   1.503   0.010  0.00  0.00    -0.080 A 
ATOM      6  C   LIG    1       -1.225   2.178   0.020  0.00  0.00    +0.000 A 
ATOM      7  C   LIG    1       -1.244   3.560   0.032  0.00  0.00    +0.020 A 
BRANCH   5   8
ATOM      8  C   LIG    1        0.002  -0.004   0.002  0.00  0.00    +0.030 C 
ATOM      9  C   LIG    1       -0.724  -0.517  -1.243  0.00  0.00    +0.020 C 
ATOM     10  C   LIG    1       -0.703  -2.047  -1.252  0.00  0.00    +0.000 C 
ATOM     11  C   LIG    1       -1.406  -2.573   0.002  0.00  0.00    +0.000 C 
ATOM     12  C   LIG    1       -0.679  -2.060   1.247  0.00  0.00    +0.000 C 
ATOM     13  C   LIG    1       -0.700  -0.530   1.255  0.00  0.00    +0.010 C 
ENDBRANCH   5   8
ENDBRANCH   1   2
BRANCH   1  15
ATOM     14  C   LIG    1       -0.117   7.596  -1.584  0.00  0.00    +0.560 C 
ATOM     15  N   LIG    1       -0.096   6.270  -1.345  0.00  0.00    -0.710 N 
ATOM     16  H   LIG    1       -0.095   5.644  -2.086  0.00  0.00    +0.420 HD
ATOM     17  O   LIG    1       -0.118   8.379  -0.658  0.00  0.00    -0.570 OA
BRANCH  14  21
ATOM     18  C   LIG    1       -0.164  10.504  -1.957  0.00  0.00    +0.060 C 
ATOM     19  C   LIG    1       -0.162   9.622  -3.207  0.00  0.00    +0.000 C 
ATOM     20  C   LIG    1       -1.416   8.791  -3.488  0.00  0.00    +0.050 C 
ATOM     21  C   LIG    1       -0.137   8.106  -3.002  0.00  0.00    -0.220 C 
BRANCH  21  22
ATOM     22  C   LIG    1        0.633   7.281  -4.000  0.00  0.00    +0.530 C 
ATOM     23  O   LIG    1        1.208   7.826  -4.927  0.00  0.00    -0.680 OA
ATOM     24  O   LIG    1        0.682   6.069  -3.881  0.00  0.00    -0.680 OA
ENDBRANCH  21  22
ENDBRANCH  14  21
ENDBRANCH   1  15
TORSDOF 5
