REMARK  Name = ZINCvU0000000CrI.0
REMARK                            x       y       z     vdW  Elec       q    Type
REMARK                         _______ _______ _______ _____ _____    ______ ____
ROOT
ATOM      1  N   LIG    1        3.440   1.752  -0.132  0.00  0.00    -0.610 N 
ATOM      2  C   LIG    1        2.205   1.365   0.248  0.00  0.00    +0.570 C 
ATOM      3  C   LIG    1        1.063   2.267   0.010  0.00  0.00    -0.210 A 
ATOM      4  C   LIG    1       -0.253   1.827   0.117  0.00  0.00    +0.110 A 
ATOM      5  C   LIG    1       -1.287   2.711  -0.116  0.00  0.00    -0.040 A 
ATOM      6  C   LIG    1       -1.024   4.031  -0.443  0.00  0.00    +0.080 A 
ATOM      7  C   LIG    1        0.279   4.481  -0.555  0.00  0.00    -0.050 A 
ATOM      8  C   LIG    1        1.327   3.606  -0.332  0.00  0.00    +0.240 A 
ATOM      9  N   LIG    1        2.655   4.004  -0.439  0.00  0.00    -0.740 N 
ATOM     10  H   LIG    1        2.914   4.919  -0.248  0.00  0.00    +0.410 HD
ATOM     11  O   LIG    1        2.035   0.285   0.781  0.00  0.00    -0.530 OA
ATOM     12  C   LIG    1        3.654   3.010  -0.847  0.00  0.00    +0.570 C 
ENDROOT
BRANCH  12  13
ATOM     13  C   LIG    1        3.540   2.767  -2.330  0.00  0.00    -0.270 A 
ATOM     14  C   LIG    1        2.499   2.177  -2.962  0.00  0.00    +0.260 A 
ATOM     15  N   LIG    1        2.780   2.151  -4.281  0.00  0.00    -0.360 N 
ATOM     16  N   LIG    1        4.038   2.738  -4.466  0.00  0.00    -0.280 NA
ATOM     17  C   LIG    1        4.493   3.106  -3.296  0.00  0.00    +0.240 A 
BRANCH  15  18
ATOM     18  C   LIG    1        1.922   1.602  -5.335  0.00  0.00    +0.370 C 
BRANCH  18  19
ATOM     19  C   LIG    1        1.682   2.654  -6.386  0.00  0.00    -0.110 A 
ATOM     20  C   LIG    1        0.599   3.507  -6.277  0.00  0.00    +0.020 A 
ATOM     21  C   LIG    1        0.381   4.475  -7.239  0.00  0.00    +0.000 A 
ATOM     22  C   LIG    1        1.241   4.585  -8.316  0.00  0.00    +0.010 A 
ATOM     23  C   LIG    1        2.321   3.729  -8.428  0.00  0.00    +0.000 A 
ATOM     24  C   LIG    1        2.541   2.764  -7.464  0.00  0.00    +0.040 A 
ENDBRANCH  18  19
ENDBRANCH  15  18
ENDBRANCH  12  13
BRANCH   1  25
ATOM     25  C   LIG    1        4.588   0.896   0.176  0.00  0.00    +0.350 C 
BRANCH  25  30
ATOM     26  C   LIG    1        5.659  -2.583  -4.311  0.00  0.00    +0.070 C 
ATOM     27  C   LIG    1        5.380  -1.676  -3.141  0.00  0.00    -0.080 A 
ATOM     28  C   LIG    1        6.047  -0.470  -3.027  0.00  0.00    +0.000 A 
ATOM     29  C   LIG    1        5.790   0.362  -1.953  0.00  0.00    +0.030 A 
ATOM     30  C   LIG    1        4.868  -0.011  -0.994  0.00  0.00    -0.110 A 
ATOM     31  C   LIG    1        4.205  -1.219  -1.105  0.00  0.00    +0.040 A 
ATOM     32  C   LIG    1        4.458  -2.049  -2.181  0.00  0.00    -0.010 A 
ENDBRANCH  25  30
ENDBRANCH   1  25
TORSDOF 5
