REMARK  Name = ZINCqH0000007YaE.0
REMARK                            x       y       z     vdW  Elec       q    Type
REMARK                         _______ _______ _______ _____ _____    ______ ____
ROOT
ATOM      1  N   LIG    1       -0.093   1.036   2.432  0.00  0.00    -0.720 N 
ATOM      2  H   LIG    1        0.697   0.489   2.563  0.00  0.00    +0.400 HD
ATOM      3  C   LIG    1       -0.527   1.305   1.185  0.00  0.00    +0.520 C 
ATOM      4  O   LIG    1       -1.515   1.989   1.021  0.00  0.00    -0.510 OA
ENDROOT
BRANCH   1   5
ATOM      5  C   LIG    1       -0.815   1.569   3.590  0.00  0.00    +0.320 C 
BRANCH   5  10
ATOM      6  C   LIG    1        1.498   1.495   6.579  0.00  0.00    +0.140 A 
ATOM      7  C   LIG    1        1.124   0.303   7.186  0.00  0.00    +0.020 A 
ATOM      8  C   LIG    1        0.126  -0.471   6.627  0.00  0.00    +0.030 A 
ATOM      9  C   LIG    1       -0.504  -0.058   5.467  0.00  0.00    +0.020 A 
ATOM     10  C   LIG    1       -0.130   1.126   4.857  0.00  0.00    -0.100 A 
ATOM     11  C   LIG    1        0.867   1.904   5.411  0.00  0.00    +0.020 A 
BRANCH   6  12
ATOM     12  N   LIG    1        2.507   2.280   7.142  0.00  0.00    -1.060 N 
ATOM     13  H   LIG    1        3.209   2.643   6.580  0.00  0.00    +0.430 HD
BRANCH  12  15
ATOM     14  C   LIG    1        0.949   3.482   9.055  0.00  0.00    -0.280 C 
ATOM     15  S   LIG    1        2.503   2.591   8.768  0.00  0.00    +2.610 S 
ATOM     16  O   LIG    1        3.616   3.454   8.962  0.00  0.00    -0.950 OA
ATOM     17  O   LIG    1        2.460   1.305   9.371  0.00  0.00    -0.950 OA
ENDBRANCH  12  15
ENDBRANCH   6  12
ENDBRANCH   5  10
ENDBRANCH   1   5
BRANCH   3  18
ATOM     18  C   LIG    1        0.215   0.756  -0.006  0.00  0.00    +0.230 C 
BRANCH  18  19
ATOM     19  O   LIG    1       -0.434   1.177  -1.207  0.00  0.00    -0.270 OA
BRANCH  19  20
ATOM     20  C   LIG    1        0.113   0.764  -2.381  0.00  0.00    +0.160 A 
ATOM     21  C   LIG    1        1.254  -0.023  -2.377  0.00  0.00    -0.020 A 
ATOM     22  C   LIG    1        1.806  -0.446  -3.572  0.00  0.00    +0.010 A 
ATOM     23  C   LIG    1        1.226  -0.074  -4.773  0.00  0.00    -0.060 A 
ATOM     24  C   LIG    1        0.090   0.716  -4.780  0.00  0.00    +0.110 A 
ATOM     25 CL   LIG    1        1.925  -0.600  -6.273  0.00  0.00    -0.030 Cl
ATOM     26 CL   LIG    1        3.231  -1.438  -3.567  0.00  0.00    -0.030 Cl
ATOM     27  C   LIG    1       -0.467   1.136  -3.587  0.00  0.00    -0.050 A 
ATOM     28 CL   LIG    1       -1.892   2.128  -3.596  0.00  0.00    -0.030 Cl
ENDBRANCH  19  20
ENDBRANCH  18  19
ENDBRANCH   3  18
TORSDOF 7
