REMARK  Name = ZINCvU0000000DOh.0
REMARK                            x       y       z     vdW  Elec       q    Type
REMARK                         _______ _______ _______ _____ _____    ______ ____
ROOT
ATOM      1  C   LIG    1        0.773   2.887   5.293  0.00  0.00    +0.210 A 
ATOM      2  C   LIG    1        0.224   1.686   5.814  0.00  0.00    -0.150 A 
ATOM      3  C   LIG    1       -0.891   1.153   5.171  0.00  0.00    +0.100 A 
ATOM      4  S   LIG    1       -1.393  -0.319   5.985  0.00  0.00    +0.180 S 
ATOM      5  C   LIG    1       -0.102  -0.195   7.169  0.00  0.00    -0.160 A 
ATOM      6  C   LIG    1        0.128  -1.191   8.291  0.00  0.00    +0.120 C 
ATOM      7  C   LIG    1        1.544  -0.997   8.841  0.00  0.00    +0.030 C 
ATOM      8  C   LIG    1        1.762   0.489   9.140  0.00  0.00    +0.030 C 
ATOM      9  C   LIG    1        1.847   1.258   7.821  0.00  0.00    +0.120 C 
ATOM     10  N   LIG    1       -1.396   1.789   4.104  0.00  0.00    -0.490 NA
ATOM     11  C   LIG    1       -0.849   2.895   3.655  0.00  0.00    +0.350 A 
ATOM     12  C   LIG    1        0.650   0.886   6.956  0.00  0.00    -0.070 A 
ATOM     13  N   LIG    1        0.208   3.441   4.229  0.00  0.00    -0.510 NA
ENDROOT
BRANCH   1  14
ATOM     14  S   LIG    1        2.183   3.628   6.046  0.00  0.00    +0.010 S 
BRANCH  14  15
ATOM     15  C   LIG    1        2.393   5.069   4.971  0.00  0.00    +0.090 C 
BRANCH  15  16
ATOM     16  C   LIG    1        3.595   5.889   5.445  0.00  0.00    +0.210 C 
BRANCH  16  17
ATOM     17  O   LIG    1        3.761   7.026   4.596  0.00  0.00    -0.300 OA
BRANCH  17  23
ATOM     18 BR   LIG    1        6.360  11.371   3.325  0.00  0.00    -0.040 Br
ATOM     19  C   LIG    1        6.059   9.839   4.393  0.00  0.00    -0.050 A 
ATOM     20  C   LIG    1        6.889   9.571   5.466  0.00  0.00    +0.010 A 
ATOM     21  C   LIG    1        6.672   8.451   6.248  0.00  0.00    +0.070 A 
ATOM     22  C   LIG    1        5.622   7.601   5.962  0.00  0.00    -0.060 A 
ATOM     23  C   LIG    1        4.791   7.864   4.882  0.00  0.00    +0.140 A 
ATOM     24  C   LIG    1        5.011   8.988   4.099  0.00  0.00    +0.020 A 
ENDBRANCH  17  23
ENDBRANCH  16  17
ENDBRANCH  15  16
ENDBRANCH  14  15
ENDBRANCH   1  14
BRANCH  11  25
ATOM     25  C   LIG    1       -1.451   3.568   2.449  0.00  0.00    +0.310 C 
BRANCH  25  26
ATOM     26  N   LIG    1       -0.817   3.048   1.230  0.00  0.00    -0.530 NA
ATOM     27  C   LIG    1       -0.731   1.580   1.266  0.00  0.00    +0.150 C 
ATOM     28  C   LIG    1       -0.013   1.086   0.008  0.00  0.00    +0.230 C 
ATOM     29  O   LIG    1       -0.706   1.560  -1.149  0.00  0.00    -0.380 OA
ATOM     30  C   LIG    1       -0.807   2.985  -1.216  0.00  0.00    +0.220 C 
ATOM     31  C   LIG    1       -1.534   3.499   0.029  0.00  0.00    +0.160 C 
ENDBRANCH  25  26
ENDBRANCH  11  25
TORSDOF 7
