REMARK  Name = ZINCnE000004vSFG.0
REMARK                            x       y       z     vdW  Elec       q    Type
REMARK                         _______ _______ _______ _____ _____    ______ ____
ROOT
ATOM      1  N   LIG    1       -1.645   7.443  -0.328  0.00  0.00    -0.480 N 
ATOM      2  C   LIG    1       -2.059   6.548   0.760  0.00  0.00    +0.190 C 
ATOM      3  C   LIG    1       -1.396   5.181   0.577  0.00  0.00    +0.040 C 
ATOM      4  C   LIG    1       -1.810   4.595  -0.776  0.00  0.00    +0.090 C 
ATOM      5  C   LIG    1       -1.412   5.569  -1.889  0.00  0.00    +0.050 C 
ATOM      6  C   LIG    1       -2.073   6.925  -1.634  0.00  0.00    +0.200 C 
ENDROOT
BRANCH   1  13
ATOM      7  C   LIG    1        0.024   9.619  -1.088  0.00  0.00    +0.130 C 
ATOM      8  C   LIG    1       -1.339   9.824  -0.480  0.00  0.00    -0.120 A 
ATOM      9  C   LIG    1       -1.828  11.101  -0.270  0.00  0.00    +0.130 A 
ATOM     10  C   LIG    1       -3.090  11.243   0.294  0.00  0.00    -0.250 A 
ATOM     11  C   LIG    1       -3.813  10.115   0.625  0.00  0.00    +0.330 A 
ATOM     12  N   LIG    1       -3.324   8.909   0.408  0.00  0.00    -0.510 NA
ATOM     13  C   LIG    1       -2.124   8.732  -0.122  0.00  0.00    +0.340 A 
BRANCH  10  14
ATOM     14  C   LIG    1       -3.662  12.615   0.542  0.00  0.00    +0.520 C 
ATOM     15  F   LIG    1       -2.622  13.515   0.793  0.00  0.00    -0.180 F 
ATOM     16  F   LIG    1       -4.518  12.570   1.647  0.00  0.00    -0.180 F 
ATOM     17  F   LIG    1       -4.378  13.032  -0.585  0.00  0.00    -0.180 F 
ENDBRANCH  10  14
ENDBRANCH   1  13
BRANCH   4  18
ATOM     18  C   LIG    1       -1.113   3.276  -0.988  0.00  0.00    -0.050 A 
ATOM     19  C   LIG    1       -1.711   2.075  -1.179  0.00  0.00    -0.250 A 
ATOM     20  C   LIG    1       -0.631   1.169  -1.323  0.00  0.00    +0.380 A 
ATOM     21  N   LIG    1        0.487   1.914  -1.213  0.00  0.00    -0.580 NA
ATOM     22  O   LIG    1       -0.699  -0.035  -1.511  0.00  0.00    -0.660 OA
ATOM     23  O   LIG    1        0.208   3.076  -1.028  0.00  0.00    +0.050 OA
ENDBRANCH   4  18
TORSDOF 3
