REMARK  Name = ZINCpk000000o3BU.0
REMARK                            x       y       z     vdW  Elec       q    Type
REMARK                         _______ _______ _______ _____ _____    ______ ____
ROOT
ATOM      1  C   LIG    1        4.264   0.689  -3.698  0.00  0.00    +0.090 C 
ATOM      2  C   LIG    1        3.208   1.416  -2.862  0.00  0.00    +0.080 C 
ATOM      3  C   LIG    1        3.588   1.592  -1.385  0.00  0.00    +0.290 C 
ATOM      4  N   LIG    1        2.193   1.278  -1.042  0.00  0.00    -0.640 N 
ATOM      5  C   LIG    1        1.352   1.574  -0.032  0.00  0.00    +0.520 C 
ATOM      6  O   LIG    1        0.248   1.071   0.006  0.00  0.00    -0.520 OA
ATOM      7  C   LIG    1        2.122   0.494  -2.284  0.00  0.00    +0.240 C 
ENDROOT
BRANCH   5   8
ATOM      8  C   LIG    1        1.782   2.529   1.052  0.00  0.00    +0.210 C 
ATOM      9  C   LIG    1        2.996   1.954   1.790  0.00  0.00    +0.010 C 
ATOM     10  C   LIG    1        2.571   0.678   2.523  0.00  0.00    +0.220 C 
ATOM     11  O   LIG    1        1.452   0.976   3.364  0.00  0.00    -0.380 OA
ATOM     12  C   LIG    1        0.328   1.509   2.660  0.00  0.00    +0.380 C 
ATOM     13  O   LIG    1        0.712   2.709   1.984  0.00  0.00    -0.360 OA
BRANCH  12  14
ATOM     14  C   LIG    1       -0.778   1.814   3.637  0.00  0.00    -0.080 A 
ATOM     15  C   LIG    1       -1.250   3.107   3.765  0.00  0.00    +0.040 A 
ATOM     16  C   LIG    1       -2.268   3.386   4.658  0.00  0.00    +0.000 A 
ATOM     17  C   LIG    1       -2.807   2.374   5.430  0.00  0.00    +0.010 A 
ATOM     18  C   LIG    1       -2.331   1.082   5.305  0.00  0.00    +0.010 A 
ATOM     19  C   LIG    1       -1.317   0.802   4.409  0.00  0.00    +0.030 A 
ENDBRANCH  12  14
ENDBRANCH   5   8
BRANCH   2  20
ATOM     20  N   LIG    1        2.694   2.634  -3.501  0.00  0.00    -0.500 NA
ATOM     21  C   LIG    1        1.628   3.244  -2.692  0.00  0.00    +0.150 C 
ATOM     22  C   LIG    1        1.163   4.539  -3.363  0.00  0.00    +0.220 C 
ATOM     23  O   LIG    1        0.733   4.251  -4.696  0.00  0.00    -0.380 OA
ATOM     24  C   LIG    1        1.746   3.657  -5.512  0.00  0.00    +0.220 C 
ATOM     25  C   LIG    1        2.217   2.353  -4.863  0.00  0.00    +0.150 C 
ENDBRANCH   2  20
TORSDOF 3
