REMARK  Name = ZINCrD000000AeVL.0
REMARK                            x       y       z     vdW  Elec       q    Type
REMARK                         _______ _______ _______ _____ _____    ______ ____
ROOT
ATOM      1  N   LIG    1        8.488   1.999   0.376  0.00  0.00    -0.540 NA
ATOM      2  C   LIG    1        8.741   2.775  -0.847  0.00  0.00    +0.180 C 
ATOM      3  C   LIG    1       10.015   3.604  -0.668  0.00  0.00    +0.200 C 
ATOM      4  N   LIG    1       11.142   2.707  -0.374  0.00  0.00    -0.500 N 
ATOM      5  C   LIG    1       10.889   1.931   0.848  0.00  0.00    +0.200 C 
ATOM      6  C   LIG    1        9.615   1.103   0.669  0.00  0.00    +0.210 C 
ENDROOT
BRANCH   4   7
ATOM      7  C   LIG    1       12.338   3.422  -0.275  0.00  0.00    +0.160 A 
ATOM      8  C   LIG    1       12.495   4.382   0.716  0.00  0.00    -0.010 A 
ATOM      9  C   LIG    1       13.681   5.083   0.814  0.00  0.00    +0.080 A 
ATOM     10  C   LIG    1       14.707   4.838  -0.079  0.00  0.00    +0.030 A 
ATOM     11  C   LIG    1       14.552   3.887  -1.071  0.00  0.00    +0.110 A 
ATOM     12  C   LIG    1       13.371   3.178  -1.172  0.00  0.00    -0.030 A 
BRANCH  12  13
ATOM     13  N   LIG    1       13.206   2.160  -2.233  0.00  0.00    +0.030 N 
ATOM     14  O   LIG    1       12.202   1.471  -2.265  0.00  0.00    -0.100 OA
ATOM     15  O   LIG    1       14.074   2.011  -3.074  0.00  0.00    -0.200 OA
ENDBRANCH  12  13
ENDBRANCH   4   7
BRANCH   1  16
ATOM     16  C   LIG    1        7.230   1.247   0.272  0.00  0.00    +0.210 C 
BRANCH  16  17
ATOM     17  C   LIG    1        6.055   2.225   0.216  0.00  0.00    +0.070 C 
BRANCH  17  19
ATOM     18  O   LIG    1        4.783   0.241   0.080  0.00  0.00    -0.510 OA
ATOM     19  C   LIG    1        4.765   1.454   0.109  0.00  0.00    +0.520 C 
ATOM     20  N   LIG    1        3.590   2.111   0.045  0.00  0.00    -0.670 N 
ATOM     21  H   LIG    1        3.578   3.079  -0.018  0.00  0.00    +0.410 HD
BRANCH  20  22
ATOM     22  C   LIG    1        2.386   1.397   0.072  0.00  0.00    +0.160 A 
ATOM     23  C   LIG    1        2.336   0.139   0.656  0.00  0.00    +0.030 A 
ATOM     24  C   LIG    1        1.146  -0.563   0.681  0.00  0.00    +0.040 A 
ATOM     25  C   LIG    1        0.006  -0.014   0.124  0.00  0.00    +0.000 A 
ATOM     26  C   LIG    1        0.051   1.239  -0.459  0.00  0.00    +0.050 A 
ATOM     27  C   LIG    1        1.238   1.947  -0.487  0.00  0.00    -0.070 A 
ATOM     28 CL   LIG    1        1.295   3.520  -1.220  0.00  0.00    -0.070 Cl
ENDBRANCH  20  22
ENDBRANCH  17  19
ENDBRANCH  16  17
ENDBRANCH   1  16
TORSDOF 6
