REMARK  Name = ZINCrD000000fWN1.0
REMARK                            x       y       z     vdW  Elec       q    Type
REMARK                         _______ _______ _______ _____ _____    ______ ____
ROOT
ATOM      1  C   LIG    1        5.103   6.466  -0.452  0.00  0.00    +0.000 C 
ATOM      2  C   LIG    1        3.617   6.620  -0.872  0.00  0.00    +0.050 C 
ATOM      3  C   LIG    1        3.019   5.271  -0.400  0.00  0.00    +0.230 C 
ATOM      4  N   LIG    1        4.076   4.277  -0.663  0.00  0.00    -0.620 N 
ATOM      5  C   LIG    1        3.884   2.956  -0.850  0.00  0.00    +0.730 C 
ATOM      6  N   LIG    1        2.638   2.444  -0.803  0.00  0.00    -0.660 N 
ATOM      7  H   LIG    1        1.880   3.025  -0.635  0.00  0.00    +0.400 HD
ATOM      8  O   LIG    1        4.834   2.227  -1.060  0.00  0.00    -0.550 OA
ATOM      9  C   LIG    1        5.376   4.965  -0.682  0.00  0.00    +0.190 C 
ATOM     10  C   LIG    1        6.051   4.763  -2.039  0.00  0.00    +0.040 C 
ATOM     11  C   LIG    1        6.269   4.419   0.434  0.00  0.00    +0.030 C 
ENDROOT
BRANCH   6  12
ATOM     12  C   LIG    1        2.439   1.077  -0.997  0.00  0.00    +0.330 A 
ATOM     13  C   LIG    1        3.405   0.149  -1.240  0.00  0.00    -0.090 A 
ATOM     14  C   LIG    1        2.781  -1.095  -1.371  0.00  0.00    +0.260 A 
ATOM     15  N   LIG    1        1.493  -0.927  -1.214  0.00  0.00    -0.290 NA
ATOM     16  N   LIG    1        1.250   0.431  -0.976  0.00  0.00    -0.390 N 
BRANCH  16  17
ATOM     17  C   LIG    1       -0.061   1.046  -0.753  0.00  0.00    +0.290 C 
ATOM     18  C   LIG    1       -0.717   0.427   0.494  0.00  0.00    +0.080 C 
ATOM     19  C   LIG    1       -2.203   0.868   0.479  0.00  0.00    -0.300 C 
ATOM     20  S   LIG    1       -2.661   0.665  -1.284  0.00  0.00    +2.400 S 
ATOM     21  O   LIG    1       -3.425   1.788  -1.705  0.00  0.00    -0.930 OA
ATOM     22  O   LIG    1       -3.160  -0.649  -1.493  0.00  0.00    -0.920 OA
ATOM     23  C   LIG    1       -0.971   0.784  -1.969  0.00  0.00    -0.310 C 
ENDBRANCH  16  17
ENDBRANCH   6  12
BRANCH   1  24
ATOM     24  C   LIG    1        6.007   7.326  -1.337  0.00  0.00    +0.040 C 
BRANCH  24  26
ATOM     25  C   LIG    1        5.887   9.064   0.453  0.00  0.00    +0.010 C 
ATOM     26  C   LIG    1        5.746   8.805  -1.048  0.00  0.00    -0.070 C 
ATOM     27  C   LIG    1        4.331   9.171  -1.499  0.00  0.00    +0.020 C 
ATOM     28  C   LIG    1        6.761   9.660  -1.810  0.00  0.00    +0.020 C 
ENDBRANCH  24  26
ENDBRANCH   1  24
TORSDOF 4
