REMARK  Name = ZINCqH0000003ZeT.0
REMARK                            x       y       z     vdW  Elec       q    Type
REMARK                         _______ _______ _______ _____ _____    ______ ____
ROOT
ATOM      1  C   LIG    1       -3.627   0.408   1.626  0.00  0.00    +0.520 C 
ATOM      2  N   LIG    1       -2.340   0.793   1.734  0.00  0.00    -0.730 N 
ATOM      3  H   LIG    1       -1.934   0.888   2.611  0.00  0.00    +0.400 HD
ATOM      4  O   LIG    1       -4.162   0.381   0.538  0.00  0.00    -0.520 OA
ENDROOT
BRANCH   1   5
ATOM      5  C   LIG    1       -4.401   0.011   2.856  0.00  0.00    +0.040 C 
BRANCH   5   6
ATOM      6  C   LIG    1       -5.500  -0.945   2.471  0.00  0.00    -0.060 A 
ATOM      7  C   LIG    1       -6.587  -0.494   1.746  0.00  0.00    +0.040 A 
ATOM      8  C   LIG    1       -7.593  -1.373   1.389  0.00  0.00    +0.000 A 
ATOM      9  C   LIG    1       -7.516  -2.700   1.766  0.00  0.00    +0.000 A 
ATOM     10  C   LIG    1       -6.432  -3.151   2.496  0.00  0.00    +0.000 A 
ATOM     11  C   LIG    1       -5.424  -2.273   2.849  0.00  0.00    +0.000 A 
ENDBRANCH   5   6
BRANCH   5  12
ATOM     12  C   LIG    1       -5.012   1.258   3.498  0.00  0.00    +0.000 C 
ATOM     13  C   LIG    1       -3.916   2.297   3.740  0.00  0.00    +0.020 C 
BRANCH  12  15
ATOM     14  C   LIG    1       -6.886   0.004   4.574  0.00  0.00    +0.010 C 
ATOM     15  C   LIG    1       -5.659   0.880   4.833  0.00  0.00    +0.020 C 
ENDBRANCH  12  15
ENDBRANCH   5  12
ENDBRANCH   1   5
BRANCH   2  16
ATOM     16  C   LIG    1       -1.553   1.067   0.530  0.00  0.00    +0.330 C 
BRANCH  16  17
ATOM     17  C   LIG    1       -0.157   1.476   0.923  0.00  0.00    -0.180 A 
ATOM     18  C   LIG    1        0.146   2.811   1.147  0.00  0.00    +0.120 A 
ATOM     19  C   LIG    1        1.443   3.144   1.501  0.00  0.00    -0.020 A 
ATOM     20  C   LIG    1        2.389   2.135   1.626  0.00  0.00    +0.380 A 
ATOM     21  N   LIG    1        2.060   0.871   1.409  0.00  0.00    -0.510 NA
ATOM     22  C   LIG    1        0.834   0.524   1.071  0.00  0.00    +0.330 A 
BRANCH  20  23
ATOM     23  N   LIG    1        3.702   2.457   1.984  0.00  0.00    -0.330 N 
ATOM     24  C   LIG    1        4.726   1.579   2.142  0.00  0.00    +0.260 A 
ATOM     25  C   LIG    1        5.824   2.290   2.487  0.00  0.00    -0.100 A 
ATOM     26  C   LIG    1        5.464   3.641   2.543  0.00  0.00    +0.270 A 
ATOM     27  N   LIG    1        4.196   3.743   2.237  0.00  0.00    -0.290 NA
ENDBRANCH  20  23
ENDBRANCH  16  17
ENDBRANCH   2  16
TORSDOF 7
