REMARK  Name = ZINCvU0000000DI6.0
REMARK                            x       y       z     vdW  Elec       q    Type
REMARK                         _______ _______ _______ _____ _____    ______ ____
ROOT
ATOM      1  S   LIG    1        3.292   9.402  -0.399  0.00  0.00    +0.110 S 
ENDROOT
BRANCH   1   2
ATOM      2  C   LIG    1        2.728   7.741  -0.231  0.00  0.00    -0.010 A 
ATOM      3  N   LIG    1        1.488   7.375  -0.135  0.00  0.00    -0.260 NA
ATOM      4  N   LIG    1        1.276   6.019  -0.011  0.00  0.00    -0.330 NA
ATOM      5  C   LIG    1        2.343   5.283  -0.005  0.00  0.00    +0.300 A 
ATOM      6  S   LIG    1        3.760   6.316  -0.158  0.00  0.00    +0.100 S 
BRANCH   5   7
ATOM      7  N   LIG    1        2.365   3.897   0.109  0.00  0.00    -0.620 N 
ATOM      8  H   LIG    1        3.211   3.431   0.191  0.00  0.00    +0.430 HD
BRANCH   7   9
ATOM      9  C   LIG    1        1.168   3.177   0.107  0.00  0.00    +0.150 A 
ATOM     10  C   LIG    1        0.041   3.701  -0.516  0.00  0.00    +0.010 A 
ATOM     11  C   LIG    1       -1.140   2.986  -0.517  0.00  0.00    +0.040 A 
ATOM     12  C   LIG    1       -1.205   1.753   0.106  0.00  0.00    -0.090 A 
ATOM     13  C   LIG    1       -0.084   1.226   0.721  0.00  0.00    +0.040 A 
ATOM     14  C   LIG    1        1.101   1.935   0.726  0.00  0.00    -0.010 A 
BRANCH  12  15
ATOM     15  C   LIG    1       -2.498   0.979   0.109  0.00  0.00    +0.020 C 
ATOM     16  C   LIG    1       -2.949   0.744   1.552  0.00  0.00    +0.030 C 
ATOM     17  C   LIG    1       -2.287  -0.369  -0.585  0.00  0.00    +0.030 C 
ENDBRANCH  12  15
ENDBRANCH   7   9
ENDBRANCH   5   7
ENDBRANCH   1   2
BRANCH   1  18
ATOM     18  C   LIG    1        1.750  10.358  -0.398  0.00  0.00    +0.120 C 
BRANCH  18  21
ATOM     19  N   LIG    1        1.072  12.731  -0.561  0.00  0.00    -0.660 N 
ATOM     20  H   LIG    1        0.154  12.447  -0.427  0.00  0.00    +0.430 HD
ATOM     21  C   LIG    1        2.069  11.825  -0.537  0.00  0.00    +0.540 C 
ATOM     22  O   LIG    1        3.222  12.189  -0.628  0.00  0.00    -0.500 OA
BRANCH  19  28
ATOM     23  C   LIG    1        0.466  14.886  -1.485  0.00  0.00    +0.110 A 
ATOM     24  C   LIG    1        0.757  16.223  -1.697  0.00  0.00    +0.030 A 
ATOM     25  C   LIG    1        1.933  16.761  -1.208  0.00  0.00    -0.020 A 
ATOM     26  C   LIG    1        2.821  15.967  -0.506  0.00  0.00    +0.100 A 
ATOM     27  C   LIG    1        2.536  14.633  -0.285  0.00  0.00    +0.080 A 
ATOM     28  C   LIG    1        1.361  14.085  -0.778  0.00  0.00    +0.170 A 
BRANCH  25  29
ATOM     29  N   LIG    1        2.242  18.190  -1.436  0.00  0.00    +0.030 N 
ATOM     30  O   LIG    1        3.278  18.666  -1.006  0.00  0.00    -0.150 OA
ATOM     31  O   LIG    1        1.461  18.891  -2.054  0.00  0.00    -0.160 OA
ENDBRANCH  25  29
BRANCH  23  33
ATOM     32  C   LIG    1       -1.559  15.235  -2.681  0.00  0.00    +0.250 C 
ATOM     33  O   LIG    1       -0.690  14.355  -1.966  0.00  0.00    -0.310 OA
ENDBRANCH  23  33
ENDBRANCH  19  28
ENDBRANCH  18  21
ENDBRANCH   1  18
TORSDOF 9
