REMARK  Name = ZINCrD000000ANno.0
REMARK                            x       y       z     vdW  Elec       q    Type
REMARK                         _______ _______ _______ _____ _____    ______ ____
ROOT
ATOM      1  O   LIG    1       -2.177  -0.097   1.105  0.00  0.00    -0.580 OA
ATOM      2  C   LIG    1       -1.745   0.867   1.707  0.00  0.00    +0.710 C 
ATOM      3  N   LIG    1       -2.314   1.245   2.869  0.00  0.00    -0.630 N 
ATOM      4  C   LIG    1       -3.379   0.430   3.457  0.00  0.00    +0.290 C 
ATOM      5  C   LIG    1       -2.950  -0.140   4.806  0.00  0.00    +0.220 C 
ATOM      6  O   LIG    1       -2.675   0.923   5.725  0.00  0.00    -0.330 OA
ATOM      7  C   LIG    1       -1.399   1.384   5.731  0.00  0.00    +0.110 A 
ATOM      8  C   LIG    1       -0.552   1.083   6.789  0.00  0.00    +0.000 A 
ATOM      9  C   LIG    1        0.774   1.469   6.739  0.00  0.00    +0.030 A 
ATOM     10  C   LIG    1        1.260   2.156   5.643  0.00  0.00    +0.000 A 
ATOM     11  C   LIG    1        0.414   2.476   4.595  0.00  0.00    +0.040 A 
ATOM     12  C   LIG    1       -0.910   2.103   4.649  0.00  0.00    -0.140 A 
ATOM     13  C   LIG    1       -1.867   2.473   3.534  0.00  0.00    +0.350 C 
ATOM     14  N   LIG    1       -0.698   1.556   1.214  0.00  0.00    -0.740 N 
ATOM     15  H   LIG    1       -0.399   2.366   1.656  0.00  0.00    +0.390 HD
ENDROOT
BRANCH  14  16
ATOM     16  C   LIG    1       -0.011   1.083   0.010  0.00  0.00    +0.250 C 
ATOM     17  C   LIG    1       -0.741   1.598  -1.234  0.00  0.00    +0.030 C 
ATOM     18  C   LIG    1        0.016   1.150  -2.486  0.00  0.00    +0.200 C 
ATOM     19  N   LIG    1        1.386   1.678  -2.447  0.00  0.00    -0.490 N 
ATOM     20  C   LIG    1        2.122   1.160  -1.287  0.00  0.00    +0.190 C 
ATOM     21  C   LIG    1        1.428   1.609   0.002  0.00  0.00    +0.030 C 
BRANCH  19  22
ATOM     22  C   LIG    1        2.065   1.399  -3.637  0.00  0.00    +0.100 A 
ATOM     23  C   LIG    1        3.275   0.719  -3.603  0.00  0.00    +0.000 A 
ATOM     24  C   LIG    1        3.941   0.439  -4.780  0.00  0.00    +0.010 A 
ATOM     25  C   LIG    1        3.409   0.846  -5.992  0.00  0.00    +0.070 A 
ATOM     26  C   LIG    1        2.205   1.530  -6.027  0.00  0.00    +0.010 A 
ATOM     27  F   LIG    1        4.065   0.576  -7.142  0.00  0.00    -0.140 F 
ATOM     28  C   LIG    1        1.533   1.807  -4.853  0.00  0.00    +0.030 A 
ENDBRANCH  19  22
ENDBRANCH  14  16
TORSDOF 2
