REMARK  Name = ZINCpk00000KfKRL.0
REMARK                            x       y       z     vdW  Elec       q    Type
REMARK                         _______ _______ _______ _____ _____    ______ ____
ROOT
ATOM      1  C   LIG    1       -0.014   1.209   0.009  0.00  0.00    +0.520 C 
ATOM      2  N   LIG    1       -1.191   1.867   0.018  0.00  0.00    -0.610 N 
ATOM      3  C   LIG    1       -1.233   3.337   0.032  0.00  0.00    +0.280 C 
ATOM      4  C   LIG    1       -2.163   3.803  -1.099  0.00  0.00    +0.170 C 
ATOM      5  N   LIG    1       -3.468   3.143  -0.957  0.00  0.00    -0.530 NA
ATOM      6  C   LIG    1       -3.347   1.687  -1.105  0.00  0.00    +0.170 C 
ATOM      7  C   LIG    1       -2.466   1.133   0.020  0.00  0.00    +0.300 C 
ATOM      8  O   LIG    1        0.002  -0.004   0.002  0.00  0.00    -0.540 OA
ENDROOT
BRANCH   1   9
ATOM      9  C   LIG    1        1.280   1.980   0.001  0.00  0.00    +0.060 C 
BRANCH   9  10
ATOM     10  C   LIG    1        2.457   1.002  -0.016  0.00  0.00    +0.340 C 
BRANCH  10  14
ATOM     11  C   LIG    1        7.019   2.673   1.215  0.00  0.00    +0.110 C 
ATOM     12  C   LIG    1        5.702   2.483   0.507  0.00  0.00    -0.240 A 
ATOM     13  C   LIG    1        4.726   1.615   0.860  0.00  0.00    +0.230 A 
ATOM     14  N   LIG    1        3.715   1.751  -0.024  0.00  0.00    -0.370 N 
ATOM     15  N   LIG    1        4.085   2.732  -0.954  0.00  0.00    -0.300 NA
ATOM     16  C   LIG    1        5.273   3.174  -0.631  0.00  0.00    +0.230 A 
ENDBRANCH  10  14
ENDBRANCH   9  10
ENDBRANCH   1   9
BRANCH   5  17
ATOM     17  C   LIG    1       -4.441   3.690  -1.912  0.00  0.00    +0.160 C 
BRANCH  17  18
ATOM     18  C   LIG    1       -4.360   5.218  -1.903  0.00  0.00    +0.260 C 
BRANCH  18  19
ATOM     19  C   LIG    1       -5.359   5.779  -2.883  0.00  0.00    -0.120 A 
ATOM     20  C   LIG    1       -6.671   5.974  -2.496  0.00  0.00    +0.010 A 
ATOM     21  C   LIG    1       -7.586   6.493  -3.393  0.00  0.00    +0.000 A 
ATOM     22  C   LIG    1       -7.191   6.809  -4.679  0.00  0.00    +0.000 A 
ATOM     23  C   LIG    1       -5.879   6.609  -5.067  0.00  0.00    +0.000 A 
ATOM     24  C   LIG    1       -4.963   6.094  -4.169  0.00  0.00    +0.010 A 
ENDBRANCH  18  19
BRANCH  18  25
ATOM     25  O   LIG    1       -4.654   5.704  -0.592  0.00  0.00    -0.540 OA
ATOM     26  H   LIG    1       -5.534   5.463  -0.272  0.00  0.00    +0.380 HD
ENDBRANCH  18  25
ENDBRANCH  17  18
ENDBRANCH   5  17
TORSDOF 7
