REMARK  Name = ZINCvU0000000IOd.0
REMARK                            x       y       z     vdW  Elec       q    Type
REMARK                         _______ _______ _______ _____ _____    ______ ____
ROOT
ATOM      1  N   LIG    1       -3.417  -1.455   6.043  0.00  0.00    -0.740 N 
ATOM      2  H   LIG    1       -4.027  -1.887   5.424  0.00  0.00    +0.400 HD
ENDROOT
BRANCH   1   3
ATOM      3  C   LIG    1       -3.185  -2.016   7.303  0.00  0.00    +0.200 A 
ATOM      4  C   LIG    1       -2.313  -1.400   8.188  0.00  0.00    -0.060 A 
ATOM      5  C   LIG    1       -2.086  -1.956   9.434  0.00  0.00    +0.040 A 
ATOM      6  C   LIG    1       -2.725  -3.126   9.800  0.00  0.00    -0.040 A 
ATOM      7  C   LIG    1       -3.596  -3.747   8.924  0.00  0.00    +0.070 A 
ATOM      8  C   LIG    1       -3.834  -3.193   7.675  0.00  0.00    +0.070 A 
BRANCH   8   9
ATOM      9  N   LIG    1       -4.720  -3.818   6.788  0.00  0.00    -0.670 N 
ATOM     10  H   LIG    1       -5.273  -3.282   6.197  0.00  0.00    +0.400 HD
ATOM     11  C   LIG    1       -4.805  -5.162   6.755  0.00  0.00    +0.560 C 
ATOM     12  O   LIG    1       -4.174  -5.831   7.551  0.00  0.00    -0.520 OA
BRANCH  11  13
ATOM     13  C   LIG    1       -5.665  -5.824   5.752  0.00  0.00    -0.140 A 
ATOM     14  C   LIG    1       -6.395  -5.060   4.840  0.00  0.00    +0.030 A 
ATOM     15  C   LIG    1       -7.193  -5.684   3.903  0.00  0.00    +0.000 A 
ATOM     16  C   LIG    1       -7.277  -7.065   3.872  0.00  0.00    +0.040 A 
ATOM     17  C   LIG    1       -6.560  -7.829   4.776  0.00  0.00    +0.000 A 
ATOM     18  C   LIG    1       -5.755  -7.217   5.715  0.00  0.00    +0.080 A 
ENDBRANCH  11  13
ENDBRANCH   8   9
ENDBRANCH   1   3
BRANCH   1  19
ATOM     19  C   LIG    1       -2.739  -0.215   5.656  0.00  0.00    +0.290 C 
BRANCH  19  31
ATOM     20  C   LIG    1        0.014   1.120   0.052  0.00  0.00    +0.070 C 
ATOM     21  C   LIG    1       -0.711   1.608   1.308  0.00  0.00    +0.030 C 
ATOM     22  C   LIG    1       -2.138   1.081   1.302  0.00  0.00    +0.030 C 
ATOM     23  C   LIG    1       -3.054   1.684   2.333  0.00  0.00    +0.300 C 
ATOM     24  N   LIG    1       -2.658   1.288   3.694  0.00  0.00    -0.560 N 
ATOM     25  C   LIG    1       -1.746   2.099   4.383  0.00  0.00    +0.150 A 
ATOM     26  C   LIG    1       -2.203   2.937   5.394  0.00  0.00    +0.010 A 
ATOM     27  C   LIG    1       -1.327   3.814   6.006  0.00  0.00    +0.040 A 
ATOM     28  C   LIG    1        0.002   3.865   5.625  0.00  0.00    +0.030 A 
ATOM     29  C   LIG    1        0.470   3.019   4.633  0.00  0.00    +0.080 A 
ATOM     30  C   LIG    1       -0.405   2.136   4.030  0.00  0.00    -0.100 A 
ATOM     31  C   LIG    1       -3.158   0.173   4.262  0.00  0.00    +0.530 C 
ATOM     32  O   LIG    1       -3.946  -0.518   3.651  0.00  0.00    -0.520 OA
ATOM     33  S   LIG    1        0.167   1.010   2.781  0.00  0.00    -0.140 S 
ENDBRANCH  19  31
ENDBRANCH   1  19
TORSDOF 5
