REMARK  Name = ZINCpe00000gM3uA.0
REMARK                            x       y       z     vdW  Elec       q    Type
REMARK                         _______ _______ _______ _____ _____    ______ ____
ROOT
ATOM      1  C   LIG    1        0.084   7.747   0.007  0.00  0.00    +0.230 C 
ENDROOT
BRANCH   1   2
ATOM      2  O   LIG    1        0.770   7.955   1.243  0.00  0.00    -0.530 OA
ATOM      3  H   LIG    1        0.230   7.783   2.026  0.00  0.00    +0.380 HD
ENDBRANCH   1   2
BRANCH   1   4
ATOM      4  C   LIG    1       -1.128   8.678  -0.067  0.00  0.00    +0.150 C 
BRANCH   4  10
ATOM      5  C   LIG    1       -3.432  10.905  -2.924  0.00  0.00    +0.190 A 
ATOM      6  N   LIG    1       -4.357  11.428  -2.159  0.00  0.00    -0.300 NA
ATOM      7  N   LIG    1       -3.917  11.531  -0.951  0.00  0.00    -0.280 NA
ATOM      8  C   LIG    1       -2.703  11.082  -0.894  0.00  0.00    +0.130 A 
ATOM      9  C   LIG    1       -1.774  10.988   0.291  0.00  0.00    +0.360 C 
ATOM     10  N   LIG    1       -0.673  10.075  -0.064  0.00  0.00    -0.510 NA
ATOM     11  C   LIG    1       -0.076  10.438  -1.357  0.00  0.00    +0.250 C 
ATOM     12  C   LIG    1       -1.057  10.108  -2.491  0.00  0.00    +0.250 C 
ATOM     13  N   LIG    1       -2.361  10.675  -2.145  0.00  0.00    -0.470 N 
BRANCH   5  15
ATOM     14  C   LIG    1       -4.084   9.200  -4.602  0.00  0.00    +0.040 C 
ATOM     15  C   LIG    1       -3.546  10.617  -4.399  0.00  0.00    +0.140 C 
ENDBRANCH   5  15
ENDBRANCH   4  10
ENDBRANCH   1   4
BRANCH   1  16
ATOM     16  C   LIG    1       -0.384   6.293  -0.079  0.00  0.00    +0.170 C 
BRANCH  16  17
ATOM     17  O   LIG    1        0.754   5.429  -0.127  0.00  0.00    -0.300 OA
BRANCH  17  18
ATOM     18  C   LIG    1        0.511   4.093  -0.206  0.00  0.00    +0.140 A 
ATOM     19  C   LIG    1       -0.794   3.627  -0.235  0.00  0.00    -0.060 A 
ATOM     20  C   LIG    1       -1.043   2.269  -0.320  0.00  0.00    +0.080 A 
ATOM     21  C   LIG    1        0.010   1.372  -0.366  0.00  0.00    -0.010 A 
ATOM     22  O   LIG    1        0.034   0.008  -0.446  0.00  0.00    -0.310 OA
ATOM     23  C   LIG    1        1.365  -0.377  -0.053  0.00  0.00    +0.430 C 
ATOM     24  O   LIG    1        2.167   0.768  -0.398  0.00  0.00    -0.300 OA
ATOM     25  C   LIG    1        1.322   1.838  -0.336  0.00  0.00    +0.080 A 
ATOM     26  C   LIG    1        1.569   3.199  -0.256  0.00  0.00    +0.020 A 
ENDBRANCH  17  18
ENDBRANCH  16  17
ENDBRANCH   1  16
TORSDOF 7
