REMARK  Name = ZINCrH000004jRCQ.0
REMARK                            x       y       z     vdW  Elec       q    Type
REMARK                         _______ _______ _______ _____ _____    ______ ____
ROOT
ATOM      1  C   LIG    1        3.924   7.393   4.869  0.00  0.00    +0.290 C 
ATOM      2  N   LIG    1        2.765   6.637   5.353  0.00  0.00    -0.610 N 
ATOM      3  C   LIG    1        1.873   6.136   4.476  0.00  0.00    +0.520 C 
ATOM      4  O   LIG    1        0.914   5.511   4.877  0.00  0.00    -0.540 OA
ENDROOT
BRANCH   3   5
ATOM      5  C   LIG    1        2.067   6.353   2.997  0.00  0.00    +0.050 C 
BRANCH   5   6
ATOM      6  C   LIG    1        0.923   5.687   2.230  0.00  0.00    +0.080 C 
BRANCH   6   7
ATOM      7  C   LIG    1        1.120   5.907   0.729  0.00  0.00    +0.010 C 
ATOM      8  C   LIG    1       -0.086   5.351  -0.029  0.00  0.00    +0.120 C 
ATOM      9  C   LIG    1       -0.058   3.844   0.008  0.00  0.00    -0.120 A 
ATOM     10  C   LIG    1       -1.242   3.133   0.023  0.00  0.00    +0.050 A 
ATOM     11  C   LIG    1       -1.220   1.750   0.017  0.00  0.00    -0.010 A 
ATOM     12  C   LIG    1       -0.013   1.076   0.008  0.00  0.00    +0.040 A 
ATOM     13  C   LIG    1        1.174   1.782   0.000  0.00  0.00    -0.020 A 
ATOM     14  C   LIG    1        1.156   3.170   0.008  0.00  0.00    +0.160 A 
ATOM     15  N   LIG    1        2.356   3.887   0.002  0.00  0.00    -0.660 N 
ATOM     16  H   LIG    1        3.186   3.430  -0.205  0.00  0.00    +0.410 HD
ATOM     17  C   LIG    1        2.373   5.202   0.281  0.00  0.00    +0.530 C 
ATOM     18  O   LIG    1        3.407   5.826   0.171  0.00  0.00    -0.520 OA
ENDBRANCH   6   7
ENDBRANCH   5   6
ENDBRANCH   3   5
BRANCH   2  19
ATOM     19  C   LIG    1        2.576   6.427   6.791  0.00  0.00    +0.320 C 
BRANCH  19  20
ATOM     20  C   LIG    1        3.274   5.132   7.212  0.00  0.00    +0.190 C 
BRANCH  20  21
ATOM     21  O   LIG    1        4.685   5.271   7.032  0.00  0.00    -0.310 OA
BRANCH  21  22
ATOM     22  C   LIG    1        5.457   4.202   7.363  0.00  0.00    +0.140 A 
ATOM     23  C   LIG    1        4.869   3.046   7.855  0.00  0.00    -0.060 A 
ATOM     24  C   LIG    1        5.655   1.960   8.187  0.00  0.00    +0.070 A 
ATOM     25  C   LIG    1        7.029   2.027   8.036  0.00  0.00    -0.070 A 
ATOM     26  C   LIG    1        7.618   3.181   7.550  0.00  0.00    +0.070 A 
ATOM     27 CL   LIG    1        8.016   0.663   8.459  0.00  0.00    -0.070 Cl
ATOM     28  C   LIG    1        6.835   4.268   7.213  0.00  0.00    +0.000 A 
ENDBRANCH  21  22
ENDBRANCH  20  21
ENDBRANCH  19  20
ENDBRANCH   2  19
TORSDOF 7
