REMARK  Name = ZINCrD0000074qkr.0
REMARK                            x       y       z     vdW  Elec       q    Type
REMARK                         _______ _______ _______ _____ _____    ______ ____
ROOT
ATOM      1  O   LIG    1       -3.845  -0.994   0.003  0.00  0.00    -0.330 OA
ENDROOT
BRANCH   1   2
ATOM      2  C   LIG    1       -4.007  -2.331   0.015  0.00  0.00    +0.520 C 
ATOM      3  O   LIG    1       -3.036  -3.061   0.022  0.00  0.00    -0.490 OA
BRANCH   2  13
ATOM      4  C   LIG    1       -8.969  -1.797   0.257  0.00  0.00    +0.140 C 
ATOM      5  C   LIG    1       -7.757  -2.684   0.134  0.00  0.00    +0.150 A 
ATOM      6  N   LIG    1       -7.925  -3.979   0.030  0.00  0.00    -0.450 NA
ATOM      7  C   LIG    1       -6.891  -4.816  -0.082  0.00  0.00    +0.130 A 
ATOM      8  C   LIG    1       -7.092  -6.204  -0.193  0.00  0.00    +0.050 A 
ATOM      9  C   LIG    1       -6.021  -7.034  -0.323  0.00  0.00    +0.030 A 
ATOM     10  C   LIG    1       -4.721  -6.532  -0.332  0.00  0.00    +0.020 A 
ATOM     11  C   LIG    1       -4.487  -5.194  -0.222  0.00  0.00    +0.050 A 
ATOM     12  C   LIG    1       -5.567  -4.311  -0.097  0.00  0.00    -0.060 A 
ATOM     13  C   LIG    1       -5.366  -2.911   0.019  0.00  0.00    -0.070 A 
ATOM     14  C   LIG    1       -6.491  -2.103   0.133  0.00  0.00    +0.060 A 
ENDBRANCH   2  13
ENDBRANCH   1   2
BRANCH   1  15
ATOM     15  C   LIG    1       -2.481  -0.495  -0.002  0.00  0.00    +0.240 C 
BRANCH  15  16
ATOM     16  C   LIG    1       -2.498   1.012  -0.015  0.00  0.00    +0.400 C 
ATOM     17  O   LIG    1       -3.555   1.607  -0.021  0.00  0.00    -0.420 OA
BRANCH  16  18
ATOM     18  C   LIG    1       -1.234   1.760  -0.022  0.00  0.00    -0.170 A 
ATOM     19  C   LIG    1       -0.013   1.076  -0.015  0.00  0.00    +0.070 A 
ATOM     20  C   LIG    1        1.170   1.781  -0.025  0.00  0.00    +0.030 A 
ATOM     21  C   LIG    1        1.157   3.171  -0.037  0.00  0.00    +0.090 A 
ATOM     22  O   LIG    1        2.338   3.845  -0.043  0.00  0.00    -0.300 OA
ATOM     23  C   LIG    1        2.292   5.222  -0.432  0.00  0.00    +0.230 C 
ATOM     24  C   LIG    1        1.127   5.893   0.309  0.00  0.00    +0.230 C 
ATOM     25  O   LIG    1       -0.083   5.221  -0.057  0.00  0.00    -0.300 OA
ATOM     26  C   LIG    1       -0.055   3.859  -0.040  0.00  0.00    +0.040 A 
ATOM     27  C   LIG    1       -1.246   3.160  -0.029  0.00  0.00    +0.100 A 
ENDBRANCH  16  18
ENDBRANCH  15  16
ENDBRANCH   1  15
TORSDOF 5
