REMARK  Name = ZINCqH0000005WgC.0
REMARK                            x       y       z     vdW  Elec       q    Type
REMARK                         _______ _______ _______ _____ _____    ______ ____
ROOT
ATOM      1  N   LIG    1        2.846   0.762  -1.427  0.00  0.00    -0.730 N 
ATOM      2  H   LIG    1        2.284   1.044  -2.165  0.00  0.00    +0.400 HD
ATOM      3  C   LIG    1        4.026   0.159  -1.671  0.00  0.00    +0.530 C 
ATOM      4  O   LIG    1        4.770  -0.112  -0.752  0.00  0.00    -0.520 OA
ENDROOT
BRANCH   3   5
ATOM      5  C   LIG    1        4.422  -0.180  -3.085  0.00  0.00    -0.040 C 
ATOM      6  C   LIG    1        3.329  -1.039  -3.746  0.00  0.00    +0.040 C 
ATOM      7  C   LIG    1        3.994  -2.380  -4.124  0.00  0.00    +0.020 C 
ATOM      8  C   LIG    1        5.204  -2.489  -3.163  0.00  0.00    +0.010 C 
ATOM      9  C   LIG    1        5.710  -1.028  -3.084  0.00  0.00    +0.060 C 
BRANCH   5  10
ATOM     10  C   LIG    1        4.635   1.084  -3.878  0.00  0.00    -0.040 A 
ATOM     11  C   LIG    1        4.886   1.013  -5.235  0.00  0.00    +0.010 A 
ATOM     12  C   LIG    1        5.077   2.172  -5.965  0.00  0.00    +0.060 A 
ATOM     13  C   LIG    1        5.027   3.401  -5.336  0.00  0.00    -0.010 A 
ATOM     14  C   LIG    1        4.781   3.473  -3.975  0.00  0.00    +0.110 A 
ATOM     15  F   LIG    1        4.732   4.674  -3.358  0.00  0.00    -0.140 F 
ATOM     16  C   LIG    1        4.585   2.312  -3.246  0.00  0.00    -0.030 A 
ENDBRANCH   5  10
ENDBRANCH   3   5
BRANCH   1  17
ATOM     17  C   LIG    1        2.413   0.994  -0.047  0.00  0.00    +0.310 C 
BRANCH  17  21
ATOM     18  C   LIG    1       -1.397   2.936  -0.056  0.00  0.00    -0.120 A 
ATOM     19  C   LIG    1       -1.321   1.542  -0.051  0.00  0.00    +0.080 A 
ATOM     20  C   LIG    1       -0.088   0.922  -0.043  0.00  0.00    +0.030 A 
ATOM     21  C   LIG    1        1.070   1.678  -0.050  0.00  0.00    -0.070 A 
ATOM     22  C   LIG    1        1.002   3.060  -0.059  0.00  0.00    +0.030 A 
ATOM     23  C   LIG    1       -0.224   3.693  -0.063  0.00  0.00    +0.090 A 
BRANCH  18  24
ATOM     24  C   LIG    1       -2.713   3.607  -0.059  0.00  0.00    +0.510 C 
ATOM     25  O   LIG    1       -2.776   4.821  -0.068  0.00  0.00    -0.500 OA
BRANCH  24  27
ATOM     26  C   LIG    1       -5.100   3.601  -0.057  0.00  0.00    +0.290 C 
ATOM     27  O   LIG    1       -3.843   2.874  -0.053  0.00  0.00    -0.350 OA
ENDBRANCH  24  27
ENDBRANCH  18  24
ENDBRANCH  17  21
ENDBRANCH   1  17
TORSDOF 6
