REMARK  Name = ZINCnE00000gI3Cu.0
REMARK                            x       y       z     vdW  Elec       q    Type
REMARK                         _______ _______ _______ _____ _____    ______ ____
ROOT
ATOM      1  N   LIG    1        3.438   4.393   1.426  0.00  0.00    -1.020 NA
ENDROOT
BRANCH   1   2
ATOM      2  C   LIG    1        4.666   4.971   1.694  0.00  0.00    +0.310 A 
ATOM      3  C   LIG    1        5.424   4.797   2.816  0.00  0.00    -0.170 A 
ATOM      4  C   LIG    1        6.566   5.603   2.582  0.00  0.00    +0.060 A 
ATOM      5  N   LIG    1        6.393   6.154   1.405  0.00  0.00    -0.390 NA
ATOM      6  O   LIG    1        5.350   5.810   0.900  0.00  0.00    +0.010 OA
BRANCH   4   7
ATOM      7  C   LIG    1        7.728   5.787   3.490  0.00  0.00    +0.050 A 
ATOM      8  C   LIG    1        7.781   5.139   4.726  0.00  0.00    -0.010 A 
ATOM      9  C   LIG    1        8.881   5.334   5.537  0.00  0.00    +0.250 A 
ATOM     10  N   LIG    1        9.867   6.126   5.162  0.00  0.00    -0.490 NA
ATOM     11  C   LIG    1        9.853   6.759   4.005  0.00  0.00    +0.240 A 
ATOM     12  C   LIG    1        8.793   6.616   3.132  0.00  0.00    -0.020 A 
ENDBRANCH   4   7
ENDBRANCH   1   2
BRANCH   1  13
ATOM     13  S   LIG    1        2.661   4.724   0.002  0.00  0.00    +2.610 S 
ATOM     14  O   LIG    1        2.308   6.100   0.047  0.00  0.00    -1.020 OA
ATOM     15  O   LIG    1        3.458   4.160  -1.031  0.00  0.00    -1.010 OA
BRANCH  13  23
ATOM     16  C   LIG    1        2.482   1.705  -0.012  0.00  0.00    +0.120 C 
ATOM     17  C   LIG    1        1.167   2.440   0.004  0.00  0.00    +0.040 A 
ATOM     18  C   LIG    1       -0.021   1.732   0.012  0.00  0.00    -0.070 A 
ATOM     19  C   LIG    1       -1.229   2.408   0.021  0.00  0.00    +0.070 A 
ATOM     20  C   LIG    1       -1.247   3.789   0.034  0.00  0.00    +0.000 A 
ATOM     21  C   LIG    1       -0.059   4.497   0.027  0.00  0.00    +0.130 A 
ATOM     22 CL   LIG    1        0.002  -0.004   0.002  0.00  0.00    -0.070 Cl
ATOM     23  C   LIG    1        1.147   3.822   0.012  0.00  0.00    -0.620 A 
ENDBRANCH  13  23
ENDBRANCH   1  13
TORSDOF 4
