REMARK  Name = ZINCqH0000008tAc.0
REMARK                            x       y       z     vdW  Elec       q    Type
REMARK                         _______ _______ _______ _____ _____    ______ ____
ROOT
ATOM      1  C   LIG    1       -0.253   5.433   0.308  0.00  0.00    +0.040 C 
ATOM      2  C   LIG    1        0.428   6.062  -0.911  0.00  0.00    +0.050 C 
ATOM      3  C   LIG    1        1.843   5.493  -1.045  0.00  0.00    +0.050 C 
ATOM      4  C   LIG    1        1.766   3.969  -1.165  0.00  0.00    +0.200 C 
ATOM      5  N   LIG    1        1.107   3.416   0.025  0.00  0.00    -0.490 N 
ATOM      6  C   LIG    1       -0.270   3.911   0.149  0.00  0.00    +0.230 C 
ENDROOT
BRANCH   5   7
ATOM      7  C   LIG    1        1.137   2.026   0.010  0.00  0.00    +0.350 A 
ATOM      8  N   LIG    1        0.549   1.368  -0.977  0.00  0.00    -0.510 NA
ATOM      9  C   LIG    1        0.555   0.049  -1.029  0.00  0.00    +0.310 A 
ATOM     10  C   LIG    1        1.179  -0.695  -0.049  0.00  0.00    -0.020 A 
ATOM     11  C   LIG    1        1.808  -0.043   1.004  0.00  0.00    +0.130 A 
ATOM     12  C   LIG    1        1.785   1.339   1.032  0.00  0.00    -0.210 A 
BRANCH  12  13
ATOM     13  C   LIG    1        2.453   2.092   2.154  0.00  0.00    +0.530 C 
ATOM     14  F   LIG    1        1.521   2.932   2.771  0.00  0.00    -0.170 F 
ATOM     15  F   LIG    1        3.504   2.859   1.640  0.00  0.00    -0.170 F 
ATOM     16  F   LIG    1        2.954   1.182   3.091  0.00  0.00    -0.180 F 
ENDBRANCH  12  13
ENDBRANCH   5   7
BRANCH   1  17
ATOM     17  C   LIG    1       -1.667   5.943   0.414  0.00  0.00    +0.470 C 
ATOM     18  O   LIG    1       -2.594   5.169   0.367  0.00  0.00    -0.500 OA
BRANCH  17  19
ATOM     19  O   LIG    1       -1.898   7.257   0.561  0.00  0.00    -0.340 OA
BRANCH  19  21
ATOM     20  C   LIG    1       -3.825   7.975  -0.743  0.00  0.00    +0.040 C 
ATOM     21  C   LIG    1       -3.284   7.677   0.657  0.00  0.00    +0.200 C 
BRANCH  21  22
ATOM     22  C   LIG    1       -3.377   8.938   1.519  0.00  0.00    +0.040 C 
ATOM     23  C   LIG    1       -2.549  10.055   0.880  0.00  0.00    +0.090 C 
ATOM     24  C   LIG    1       -2.837   8.639   2.919  0.00  0.00    +0.070 C 
BRANCH  22  25
ATOM     25  C   LIG    1       -4.783   9.363   1.616  0.00  0.00    +0.210 C 
ATOM     26  N   LIG    1       -5.868   9.691   1.690  0.00  0.00    -0.410 NA
ENDBRANCH  22  25
ENDBRANCH  21  22
ENDBRANCH  19  21
ENDBRANCH  17  19
ENDBRANCH   1  17
TORSDOF 7
