REMARK  Name = ZINCpe000027pH9I.0
REMARK                            x       y       z     vdW  Elec       q    Type
REMARK                         _______ _______ _______ _____ _____    ______ ____
ROOT
ATOM      1  N   LIG    1       -1.050   2.215  -0.301  0.00  0.00    -0.670 N 
ATOM      2  H   LIG    1       -1.839   1.654  -0.254  0.00  0.00    +0.410 HD
ATOM      3  C   LIG    1        0.140   1.677  -0.634  0.00  0.00    +0.520 C 
ATOM      4  O   LIG    1        1.109   2.391  -0.786  0.00  0.00    -0.500 OA
ENDROOT
BRANCH   1   9
ATOM      5  C   LIG    1       -0.184   5.603   0.851  0.00  0.00    +0.160 A 
ATOM      6  C   LIG    1       -1.343   6.293   0.521  0.00  0.00    +0.010 A 
ATOM      7  C   LIG    1       -2.398   5.630  -0.078  0.00  0.00    +0.050 A 
ATOM      8  C   LIG    1       -2.302   4.280  -0.351  0.00  0.00    -0.030 A 
ATOM      9  C   LIG    1       -1.145   3.583  -0.024  0.00  0.00    +0.160 A 
ATOM     10  C   LIG    1       -0.087   4.245   0.582  0.00  0.00    -0.010 A 
BRANCH   5  13
ATOM     11  C   LIG    1        2.208   8.319   1.882  0.00  0.00    +0.110 C 
ATOM     12  C   LIG    1        1.134   7.561   1.145  0.00  0.00    +0.510 C 
ATOM     13  N   LIG    1        0.883   6.274   1.458  0.00  0.00    -0.670 N 
ATOM     14  H   LIG    1        1.441   5.814   2.103  0.00  0.00    +0.410 HD
ATOM     15  O   LIG    1        0.496   8.108   0.271  0.00  0.00    -0.520 OA
ENDBRANCH   5  13
ENDBRANCH   1   9
BRANCH   3  16
ATOM     16  C   LIG    1        0.267   0.187  -0.823  0.00  0.00    +0.190 C 
ATOM     17  C   LIG    1       -0.675  -0.267  -1.940  0.00  0.00    +0.020 C 
BRANCH  16  18
ATOM     18  N   LIG    1        1.651  -0.145  -1.185  0.00  0.00    -0.510 NA
ATOM     19  C   LIG    1        2.038   0.510  -2.442  0.00  0.00    +0.180 C 
ATOM     20  C   LIG    1        3.534   0.288  -2.690  0.00  0.00    +0.320 C 
ATOM     21  N   LIG    1        3.809  -1.155  -2.631  0.00  0.00    -1.010 NA
ATOM     22  C   LIG    1        3.329  -1.908  -1.462  0.00  0.00    +0.310 C 
ATOM     23  C   LIG    1        1.841  -1.600  -1.262  0.00  0.00    +0.190 C 
BRANCH  21  24
ATOM     24  S   LIG    1        4.636  -1.914  -3.849  0.00  0.00    +2.750 S 
ATOM     25  F   LIG    1        3.548  -2.413  -4.925  0.00  0.00    -0.490 F 
ATOM     26  O   LIG    1        5.204  -3.085  -3.279  0.00  0.00    -0.940 OA
ATOM     27  O   LIG    1        5.408  -0.910  -4.495  0.00  0.00    -0.940 OA
ENDBRANCH  21  24
ENDBRANCH  16  18
ENDBRANCH   3  16
TORSDOF 5
