REMARK  Name = ZINCrH00000No4yK.0
REMARK                            x       y       z     vdW  Elec       q    Type
REMARK                         _______ _______ _______ _____ _____    ______ ____
ROOT
ATOM      1  C   LIG    1        1.410   2.026  -0.312  0.00  0.00    +0.260 C 
ATOM      2  O   LIG    1        1.370   1.526   1.034  0.00  0.00    -0.350 OA
ATOM      3  C   LIG    1        2.528   0.680   1.204  0.00  0.00    +0.220 C 
ATOM      4  C   LIG    1        2.619  -0.083  -0.141  0.00  0.00    +0.050 C 
ATOM      5  C   LIG    1        2.190   1.002  -1.159  0.00  0.00    -0.030 C 
ENDROOT
BRANCH   1  10
ATOM      6  N   LIG    1       -0.416   3.104  -1.730  0.00  0.00    -0.320 N 
ATOM      7  N   LIG    1       -1.781   2.889  -1.961  0.00  0.00    -0.280 NA
ATOM      8  C   LIG    1       -2.159   1.861  -1.245  0.00  0.00    +0.240 A 
ATOM      9  C   LIG    1       -1.052   1.394  -0.529  0.00  0.00    -0.070 A 
ATOM     10  C   LIG    1        0.008   2.172  -0.847  0.00  0.00    +0.070 A 
BRANCH   6  17
ATOM     11  C   LIG    1       -0.507   3.418  -4.558  0.00  0.00    +0.100 C 
ATOM     12  C   LIG    1        0.356   4.295  -3.687  0.00  0.00    -0.070 A 
ATOM     13  C   LIG    1        1.132   5.285  -4.257  0.00  0.00    +0.020 A 
ATOM     14  C   LIG    1        1.924   6.090  -3.458  0.00  0.00    +0.020 A 
ATOM     15  C   LIG    1        1.942   5.906  -2.088  0.00  0.00    +0.030 A 
ATOM     16  C   LIG    1        1.163   4.921  -1.512  0.00  0.00    +0.020 A 
ATOM     17  C   LIG    1        0.371   4.108  -2.311  0.00  0.00    +0.140 A 
ENDBRANCH   6  17
ENDBRANCH   1  10
BRANCH   5  18
ATOM     18  C   LIG    1        3.399   1.647  -1.785  0.00  0.00    +0.530 C 
ATOM     19  N   LIG    1        3.810   1.262  -3.010  0.00  0.00    -0.720 N 
ATOM     20  H   LIG    1        3.327   0.570  -3.488  0.00  0.00    +0.410 HD
ATOM     21  O   LIG    1        4.003   2.512  -1.187  0.00  0.00    -0.530 OA
BRANCH  19  22
ATOM     22  C   LIG    1        4.986   1.889  -3.619  0.00  0.00    +0.350 C 
ATOM     23  C   LIG    1        4.567   3.179  -4.325  0.00  0.00    +0.040 C 
BRANCH  22  24
ATOM     24  C   LIG    1        5.597   0.943  -4.620  0.00  0.00    -0.030 A 
ATOM     25  C   LIG    1        6.913   0.747  -4.815  0.00  0.00    -0.040 A 
ATOM     26  C   LIG    1        7.036  -0.219  -5.840  0.00  0.00    -0.060 A 
ATOM     27  C   LIG    1        5.787  -0.549  -6.216  0.00  0.00    +0.180 A 
ATOM     28  O   LIG    1        4.920   0.158  -5.474  0.00  0.00    -0.180 OA
ENDBRANCH  22  24
ENDBRANCH  19  22
ENDBRANCH   5  18
TORSDOF 5
