REMARK  Name = ZINCpk00000xIcLV.0
REMARK                            x       y       z     vdW  Elec       q    Type
REMARK                         _______ _______ _______ _____ _____    ______ ____
ROOT
ATOM      1  C   LIG    1        2.183   6.374  -1.353  0.00  0.00    +0.250 C 
ATOM      2  C   LIG    1        3.320   7.340  -1.683  0.00  0.00    +0.100 C 
ATOM      3  C   LIG    1        4.104   6.858  -2.876  0.00  0.00    -0.070 A 
ATOM      4  C   LIG    1        4.879   7.789  -3.555  0.00  0.00    +0.000 A 
ATOM      5  C   LIG    1        5.628   7.413  -4.651  0.00  0.00    +0.010 A 
ATOM      6  C   LIG    1        5.608   6.098  -5.078  0.00  0.00    +0.000 A 
ATOM      7  C   LIG    1        4.836   5.172  -4.407  0.00  0.00    +0.030 A 
ATOM      8  C   LIG    1        4.079   5.551  -3.307  0.00  0.00    -0.100 A 
ATOM      9  C   LIG    1        3.252   4.494  -2.627  0.00  0.00    +0.350 C 
ATOM     10  N   LIG    1        2.733   5.009  -1.355  0.00  0.00    -0.990 NA
ENDROOT
BRANCH   1  14
ATOM     11  C   LIG    1       -0.263   7.152   1.485  0.00  0.00    +0.290 C 
ATOM     12  N   LIG    1        0.304   6.949   0.149  0.00  0.00    -0.710 N 
ATOM     13  H   LIG    1       -0.268   6.997  -0.633  0.00  0.00    +0.400 HD
ATOM     14  C   LIG    1        1.620   6.695   0.007  0.00  0.00    +0.510 C 
ATOM     15  O   LIG    1        2.351   6.724   0.975  0.00  0.00    -0.530 OA
ENDBRANCH   1  14
BRANCH  10  16
ATOM     16  S   LIG    1        2.772   4.093   0.025  0.00  0.00    +2.690 S 
ATOM     17  O   LIG    1        1.628   4.462   0.783  0.00  0.00    -0.930 OA
ATOM     18  O   LIG    1        3.035   2.759  -0.387  0.00  0.00    -0.950 OA
BRANCH  16  19
ATOM     19  C   LIG    1        4.175   4.613   0.956  0.00  0.00    -0.630 A 
ATOM     20  C   LIG    1        4.004   5.207   2.189  0.00  0.00    +0.180 A 
ATOM     21  C   LIG    1        5.104   5.616   2.921  0.00  0.00    +0.020 A 
ATOM     22  C   LIG    1        6.382   5.437   2.421  0.00  0.00    +0.080 A 
ATOM     23  C   LIG    1        6.567   4.838   1.192  0.00  0.00    +0.040 A 
ATOM     24  C   LIG    1        5.462   4.424   0.448  0.00  0.00    +0.070 A 
BRANCH  24  25
ATOM     25  C   LIG    1        5.646   3.808  -0.832  0.00  0.00    +0.220 C 
ATOM     26  N   LIG    1        5.792   3.319  -1.847  0.00  0.00    -0.360 NA
ENDBRANCH  24  25
ENDBRANCH  16  19
ENDBRANCH  10  16
TORSDOF 4
