REMARK  Name = ZINCkj00000xBpp6.0
REMARK                            x       y       z     vdW  Elec       q    Type
REMARK                         _______ _______ _______ _____ _____    ______ ____
ROOT
ATOM      1  C   LIG    1        8.386  -2.165  -0.106  0.00  0.00    +0.340 C 
ATOM      2  N   LIG    1        7.177  -2.985   0.046  0.00  0.00    -0.390 N 
ATOM      3  C   LIG    1        7.163  -4.023  -0.989  0.00  0.00    +0.260 C 
ATOM      4  C   LIG    1        5.930  -4.920  -0.829  0.00  0.00    +0.090 C 
ATOM      5  C   LIG    1        4.681  -4.049  -0.937  0.00  0.00    +0.150 C 
ATOM      6  O   LIG    1        3.485  -4.804  -0.769  0.00  0.00    -0.360 OA
ATOM      7  C   LIG    1        2.295  -4.029  -0.958  0.00  0.00    +0.220 C 
ATOM      8  C   LIG    1        2.236  -2.896   0.076  0.00  0.00    +0.300 C 
ATOM      9  N   LIG    1        3.518  -2.168   0.058  0.00  0.00    -0.590 N 
ATOM     10  C   LIG    1        3.564  -0.824  -0.037  0.00  0.00    +0.580 C 
ATOM     11  O   LIG    1        4.628  -0.262  -0.204  0.00  0.00    -0.510 OA
ATOM     12  C   LIG    1        4.742  -2.972   0.154  0.00  0.00    +0.190 C 
ATOM     13  C   LIG    1        5.990  -2.123  -0.068  0.00  0.00    +0.290 C 
ATOM     14  H   LIG    1        7.184  -3.422   0.956  0.00  0.00    +0.420 HD
ENDROOT
BRANCH  10  15
ATOM     15  C   LIG    1        2.316  -0.032   0.062  0.00  0.00    +0.090 A 
ATOM     16  N   LIG    1        1.179  -0.633   0.392  0.00  0.00    -0.450 NA
ATOM     17  C   LIG    1        0.050   0.034   0.491  0.00  0.00    +0.290 A 
ATOM     18  C   LIG    1        0.005   1.398   0.253  0.00  0.00    +0.030 A 
ATOM     19  C   LIG    1        1.168   2.067  -0.094  0.00  0.00    +0.110 A 
ATOM     20  C   LIG    1        2.345   1.339  -0.191  0.00  0.00    -0.090 A 
ATOM     21 BR   LIG    1        3.966   2.193  -0.661  0.00  0.00    +0.010 Br
ENDBRANCH  10  15
TORSDOF 1
