REMARK  Name = ZINCkj00000xBpp6.1
REMARK                            x       y       z     vdW  Elec       q    Type
REMARK                         _______ _______ _______ _____ _____    ______ ____
ROOT
ATOM      1  C   LIG    1       -1.228   2.831   1.053  0.00  0.00    +0.320 C 
ATOM      2  N   LIG    1       -0.435   1.623   1.318  0.00  0.00    -0.390 N 
ATOM      3  C   LIG    1       -1.321   0.565   1.822  0.00  0.00    +0.260 C 
ATOM      4  C   LIG    1       -2.422   0.256   0.800  0.00  0.00    +0.090 C 
ATOM      5  C   LIG    1       -1.762  -0.185  -0.504  0.00  0.00    +0.150 C 
ATOM      6  O   LIG    1       -2.720  -0.463  -1.521  0.00  0.00    -0.360 OA
ATOM      7  C   LIG    1       -2.133  -0.968  -2.727  0.00  0.00    +0.220 C 
ATOM      8  C   LIG    1       -1.169   0.065  -3.315  0.00  0.00    +0.290 C 
ATOM      9  N   LIG    1       -0.243   0.517  -2.260  0.00  0.00    -0.590 N 
ATOM     10  C   LIG    1        1.090   0.537  -2.454  0.00  0.00    +0.590 C 
ATOM     11  O   LIG    1        1.822   0.988  -1.595  0.00  0.00    -0.510 OA
ATOM     12  C   LIG    1       -0.840   0.943  -0.989  0.00  0.00    +0.200 C 
ATOM     13  C   LIG    1        0.224   1.194   0.075  0.00  0.00    +0.300 C 
ATOM     14  H   LIG    1        0.267   1.831   2.012  0.00  0.00    +0.430 HD
ENDROOT
BRANCH  10  15
ATOM     15  C   LIG    1        1.664   0.010  -3.713  0.00  0.00    +0.090 A 
ATOM     16  N   LIG    1        1.040   0.232  -4.864  0.00  0.00    -0.450 NA
ATOM     17  C   LIG    1        1.518  -0.214  -6.005  0.00  0.00    +0.290 A 
ATOM     18  C   LIG    1        2.693  -0.947  -6.047  0.00  0.00    +0.030 A 
ATOM     19  C   LIG    1        3.375  -1.207  -4.869  0.00  0.00    +0.110 A 
ATOM     20  C   LIG    1        2.851  -0.720  -3.681  0.00  0.00    -0.100 A 
ATOM     21 BR   LIG    1        3.735  -1.040  -2.040  0.00  0.00    -0.000 Br
ENDBRANCH  10  15
TORSDOF 1
