REMARK  Name = ZINCpk00000eaIpQ.0
REMARK                            x       y       z     vdW  Elec       q    Type
REMARK                         _______ _______ _______ _____ _____    ______ ____
ROOT
ATOM      1  C   LIG    1       -0.923  -0.079   7.271  0.00  0.00    +0.520 C 
ATOM      2  N   LIG    1       -1.642  -0.352   8.377  0.00  0.00    -0.620 N 
ATOM      3  C   LIG    1       -3.111  -0.271   8.363  0.00  0.00    +0.300 C 
ATOM      4  C   LIG    1       -3.671  -1.585   8.931  0.00  0.00    +0.200 C 
ATOM      5  N   LIG    1       -3.076  -1.835  10.251  0.00  0.00    -0.490 N 
ATOM      6  C   LIG    1       -1.622  -2.022  10.153  0.00  0.00    +0.190 C 
ATOM      7  C   LIG    1       -0.978  -0.732   9.634  0.00  0.00    +0.310 C 
ATOM      8  O   LIG    1        0.287  -0.145   7.302  0.00  0.00    -0.510 OA
ENDROOT
BRANCH   5   9
ATOM      9  C   LIG    1       -3.681  -2.929  10.873  0.00  0.00    +0.170 A 
ATOM     10  C   LIG    1       -2.908  -4.003  11.299  0.00  0.00    -0.020 A 
ATOM     11  C   LIG    1       -3.509  -5.081  11.919  0.00  0.00    +0.140 A 
ATOM     12  C   LIG    1       -4.879  -5.097  12.107  0.00  0.00    -0.070 A 
ATOM     13  C   LIG    1       -5.652  -4.032  11.680  0.00  0.00    +0.130 A 
ATOM     14  C   LIG    1       -5.057  -2.949  11.064  0.00  0.00    +0.010 A 
BRANCH  12  15
ATOM     15  N   LIG    1       -5.520  -6.257  12.765  0.00  0.00    +0.030 N 
ATOM     16  O   LIG    1       -4.841  -7.196  13.142  0.00  0.00    -0.160 OA
ATOM     17  O   LIG    1       -6.727  -6.273  12.931  0.00  0.00    -0.160 OA
ENDBRANCH  12  15
ENDBRANCH   5   9
BRANCH   1  18
ATOM     18  C   LIG    1       -1.624   0.309   5.994  0.00  0.00    +0.250 C 
BRANCH  18  19
ATOM     19  O   LIG    1       -0.639   0.551   4.955  0.00  0.00    -0.330 OA
BRANCH  19  20
ATOM     20  C   LIG    1       -1.102   0.908   3.747  0.00  0.00    +0.500 C 
ATOM     21  O   LIG    1       -2.292   1.016   3.564  0.00  0.00    -0.510 OA
BRANCH  20  25
ATOM     22  C   LIG    1       -0.013   1.086   0.008  0.00  0.00    +0.070 C 
ATOM     23  C   LIG    1       -0.729   1.579   1.267  0.00  0.00    +0.000 C 
ATOM     24  C   LIG    1       -0.008   2.619   2.128  0.00  0.00    +0.070 C 
ATOM     25  C   LIG    1       -0.139   1.175   2.619  0.00  0.00    -0.030 C 
ENDBRANCH  20  25
ENDBRANCH  19  20
ENDBRANCH  18  19
ENDBRANCH   1  18
TORSDOF 6
