REMARK  Name = ZINCrH000004qQbK.0
REMARK                            x       y       z     vdW  Elec       q    Type
REMARK                         _______ _______ _______ _____ _____    ______ ____
ROOT
ATOM      1  C   LIG    1       -1.317  -0.559   0.696  0.00  0.00    +0.520 C 
ATOM      2  N   LIG    1       -1.541  -1.888   0.684  0.00  0.00    -0.720 N 
ATOM      3  H   LIG    1       -0.815  -2.501   0.488  0.00  0.00    +0.410 HD
ATOM      4  O   LIG    1       -2.225   0.206   0.941  0.00  0.00    -0.500 OA
ENDROOT
BRANCH   1   5
ATOM      5  C   LIG    1        0.061  -0.025   0.404  0.00  0.00    +0.240 C 
BRANCH   5   6
ATOM      6  O   LIG    1        0.043   1.403   0.476  0.00  0.00    -0.280 OA
BRANCH   6  10
ATOM      7  C   LIG    1        2.523   5.590   0.101  0.00  0.00    +0.130 C 
ATOM      8  C   LIG    1        2.463   4.085   0.045  0.00  0.00    +0.030 A 
ATOM      9  C   LIG    1        1.269   3.433   0.284  0.00  0.00    +0.010 A 
ATOM     10  C   LIG    1        1.216   2.047   0.237  0.00  0.00    +0.190 A 
ATOM     11  C   LIG    1        2.359   1.321  -0.061  0.00  0.00    -0.070 A 
ATOM     12  C   LIG    1        3.550   1.978  -0.304  0.00  0.00    +0.160 A 
ATOM     13  C   LIG    1        3.602   3.359  -0.252  0.00  0.00    -0.090 A 
BRANCH  13  14
ATOM     14  N   LIG    1        4.878   4.061  -0.512  0.00  0.00    +0.040 N 
ATOM     15  O   LIG    1        4.902   5.276  -0.582  0.00  0.00    -0.160 OA
ATOM     16  O   LIG    1        5.906   3.422  -0.657  0.00  0.00    -0.170 OA
ENDBRANCH  13  14
ENDBRANCH   6  10
ENDBRANCH   5   6
ENDBRANCH   1   5
BRANCH   2  17
ATOM     17  C   LIG    1       -2.881  -2.408   0.968  0.00  0.00    +0.410 C 
BRANCH  17  18
ATOM     18  C   LIG    1       -2.773  -3.817   1.493  0.00  0.00    -0.100 A 
ATOM     19  C   LIG    1       -1.861  -4.694   0.937  0.00  0.00    +0.010 A 
ATOM     20  C   LIG    1       -1.758  -5.984   1.421  0.00  0.00    +0.010 A 
ATOM     21  C   LIG    1       -2.574  -6.400   2.457  0.00  0.00    +0.020 A 
ATOM     22  C   LIG    1       -3.490  -5.525   3.010  0.00  0.00    +0.020 A 
ATOM     23  C   LIG    1       -3.589  -4.233   2.528  0.00  0.00    +0.030 A 
ENDBRANCH  17  18
BRANCH  17  24
ATOM     24  C   LIG    1       -3.699  -2.405  -0.297  0.00  0.00    -0.030 A 
ATOM     25  C   LIG    1       -4.998  -2.070  -0.394  0.00  0.00    -0.040 A 
ATOM     26  C   LIG    1       -5.357  -2.208  -1.754  0.00  0.00    -0.060 A 
ATOM     27  C   LIG    1       -4.256  -2.620  -2.408  0.00  0.00    +0.160 A 
ATOM     28  O   LIG    1       -3.253  -2.732  -1.521  0.00  0.00    -0.170 OA
ENDBRANCH  17  24
ENDBRANCH   2  17
TORSDOF 7
