REMARK  Name = ZINCrH000004jJqj.0
REMARK                            x       y       z     vdW  Elec       q    Type
REMARK                         _______ _______ _______ _____ _____    ______ ____
ROOT
ATOM      1  N   LIG    1        0.002  -0.004   0.002  0.00  0.00    -0.460 N 
ATOM      2  C   LIG    1       -0.018   1.464   0.010  0.00  0.00    +0.230 C 
ATOM      3  C   LIG    1        1.417   1.995  -0.001  0.00  0.00    +0.020 C 
ATOM      4  C   LIG    1        2.137   1.483  -1.252  0.00  0.00    +0.230 C 
ATOM      5  C   LIG    1        2.101  -0.048  -1.260  0.00  0.00    +0.040 C 
ATOM      6  C   LIG    1        0.646  -0.520  -1.213  0.00  0.00    +0.220 C 
ENDROOT
BRANCH   1  11
ATOM      7  C   LIG    1       -2.659  -2.356   0.290  0.00  0.00    +0.470 A 
ATOM      8  C   LIG    1       -3.756  -1.502   0.417  0.00  0.00    -0.120 A 
ATOM      9  C   LIG    1       -3.535  -0.138   0.397  0.00  0.00    +0.150 A 
ATOM     10  N   LIG    1       -2.298   0.316   0.261  0.00  0.00    -0.560 NA
ATOM     11  C   LIG    1       -1.275  -0.518   0.143  0.00  0.00    +0.550 A 
ATOM     12  N   LIG    1       -1.445  -1.832   0.151  0.00  0.00    -0.570 NA
BRANCH   9  13
ATOM     13  C   LIG    1       -4.689   0.822   0.531  0.00  0.00    +0.520 C 
ATOM     14  F   LIG    1       -5.266   0.684   1.798  0.00  0.00    -0.170 F 
ATOM     15  F   LIG    1       -5.645   0.541  -0.451  0.00  0.00    -0.170 F 
ATOM     16  F   LIG    1       -4.226   2.132   0.369  0.00  0.00    -0.160 F 
ENDBRANCH   9  13
BRANCH   7  18
ATOM     17  C   LIG    1       -4.183  -4.297   0.342  0.00  0.00    +0.310 C 
ATOM     18  N   LIG    1       -2.833  -3.731   0.304  0.00  0.00    -0.600 N 
ATOM     19  C   LIG    1       -1.667  -4.617   0.282  0.00  0.00    +0.300 C 
ENDBRANCH   7  18
ENDBRANCH   1  11
BRANCH   4  20
ATOM     20  N   LIG    1        3.528   1.940  -1.238  0.00  0.00    -0.740 N 
ATOM     21  H   LIG    1        4.224   1.366  -0.881  0.00  0.00    +0.400 HD
BRANCH  20  22
ATOM     22  C   LIG    1        3.854   3.204  -1.740  0.00  0.00    +0.210 A 
ATOM     23  C   LIG    1        2.860   4.024  -2.258  0.00  0.00    -0.040 A 
ATOM     24  C   LIG    1        3.183   5.274  -2.749  0.00  0.00    +0.030 A 
ATOM     25  C   LIG    1        4.499   5.705  -2.735  0.00  0.00    +0.040 A 
ATOM     26  C   LIG    1        5.492   4.887  -2.225  0.00  0.00    +0.030 A 
ATOM     27  F   LIG    1        4.814   6.926  -3.221  0.00  0.00    -0.150 F 
ATOM     28  C   LIG    1        5.173   3.638  -1.728  0.00  0.00    -0.040 A 
ENDBRANCH  20  22
ENDBRANCH   4  20
TORSDOF 5
