REMARK  Name = ZINCpe000000TAHe.0
REMARK                            x       y       z     vdW  Elec       q    Type
REMARK                         _______ _______ _______ _____ _____    ______ ____
ROOT
ATOM      1  N   LIG    1       -0.761   8.203   0.894  0.00  0.00    -0.520 NA
ATOM      2  C   LIG    1       -1.417   7.679  -0.310  0.00  0.00    +0.180 C 
ATOM      3  C   LIG    1       -1.422   6.149  -0.265  0.00  0.00    +0.060 C 
ATOM      4  C   LIG    1        0.020   5.640  -0.183  0.00  0.00    -0.010 C 
ATOM      5  C   LIG    1        0.696   6.239   1.053  0.00  0.00    +0.040 C 
ATOM      6  C   LIG    1        0.639   7.766   0.970  0.00  0.00    +0.180 C 
ENDROOT
BRANCH   4   7
ATOM      7  C   LIG    1        0.018   4.137  -0.078  0.00  0.00    +0.510 C 
ATOM      8  N   LIG    1        1.184   3.466   0.009  0.00  0.00    -0.660 N 
ATOM      9  H   LIG    1        2.020   3.954   0.079  0.00  0.00    +0.420 HD
ATOM     10  O   LIG    1       -1.032   3.531  -0.071  0.00  0.00    -0.470 OA
BRANCH   8  11
ATOM     11  C   LIG    1        1.189   2.072   0.000  0.00  0.00    +0.350 A 
ATOM     12  C   LIG    1        2.398   1.388  -0.017  0.00  0.00    -0.060 A 
ATOM     13  C   LIG    1        2.389   0.004  -0.026  0.00  0.00    +0.090 A 
ATOM     14  C   LIG    1        1.164  -0.650  -0.018  0.00  0.00    -0.170 A 
ATOM     15  C   LIG    1        0.001   0.094  -0.001  0.00  0.00    +0.290 A 
ATOM     16  C   LIG    1        1.105  -2.155  -0.027  0.00  0.00    +0.100 C 
ATOM     17  N   LIG    1        0.041   1.413   0.008  0.00  0.00    -0.470 NA
ENDBRANCH   8  11
ENDBRANCH   4   7
BRANCH   1  18
ATOM     18  C   LIG    1       -0.860   9.668   0.952  0.00  0.00    +0.220 C 
BRANCH  18  24
ATOM     19  N   LIG    1        0.002  13.215   4.080  0.00  0.00    -0.740 N 
ATOM     20  H   LIG    1       -0.296  13.853   3.414  0.00  0.00    +0.400 HD
ATOM     21  C   LIG    1        0.005  11.897   3.797  0.00  0.00    +0.690 C 
ATOM     22  N   LIG    1       -0.405  11.467   2.588  0.00  0.00    -0.690 N 
ATOM     23  H   LIG    1       -0.703  12.105   1.921  0.00  0.00    +0.410 HD
ATOM     24  C   LIG    1       -0.401  10.149   2.305  0.00  0.00    +0.510 C 
ATOM     25  O   LIG    1       -0.029   9.351   3.138  0.00  0.00    -0.440 OA
ATOM     26  O   LIG    1        0.378  11.097   4.633  0.00  0.00    -0.530 OA
BRANCH  19  28
ATOM     27  C   LIG    1        0.345  15.208   5.455  0.00  0.00    +0.030 C 
ATOM     28  C   LIG    1        0.448  13.683   5.395  0.00  0.00    +0.270 C 
ENDBRANCH  19  28
ENDBRANCH  18  24
ENDBRANCH   1  18
TORSDOF 5
