REMARK  Name = ZINCkj000005mkuD.0
REMARK                            x       y       z     vdW  Elec       q    Type
REMARK                         _______ _______ _______ _____ _____    ______ ____
ROOT
ATOM      1  N   LIG    1       -2.043  -3.718  -1.385  0.00  0.00    -0.500 N 
ATOM      2  H   LIG    1       -1.227  -4.060  -1.871  0.00  0.00    +0.430 HD
ATOM      3  H   LIG    1       -2.391  -2.894  -1.853  0.00  0.00    +0.430 HD
ENDROOT
BRANCH   1   4
ATOM      4  C   LIG    1       -3.082  -4.755  -1.382  0.00  0.00    +0.230 C 
BRANCH   4   5
ATOM      5  C   LIG    1       -3.456  -5.107  -2.823  0.00  0.00    +0.240 C 
BRANCH   5   6
ATOM      6  C   LIG    1       -4.539  -6.189  -2.820  0.00  0.00    +0.100 C 
ATOM      7  C   LIG    1       -4.002  -7.472  -2.154  0.00  0.00    +0.000 C 
ATOM      8  C   LIG    1       -4.632  -8.621  -2.982  0.00  0.00    +0.020 C 
ATOM      9  C   LIG    1       -4.590  -8.065  -4.426  0.00  0.00    +0.020 C 
ATOM     10  C   LIG    1       -4.913  -6.565  -4.264  0.00  0.00    +0.010 C 
BRANCH   6  11
ATOM     11  O   LIG    1       -5.695  -5.721  -2.121  0.00  0.00    -0.560 OA
ATOM     12  H   LIG    1       -6.418  -6.362  -2.084  0.00  0.00    +0.400 HD
ENDBRANCH   6  11
ENDBRANCH   5   6
BRANCH   5  13
ATOM     13  O   LIG    1       -3.950  -3.941  -3.486  0.00  0.00    -0.550 OA
ATOM     14  H   LIG    1       -4.735  -3.557  -3.073  0.00  0.00    +0.400 HD
ENDBRANCH   5  13
ENDBRANCH   4   5
ENDBRANCH   1   4
BRANCH   1  15
ATOM     15  C   LIG    1       -1.684  -3.380  -0.002  0.00  0.00    +0.320 C 
BRANCH  15  16
ATOM     16  C   LIG    1       -0.617  -2.315  -0.005  0.00  0.00    -0.110 A 
ATOM     17  C   LIG    1       -0.988  -1.010   0.006  0.00  0.00    +0.090 A 
ATOM     18  C   LIG    1        0.002  -0.004   0.002  0.00  0.00    +0.090 A 
ATOM     19  N   LIG    1       -0.016   1.316   0.009  0.00  0.00    -0.280 NA
ATOM     20  N   LIG    1        1.302   1.789  -0.001  0.00  0.00    -0.410 N 
ATOM     21  H   LIG    1        1.557   2.725   0.002  0.00  0.00    +0.450 HD
ATOM     22  C   LIG    1        2.157   0.758  -0.015  0.00  0.00    +0.310 A 
ATOM     23  C   LIG    1        1.416  -0.409  -0.014  0.00  0.00    -0.210 A 
ATOM     24  C   LIG    1        1.729  -1.785  -0.025  0.00  0.00    +0.130 A 
ATOM     25  C   LIG    1        0.726  -2.699  -0.020  0.00  0.00    -0.040 A 
ENDBRANCH  15  16
ENDBRANCH   1  15
TORSDOF 7
