REMARK  Name = ZINCvU00000008h7.0
REMARK                            x       y       z     vdW  Elec       q    Type
REMARK                         _______ _______ _______ _____ _____    ______ ____
ROOT
ATOM      1  C   LIG    1       -7.195   3.549  -1.043  0.00  0.00    +0.560 C 
ATOM      2  N   LIG    1       -6.101   2.992  -0.488  0.00  0.00    -0.540 N 
ATOM      3  C   LIG    1       -6.082   1.563  -0.142  0.00  0.00    +0.290 C 
ATOM      4  C   LIG    1       -5.475   1.414   1.256  0.00  0.00    +0.230 C 
ATOM      5  N   LIG    1       -4.142   2.035   1.253  0.00  0.00    -0.540 N 
ATOM      6  C   LIG    1       -3.981   3.287   0.642  0.00  0.00    +0.120 A 
ATOM      7  C   LIG    1       -2.855   4.052   0.902  0.00  0.00    +0.040 A 
ATOM      8  C   LIG    1       -2.704   5.284   0.293  0.00  0.00    +0.010 A 
ATOM      9  C   LIG    1       -3.673   5.757  -0.572  0.00  0.00    +0.010 A 
ATOM     10  C   LIG    1       -4.801   5.001  -0.835  0.00  0.00    +0.040 A 
ATOM     11  C   LIG    1       -3.092   1.409   1.821  0.00  0.00    +0.560 C 
ATOM     12  O   LIG    1       -1.994   1.931   1.810  0.00  0.00    -0.500 OA
ATOM     13  C   LIG    1       -6.369   2.117   2.279  0.00  0.00    +0.040 C 
ATOM     14  C   LIG    1       -4.960   3.765  -0.230  0.00  0.00    +0.120 A 
ATOM     15  O   LIG    1       -7.192   4.727  -1.344  0.00  0.00    -0.500 OA
ENDROOT
BRANCH   1  20
ATOM     16  C   LIG    1      -11.883   0.347  -1.995  0.00  0.00    +0.120 C 
ATOM     17  C   LIG    1      -10.656   1.186  -1.745  0.00  0.00    -0.090 A 
ATOM     18  C   LIG    1       -9.406   0.595  -1.746  0.00  0.00    +0.040 A 
ATOM     19  C   LIG    1       -8.278   1.358  -1.524  0.00  0.00    +0.030 A 
ATOM     20  C   LIG    1       -8.400   2.728  -1.287  0.00  0.00    -0.110 A 
ATOM     21  C   LIG    1       -9.664   3.321  -1.287  0.00  0.00    +0.060 A 
ATOM     22  C   LIG    1      -10.785   2.547  -1.516  0.00  0.00    +0.100 A 
ATOM     23  F   LIG    1      -12.010   3.117  -1.517  0.00  0.00    -0.130 F 
ENDBRANCH   1  20
BRANCH  11  24
ATOM     24  C   LIG    1       -3.276   0.088   2.458  0.00  0.00    -0.110 A 
ATOM     25  C   LIG    1       -2.219  -0.823   2.499  0.00  0.00    +0.080 A 
ATOM     26  C   LIG    1       -2.394  -2.053   3.100  0.00  0.00    +0.040 A 
ATOM     27  C   LIG    1       -3.615  -2.387   3.657  0.00  0.00    -0.090 A 
ATOM     28  C   LIG    1       -4.671  -1.490   3.615  0.00  0.00    +0.090 A 
ATOM     29  F   LIG    1       -5.861  -1.823   4.160  0.00  0.00    -0.130 F 
ATOM     30  C   LIG    1       -3.798  -3.732   4.312  0.00  0.00    +0.110 C 
ATOM     31  C   LIG    1       -4.508  -0.256   3.015  0.00  0.00    +0.010 A 
ENDBRANCH  11  24
TORSDOF 2
