REMARK  Name = ZINCrD0000073niP.0
REMARK                            x       y       z     vdW  Elec       q    Type
REMARK                         _______ _______ _______ _____ _____    ______ ____
ROOT
ATOM      1  O   LIG    1        3.036  -1.743  -5.339  0.00  0.00    -0.330 OA
ENDROOT
BRANCH   1   2
ATOM      2  C   LIG    1        2.490  -2.490  -4.359  0.00  0.00    +0.520 C 
ATOM      3  O   LIG    1        2.538  -3.703  -4.421  0.00  0.00    -0.490 OA
BRANCH   2   7
ATOM      4  C   LIG    1        0.605  -0.606  -1.054  0.00  0.00    +0.230 A 
ATOM      5  C   LIG    1        1.167   0.166  -2.064  0.00  0.00    -0.060 A 
ATOM      6  C   LIG    1        1.780  -0.441  -3.137  0.00  0.00    +0.200 A 
ATOM      7  C   LIG    1        1.836  -1.836  -3.211  0.00  0.00    -0.170 A 
ATOM      8  C   LIG    1        1.269  -2.609  -2.193  0.00  0.00    +0.230 A 
ATOM      9  C   LIG    1        0.663  -1.994  -1.120  0.00  0.00    -0.090 A 
BRANCH   9  10
ATOM     10  N   LIG    1        0.069  -2.811  -0.039  0.00  0.00    +0.030 N 
ATOM     11  O   LIG    1       -0.471  -2.268   0.908  0.00  0.00    -0.130 OA
ATOM     12  O   LIG    1        0.119  -4.027  -0.096  0.00  0.00    -0.170 OA
ENDBRANCH   9  10
BRANCH   4  14
ATOM     13  C   LIG    1       -0.017   1.425   0.010  0.00  0.00    +0.270 C 
ATOM     14  O   LIG    1        0.002  -0.004   0.002  0.00  0.00    -0.270 OA
ENDBRANCH   4  14
ENDBRANCH   2   7
ENDBRANCH   1   2
BRANCH   1  15
ATOM     15  C   LIG    1        3.663  -2.455  -6.438  0.00  0.00    +0.270 C 
BRANCH  15  16
ATOM     16  C   LIG    1        4.213  -1.463  -7.430  0.00  0.00    +0.520 C 
ATOM     17  N   LIG    1        4.843  -1.897  -8.539  0.00  0.00    -0.720 N 
ATOM     18  H   LIG    1        4.943  -2.849  -8.699  0.00  0.00    +0.410 HD
ATOM     19  O   LIG    1        4.088  -0.273  -7.231  0.00  0.00    -0.510 OA
BRANCH  17  20
ATOM     20  C   LIG    1        5.378  -0.933  -9.504  0.00  0.00    +0.340 C 
BRANCH  20  21
ATOM     21  C   LIG    1        6.029  -1.671 -10.645  0.00  0.00    -0.100 A 
ATOM     22  C   LIG    1        7.403  -1.813 -10.681  0.00  0.00    +0.080 A 
ATOM     23  C   LIG    1        8.001  -2.495 -11.724  0.00  0.00    +0.040 A 
ATOM     24  C   LIG    1        7.225  -3.026 -12.738  0.00  0.00    -0.020 A 
ATOM     25  C   LIG    1        5.849  -2.880 -12.705  0.00  0.00    +0.050 A 
ATOM     26 CL   LIG    1        7.976  -3.877 -14.051  0.00  0.00    -0.050 Cl
ATOM     27  C   LIG    1        5.252  -2.202 -11.659  0.00  0.00    -0.010 A 
ATOM     28 CL   LIG    1        3.526  -2.018 -11.617  0.00  0.00    -0.040 Cl
ENDBRANCH  20  21
ENDBRANCH  17  20
ENDBRANCH  15  16
ENDBRANCH   1  15
TORSDOF 8
