REMARK  Name = ZINCpk00000xQYsB.0
REMARK                            x       y       z     vdW  Elec       q    Type
REMARK                         _______ _______ _______ _____ _____    ______ ____
ROOT
ATOM      1  C   LIG    1       -0.822   3.023   1.213  0.00  0.00    +0.130 C 
ATOM      2  C   LIG    1       -1.730   3.509   2.374  0.00  0.00    +0.060 C 
ATOM      3  C   LIG    1       -2.285   4.847   1.843  0.00  0.00    +0.240 C 
ATOM      4  N   LIG    1       -2.180   4.812   0.377  0.00  0.00    -0.620 N 
ATOM      5  C   LIG    1       -2.543   5.804  -0.460  0.00  0.00    +0.530 C 
ATOM      6  O   LIG    1       -2.413   5.665  -1.658  0.00  0.00    -0.510 OA
ATOM      7  C   LIG    1       -1.613   3.512  -0.026  0.00  0.00    +0.280 C 
ENDROOT
BRANCH   1   9
ATOM      8  C   LIG    1       -0.013   1.086   0.008  0.00  0.00    +0.190 C 
ATOM      9  N   LIG    1       -0.700   1.560   1.217  0.00  0.00    -0.520 NA
BRANCH   9  10
ATOM     10  C   LIG    1       -0.016   1.091   2.429  0.00  0.00    +0.280 C 
BRANCH  10  11
ATOM     11  C   LIG    1       -0.125  -0.409   2.520  0.00  0.00    +0.370 A 
ATOM     12  N   LIG    1       -1.149  -0.940   3.157  0.00  0.00    -0.540 NA
ATOM     13  C   LIG    1       -1.286  -2.255   3.255  0.00  0.00    +0.350 A 
ATOM     14  C   LIG    1       -0.331  -3.075   2.688  0.00  0.00    -0.150 A 
ATOM     15  C   LIG    1        0.745  -2.481   2.024  0.00  0.00    +0.440 A 
ATOM     16  N   LIG    1        0.809  -1.154   1.964  0.00  0.00    -0.580 NA
BRANCH  15  17
ATOM     17  N   LIG    1        1.729  -3.260   1.439  0.00  0.00    -0.840 N 
ATOM     18  H   LIG    1        1.674  -4.228   1.488  0.00  0.00    +0.410 HD
ATOM     19  H   LIG    1        2.473  -2.839   0.980  0.00  0.00    +0.410 HD
ENDBRANCH  15  17
ENDBRANCH  10  11
ENDBRANCH   9  10
ENDBRANCH   1   9
BRANCH   5  20
ATOM     20  C   LIG    1       -3.112   7.086   0.092  0.00  0.00    +0.210 C 
BRANCH  20  21
ATOM     21  O   LIG    1       -3.417   7.974  -0.985  0.00  0.00    -0.360 OA
BRANCH  21  22
ATOM     22  C   LIG    1       -3.965   9.226  -0.568  0.00  0.00    +0.150 C 
ATOM     23  C   LIG    1       -5.490   9.118  -0.500  0.00  0.00    -0.010 C 
ATOM     24  C   LIG    1       -6.077  10.459  -0.053  0.00  0.00    +0.010 C 
ATOM     25  C   LIG    1       -5.686  11.546  -1.057  0.00  0.00    +0.000 C 
ATOM     26  C   LIG    1       -4.162  11.654  -1.125  0.00  0.00    +0.010 C 
ATOM     27  C   LIG    1       -3.575  10.313  -1.572  0.00  0.00    +0.020 C 
ENDBRANCH  21  22
ENDBRANCH  20  21
ENDBRANCH   5  20
TORSDOF 7
