REMARK  Name = ZINCpe00000y7e78.0
REMARK                            x       y       z     vdW  Elec       q    Type
REMARK                         _______ _______ _______ _____ _____    ______ ____
ROOT
ATOM      1  C   LIG    1       -0.463   4.723  -2.328  0.00  0.00    +0.520 C 
ATOM      2  N   LIG    1       -0.392   3.413  -2.018  0.00  0.00    -0.610 N 
ATOM      3  C   LIG    1        0.895   2.704  -2.060  0.00  0.00    +0.270 C 
ATOM      4  C   LIG    1        1.138   2.050  -0.694  0.00  0.00    +0.270 C 
ATOM      5  N   LIG    1       -0.069   1.306  -0.308  0.00  0.00    -0.600 N 
ATOM      6  C   LIG    1       -1.356   2.014  -0.271  0.00  0.00    +0.230 C 
ATOM      7  C   LIG    1       -1.319   3.092   0.814  0.00  0.00    +0.030 C 
ATOM      8  C   LIG    1        0.002  -0.004   0.002  0.00  0.00    +0.560 C 
ATOM      9  O   LIG    1       -0.989  -0.592   0.386  0.00  0.00    -0.520 OA
ATOM     10  C   LIG    1       -1.599   2.670  -1.631  0.00  0.00    +0.280 C 
ATOM     11  O   LIG    1       -1.530   5.298  -2.290  0.00  0.00    -0.520 OA
ENDROOT
BRANCH   8  12
ATOM     12  C   LIG    1        1.289  -0.727  -0.126  0.00  0.00    -0.030 A 
ATOM     13  C   LIG    1        1.369  -1.933  -0.831  0.00  0.00    -0.050 A 
ATOM     14  C   LIG    1        2.585  -2.577  -0.929  0.00  0.00    +0.330 A 
ATOM     15  N   LIG    1        3.668  -2.071  -0.369  0.00  0.00    -0.530 NA
ATOM     16  C   LIG    1        3.640  -0.934   0.307  0.00  0.00    +0.410 A 
ATOM     17  C   LIG    1        2.455  -0.220   0.448  0.00  0.00    -0.080 A 
BRANCH  16  18
ATOM     18  N   LIG    1        4.810  -0.445   0.877  0.00  0.00    -0.850 N 
ATOM     19  H   LIG    1        4.796   0.388   1.373  0.00  0.00    +0.410 HD
ATOM     20  H   LIG    1        5.641  -0.937   0.778  0.00  0.00    +0.410 HD
ENDBRANCH  16  18
ENDBRANCH   8  12
BRANCH   1  21
ATOM     21  C   LIG    1        0.783   5.473  -2.723  0.00  0.00    +0.080 C 
BRANCH  21  26
ATOM     22  C   LIG    1        1.954   9.937  -4.879  0.00  0.00    +0.180 C 
ATOM     23  C   LIG    1        1.241   8.691  -4.420  0.00  0.00    +0.080 C 
ATOM     24  N   LIG    1        0.148   8.237  -4.899  0.00  0.00    -0.290 NA
ATOM     25  O   LIG    1       -0.280   7.044  -4.274  0.00  0.00    -0.190 OA
ATOM     26  C   LIG    1        0.428   6.931  -3.023  0.00  0.00    +0.160 C 
ATOM     27  C   LIG    1        1.701   7.763  -3.311  0.00  0.00    +0.060 C 
ENDBRANCH  21  26
ENDBRANCH   1  21
TORSDOF 4
