REMARK  Name = ZINCpe000000WFxU.0
REMARK                            x       y       z     vdW  Elec       q    Type
REMARK                         _______ _______ _______ _____ _____    ______ ____
ROOT
ATOM      1  N   LIG    1        4.510   0.172   2.017  0.00  0.00    -0.740 N 
ATOM      2  H   LIG    1        4.715   0.750   1.266  0.00  0.00    +0.400 HD
ATOM      3  C   LIG    1        5.473  -0.148   2.904  0.00  0.00    +0.700 C 
ATOM      4  N   LIG    1        6.721   0.336   2.748  0.00  0.00    -0.740 N 
ATOM      5  H   LIG    1        6.926   0.915   1.997  0.00  0.00    +0.400 HD
ATOM      6  O   LIG    1        5.216  -0.874   3.845  0.00  0.00    -0.590 OA
ENDROOT
BRANCH   1   7
ATOM      7  C   LIG    1        3.154  -0.355   2.186  0.00  0.00    +0.280 C 
BRANCH   7  11
ATOM      8  N   LIG    1       -0.018   1.465   0.010  0.00  0.00    -1.000 NA
ATOM      9  C   LIG    1        1.261   2.189   0.002  0.00  0.00    +0.290 C 
ATOM     10  C   LIG    1        2.125   1.677   1.158  0.00  0.00    +0.020 C 
ATOM     11  C   LIG    1        2.263   0.156   1.052  0.00  0.00    -0.020 C 
ATOM     12  C   LIG    1        0.880  -0.492   1.159  0.00  0.00    +0.020 C 
ATOM     13  C   LIG    1        0.002  -0.004   0.002  0.00  0.00    +0.290 C 
BRANCH   8  15
ATOM     14  C   LIG    1       -1.838   2.505   1.781  0.00  0.00    -0.280 C 
ATOM     15  S   LIG    1       -1.454   2.289   0.021  0.00  0.00    +2.610 S 
ATOM     16  O   LIG    1       -2.377   1.394  -0.584  0.00  0.00    -0.950 OA
ATOM     17  O   LIG    1       -1.145   3.540  -0.579  0.00  0.00    -0.950 OA
ENDBRANCH   8  15
ENDBRANCH   7  11
ENDBRANCH   1   7
BRANCH   4  18
ATOM     18  C   LIG    1        7.768  -0.011   3.712  0.00  0.00    +0.260 C 
BRANCH  18  19
ATOM     19  C   LIG    1        9.079   0.664   3.307  0.00  0.00    +0.260 C 
BRANCH  19  20
ATOM     20  C   LIG    1       10.183   0.209   4.226  0.00  0.00    -0.090 A 
ATOM     21  C   LIG    1       10.321   0.783   5.477  0.00  0.00    +0.010 A 
ATOM     22  C   LIG    1       11.330   0.363   6.323  0.00  0.00    +0.060 A 
ATOM     23  C   LIG    1       12.210  -0.622   5.917  0.00  0.00    -0.010 A 
ATOM     24  C   LIG    1       12.076  -1.193   4.662  0.00  0.00    +0.100 A 
ATOM     25  F   LIG    1       12.935  -2.157   4.263  0.00  0.00    -0.140 F 
ATOM     26  C   LIG    1       11.062  -0.776   3.817  0.00  0.00    +0.000 A 
ENDBRANCH  19  20
BRANCH  19  27
ATOM     27  O   LIG    1        8.934   2.082   3.401  0.00  0.00    -0.550 OA
ATOM     28  H   LIG    1        8.714   2.397   4.289  0.00  0.00    +0.380 HD
ENDBRANCH  19  27
ENDBRANCH  18  19
ENDBRANCH   4  18
TORSDOF 7
