REMARK  Name = ZINCBu0000000ejE.0
REMARK                            x       y       z     vdW  Elec       q    Type
REMARK                         _______ _______ _______ _____ _____    ______ ____
ROOT
ATOM      1  C   LIG    1        0.038  -0.237  -0.599  0.00  0.00    +0.510 C 
ATOM      2  N   LIG    1       -0.011   0.966   0.007  0.00  0.00    -0.670 N 
ATOM      3  H   LIG    1        0.786   1.335   0.418  0.00  0.00    +0.420 HD
ATOM      4  O   LIG    1       -0.976  -0.736  -1.039  0.00  0.00    -0.500 OA
ENDROOT
BRANCH   2   5
ATOM      5  C   LIG    1       -1.216   1.681   0.049  0.00  0.00    +0.140 A 
ATOM      6  C   LIG    1       -1.203   3.067  -0.028  0.00  0.00    +0.020 A 
ATOM      7  C   LIG    1       -2.390   3.771   0.008  0.00  0.00    -0.010 A 
ATOM      8  C   LIG    1       -3.596   3.093   0.132  0.00  0.00    +0.070 A 
ATOM      9  C   LIG    1       -3.608   1.707   0.214  0.00  0.00    +0.020 A 
ATOM     10  C   LIG    1       -2.421   1.003   0.173  0.00  0.00    +0.060 A 
BRANCH   8  11
ATOM     11  N   LIG    1       -4.799   3.807   0.175  0.00  0.00    -0.480 N 
ATOM     12  C   LIG    1       -5.717   3.356  -0.881  0.00  0.00    +0.230 C 
ATOM     13  C   LIG    1       -7.039   4.117  -0.763  0.00  0.00    +0.270 C 
ATOM     14  N   LIG    1       -6.787   5.559  -0.892  0.00  0.00    -0.390 N 
ATOM     15  C   LIG    1       -5.888   5.999   0.183  0.00  0.00    +0.280 C 
ATOM     16  H   LIG    1       -6.358   5.746  -1.786  0.00  0.00    +0.420 HD
ATOM     17  C   LIG    1       -4.557   5.253   0.073  0.00  0.00    +0.220 C 
BRANCH  14  18
ATOM     18  C   LIG    1       -8.059   6.288  -0.797  0.00  0.00    +0.330 C 
BRANCH  18  19
ATOM     19  C   LIG    1       -8.934   5.927  -1.970  0.00  0.00    -0.160 A 
ATOM     20  C   LIG    1       -8.868   6.669  -3.134  0.00  0.00    +0.040 A 
ATOM     21  C   LIG    1       -9.668   6.335  -4.212  0.00  0.00    +0.030 A 
ATOM     22  C   LIG    1      -10.539   5.266  -4.121  0.00  0.00    +0.060 A 
ATOM     23  C   LIG    1      -10.609   4.528  -2.954  0.00  0.00    +0.030 A 
ATOM     24  C   LIG    1       -9.806   4.858  -1.879  0.00  0.00    +0.030 A 
ENDBRANCH  18  19
ENDBRANCH  14  18
ENDBRANCH   8  11
ENDBRANCH   2   5
BRANCH   1  25
ATOM     25  C   LIG    1        1.353  -0.961  -0.730  0.00  0.00    +0.380 C 
BRANCH  25  28
ATOM     26  C   LIG    1        0.663  -4.465  -1.208  0.00  0.00    +0.070 A 
ATOM     27  N   LIG    1        0.874  -3.269  -0.715  0.00  0.00    -0.200 NA
ATOM     28  N   LIG    1        1.142  -2.236  -1.420  0.00  0.00    -0.350 N 
ATOM     29  C   LIG    1        1.234  -2.256  -2.766  0.00  0.00    +0.530 A 
ATOM     30  C   LIG    1        1.028  -3.533  -3.463  0.00  0.00    -0.140 A 
ATOM     31  C   LIG    1        1.106  -3.661  -4.846  0.00  0.00    +0.090 A 
ATOM     32  C   LIG    1        0.893  -4.895  -5.423  0.00  0.00    +0.030 A 
ATOM     33  C   LIG    1        0.604  -6.005  -4.641  0.00  0.00    +0.060 A 
ATOM     34  C   LIG    1        0.522  -5.899  -3.268  0.00  0.00    +0.080 A 
ATOM     35  O   LIG    1        1.487  -1.241  -3.388  0.00  0.00    -0.500 OA
ATOM     36  C   LIG    1        0.733  -4.664  -2.665  0.00  0.00    -0.040 A 
BRANCH  26  40
ATOM     37  N   LIG    1        0.298  -5.409   1.019  0.00  0.00    -0.830 N 
ATOM     38  H   LIG    1        0.099  -6.154   1.607  0.00  0.00    +0.410 HD
ATOM     39  H   LIG    1        0.453  -4.526   1.390  0.00  0.00    +0.410 HD
ATOM     40  C   LIG    1        0.360  -5.600  -0.314  0.00  0.00    +0.600 C 
ATOM     41  O   LIG    1        0.166  -6.706  -0.779  0.00  0.00    -0.520 OA
ENDBRANCH  26  40
ENDBRANCH  25  28
ENDBRANCH   1  25
TORSDOF 7
