REMARK  Name = ZINCqH00000070qX.0
REMARK                            x       y       z     vdW  Elec       q    Type
REMARK                         _______ _______ _______ _____ _____    ______ ____
ROOT
ATOM      1  S   LIG    1       -1.636   4.627   0.068  0.00  0.00    +0.100 S 
ENDROOT
BRANCH   1   6
ATOM      2  N   LIG    1       -1.129   1.873   0.068  0.00  0.00    -0.410 N 
ATOM      3  C   LIG    1       -0.015   1.076   0.067  0.00  0.00    +0.400 A 
ATOM      4  N   LIG    1        1.024   1.862   0.057  0.00  0.00    -0.280 NA
ATOM      5  N   LIG    1        0.649   3.091   0.056  0.00  0.00    -0.290 NA
ATOM      6  C   LIG    1       -0.662   3.158   0.066  0.00  0.00    +0.140 A 
BRANCH   2  10
ATOM      7  C   LIG    1       -5.114   0.636   0.080  0.00  0.00    +0.150 A 
ATOM      8  C   LIG    1       -4.225   0.101  -0.841  0.00  0.00    +0.020 A 
ATOM      9  C   LIG    1       -2.906   0.510  -0.845  0.00  0.00    +0.080 A 
ATOM     10  C   LIG    1       -2.470   1.457   0.072  0.00  0.00    +0.060 A 
ATOM     11  C   LIG    1       -3.358   1.988   0.996  0.00  0.00    +0.080 A 
ATOM     12  C   LIG    1       -4.678   1.583   0.996  0.00  0.00    -0.050 A 
BRANCH   7  14
ATOM     13  C   LIG    1       -7.272   0.825   1.060  0.00  0.00    +0.250 C 
ATOM     14  O   LIG    1       -6.412   0.233   0.084  0.00  0.00    -0.310 OA
ENDBRANCH   7  14
ENDBRANCH   2  10
ENDBRANCH   1   6
BRANCH   1  15
ATOM     15  C   LIG    1       -0.325   5.874   0.055  0.00  0.00    +0.110 C 
BRANCH  15  16
ATOM     16  C   LIG    1       -0.940   7.250   0.054  0.00  0.00    +0.540 C 
ATOM     17  N   LIG    1       -0.149   8.341   0.045  0.00  0.00    -0.660 N 
ATOM     18  H   LIG    1        0.814   8.243   0.104  0.00  0.00    +0.420 HD
ATOM     19  O   LIG    1       -2.146   7.375   0.062  0.00  0.00    -0.500 OA
BRANCH  17  20
ATOM     20  C   LIG    1       -0.719   9.617  -0.049  0.00  0.00    +0.120 A 
ATOM     21  C   LIG    1       -1.940   9.880   0.554  0.00  0.00    +0.070 A 
ATOM     22  C   LIG    1       -2.498  11.143   0.464  0.00  0.00    -0.030 A 
ATOM     23  C   LIG    1       -1.843  12.141  -0.236  0.00  0.00    +0.060 A 
ATOM     24  C   LIG    1       -0.628  11.881  -0.843  0.00  0.00    +0.030 A 
ATOM     25 CL   LIG    1       -4.023  11.473   1.223  0.00  0.00    -0.050 Cl
ATOM     26  C   LIG    1       -0.063  10.623  -0.752  0.00  0.00    +0.080 A 
ATOM     27  F   LIG    1        1.124  10.369  -1.346  0.00  0.00    -0.130 F 
ENDBRANCH  17  20
ENDBRANCH  15  16
ENDBRANCH   1  15
TORSDOF 6
