REMARK  Name = ZINCrg00000fSj7C.0
REMARK                            x       y       z     vdW  Elec       q    Type
REMARK                         _______ _______ _______ _____ _____    ______ ____
ROOT
ATOM      1  N   LIG    1       -9.835   2.366  -5.684  0.00  0.00    -1.000 NA
ATOM      2  C   LIG    1       -8.867   1.880  -6.676  0.00  0.00    +0.300 C 
ATOM      3  C   LIG    1       -7.844   0.985  -5.969  0.00  0.00    +0.030 C 
ATOM      4  C   LIG    1       -7.218   1.754  -4.804  0.00  0.00    +0.250 C 
ATOM      5  C   LIG    1       -8.306   2.133  -3.797  0.00  0.00    +0.000 C 
ATOM      6  C   LIG    1       -9.334   3.041  -4.480  0.00  0.00    +0.300 C 
ENDROOT
BRANCH   4   7
ATOM      7  N   LIG    1       -6.215   0.913  -4.146  0.00  0.00    -0.720 N 
ATOM      8  H   LIG    1       -6.280  -0.053  -4.203  0.00  0.00    +0.400 HD
ATOM      9  C   LIG    1       -5.204   1.481  -3.460  0.00  0.00    +0.510 C 
ATOM     10  O   LIG    1       -5.123   2.689  -3.388  0.00  0.00    -0.530 OA
BRANCH   9  11
ATOM     11  C   LIG    1       -4.173   0.616  -2.783  0.00  0.00    +0.300 C 
BRANCH  11  12
ATOM     12  N   LIG    1       -3.187   1.466  -2.111  0.00  0.00    -0.720 N 
ATOM     13  H   LIG    1       -3.271   2.432  -2.152  0.00  0.00    +0.410 HD
ATOM     14  C   LIG    1       -2.164   0.907  -1.435  0.00  0.00    +0.550 C 
ATOM     15  O   LIG    1       -2.059  -0.301  -1.383  0.00  0.00    -0.540 OA
BRANCH  14  16
ATOM     16  C   LIG    1       -1.150   1.781  -0.743  0.00  0.00    -0.060 C 
ATOM     17  C   LIG    1       -1.136   1.773   0.788  0.00  0.00    +0.060 C 
ATOM     18  C   LIG    1       -0.013   1.086   0.008  0.00  0.00    +0.000 C 
ATOM     19  C   LIG    1        1.359   1.764  -0.001  0.00  0.00    +0.060 C 
ENDBRANCH  14  16
ENDBRANCH  11  12
ENDBRANCH   9  11
ENDBRANCH   4   7
BRANCH   1  20
ATOM     20  S   LIG    1      -11.461   2.156  -5.920  0.00  0.00    +2.690 S 
ATOM     21  O   LIG    1      -11.648   2.010  -7.321  0.00  0.00    -0.950 OA
ATOM     22  O   LIG    1      -12.111   3.159  -5.150  0.00  0.00    -0.950 OA
BRANCH  20  27
ATOM     23  C   LIG    1      -12.959  -3.136  -3.439  0.00  0.00    +0.090 C 
ATOM     24  C   LIG    1      -12.585  -1.814  -4.059  0.00  0.00    -0.030 A 
ATOM     25  C   LIG    1      -12.634  -0.658  -3.303  0.00  0.00    -0.010 A 
ATOM     26  C   LIG    1      -12.291   0.555  -3.871  0.00  0.00    +0.120 A 
ATOM     27  C   LIG    1      -11.898   0.611  -5.195  0.00  0.00    -0.680 A 
ATOM     28  C   LIG    1      -11.854  -0.545  -5.953  0.00  0.00    +0.120 A 
ATOM     29  C   LIG    1      -12.192  -1.758  -5.383  0.00  0.00    -0.010 A 
ENDBRANCH  20  27
ENDBRANCH   1  20
TORSDOF 6
