REMARK  Name = ZINCwl0000000iqY.0
REMARK                            x       y       z     vdW  Elec       q    Type
REMARK                         _______ _______ _______ _____ _____    ______ ____
ROOT
ATOM      1  C   LIG    1       -4.107   7.065  -0.138  0.00  0.00    -0.190 A 
ATOM      2  C   LIG    1       -4.355   7.848   0.972  0.00  0.00    +0.070 A 
ATOM      3  C   LIG    1       -4.382   9.226   0.856  0.00  0.00    +0.010 A 
ATOM      4  C   LIG    1       -4.159   9.823  -0.371  0.00  0.00    +0.080 A 
ATOM      5  C   LIG    1       -3.910   9.045  -1.485  0.00  0.00    +0.030 A 
ATOM      6  C   LIG    1       -3.877   7.662  -1.370  0.00  0.00    +0.170 A 
ENDROOT
BRANCH   6   7
ATOM      7  N   LIG    1       -3.619   6.871  -2.495  0.00  0.00    -0.690 N 
ATOM      8  H   LIG    1       -3.936   5.955  -2.527  0.00  0.00    +0.410 HD
ATOM      9  C   LIG    1       -2.930   7.382  -3.535  0.00  0.00    +0.520 C 
ATOM     10  O   LIG    1       -2.448   8.492  -3.456  0.00  0.00    -0.490 OA
BRANCH   9  11
ATOM     11  C   LIG    1       -2.759   6.575  -4.796  0.00  0.00    +0.060 C 
BRANCH  11  12
ATOM     12  C   LIG    1       -1.945   7.380  -5.810  0.00  0.00    +0.360 C 
BRANCH  12  13
ATOM     13  N   LIG    1       -1.779   6.595  -7.036  0.00  0.00    -0.460 N 
ATOM     14  N   LIG    1       -0.675   5.750  -7.179  0.00  0.00    +0.070 NA
ATOM     15  N   LIG    1       -0.475   5.033  -8.225  0.00  0.00    -0.190 NA
ATOM     16  C   LIG    1       -1.325   5.053  -9.282  0.00  0.00    +0.050 A 
ATOM     17  C   LIG    1       -1.092   4.271 -10.416  0.00  0.00    +0.090 A 
ATOM     18  C   LIG    1       -1.976   4.317 -11.471  0.00  0.00    +0.070 A 
ATOM     19  C   LIG    1       -3.099   5.132 -11.422  0.00  0.00    +0.060 A 
ATOM     20  C   LIG    1       -3.351   5.912 -10.314  0.00  0.00    +0.100 A 
ATOM     21  C   LIG    1       -2.469   5.880  -9.236  0.00  0.00    -0.150 A 
ATOM     22  C   LIG    1       -2.692   6.693  -8.031  0.00  0.00    +0.530 A 
ATOM     23  O   LIG    1       -3.659   7.425  -7.932  0.00  0.00    -0.500 OA
ENDBRANCH  12  13
ENDBRANCH  11  12
ENDBRANCH   9  11
ENDBRANCH   6   7
BRANCH   1  24
ATOM     24  C   LIG    1       -4.078   5.563  -0.010  0.00  0.00    +0.330 C 
BRANCH  24  29
ATOM     25  C   LIG    1       -1.203   3.152   0.052  0.00  0.00    -0.010 C 
ATOM     26  C   LIG    1       -0.491   3.675   1.304  0.00  0.00    +0.060 C 
ATOM     27  C   LIG    1       -0.593   5.203   1.336  0.00  0.00    +0.070 C 
ATOM     28  C   LIG    1       -2.067   5.612   1.294  0.00  0.00    +0.260 C 
ATOM     29  N   LIG    1       -2.684   5.104   0.062  0.00  0.00    -0.380 N 
ATOM     30  H   LIG    1       -2.175   5.453  -0.736  0.00  0.00    +0.420 HD
ATOM     31  C   LIG    1       -2.654   3.637   0.058  0.00  0.00    +0.290 C 
BRANCH  25  35
ATOM     32  N   LIG    1        0.004   0.993   0.050  0.00  0.00    -0.840 N 
ATOM     33  H   LIG    1        0.835   1.494   0.047  0.00  0.00    +0.410 HD
ATOM     34  H   LIG    1        0.022   0.024   0.049  0.00  0.00    +0.420 HD
ATOM     35  C   LIG    1       -1.175   1.646   0.051  0.00  0.00    +0.530 C 
ATOM     36  O   LIG    1       -2.214   1.020   0.050  0.00  0.00    -0.530 OA
ENDBRANCH  25  35
ENDBRANCH  24  29
ENDBRANCH   1  24
TORSDOF 7
