REMARK  Name = ZINCwl0000000iqY.1
REMARK                            x       y       z     vdW  Elec       q    Type
REMARK                         _______ _______ _______ _____ _____    ______ ____
ROOT
ATOM      1  C   LIG    1        3.026   5.202   0.168  0.00  0.00    -0.190 A 
ATOM      2  C   LIG    1        4.334   5.632   0.272  0.00  0.00    +0.070 A 
ATOM      3  C   LIG    1        5.370   4.717   0.234  0.00  0.00    +0.010 A 
ATOM      4  C   LIG    1        5.100   3.368   0.091  0.00  0.00    +0.070 A 
ATOM      5  C   LIG    1        3.793   2.931  -0.008  0.00  0.00    +0.030 A 
ATOM      6  C   LIG    1        2.751   3.849   0.024  0.00  0.00    +0.170 A 
ENDROOT
BRANCH   6   7
ATOM      7  N   LIG    1        1.427   3.409  -0.082  0.00  0.00    -0.690 N 
ATOM      8  H   LIG    1        0.765   3.967  -0.520  0.00  0.00    +0.410 HD
ATOM      9  C   LIG    1        1.071   2.212   0.425  0.00  0.00    +0.520 C 
ATOM     10  O   LIG    1        1.915   1.476   0.891  0.00  0.00    -0.490 OA
BRANCH   9  11
ATOM     11  C   LIG    1       -0.375   1.789   0.414  0.00  0.00    +0.060 C 
BRANCH  11  12
ATOM     12  C   LIG    1       -0.505   0.400   1.042  0.00  0.00    +0.360 C 
BRANCH  12  13
ATOM     13  N   LIG    1       -1.910  -0.012   1.031  0.00  0.00    -0.460 N 
ATOM     14  N   LIG    1       -2.736   0.294   2.116  0.00  0.00    +0.070 NA
ATOM     15  N   LIG    1       -3.976  -0.034   2.164  0.00  0.00    -0.190 NA
ATOM     16  C   LIG    1       -4.578  -0.717   1.159  0.00  0.00    +0.050 A 
ATOM     17  C   LIG    1       -5.927  -1.072   1.228  0.00  0.00    +0.090 A 
ATOM     18  C   LIG    1       -6.504  -1.767   0.189  0.00  0.00    +0.070 A 
ATOM     19  C   LIG    1       -5.761  -2.121  -0.929  0.00  0.00    +0.060 A 
ATOM     20  C   LIG    1       -4.429  -1.782  -1.021  0.00  0.00    +0.100 A 
ATOM     21  C   LIG    1       -3.825  -1.079   0.020  0.00  0.00    -0.150 A 
ATOM     22  C   LIG    1       -2.407  -0.694  -0.029  0.00  0.00    +0.530 A 
ATOM     23  O   LIG    1       -1.706  -0.977  -0.983  0.00  0.00    -0.500 OA
ENDBRANCH  12  13
ENDBRANCH  11  12
ENDBRANCH   9  11
ENDBRANCH   6   7
BRANCH   1  24
ATOM     24  C   LIG    1        1.898   6.201   0.209  0.00  0.00    +0.310 C 
BRANCH  24  29
ATOM     25  C   LIG    1       -0.089   7.548   3.094  0.00  0.00    +0.010 C 
ATOM     26  C   LIG    1       -0.706   6.234   3.582  0.00  0.00    +0.070 C 
ATOM     27  C   LIG    1        0.326   5.112   3.438  0.00  0.00    +0.060 C 
ATOM     28  C   LIG    1        0.785   5.031   1.981  0.00  0.00    +0.230 C 
ATOM     29  N   LIG    1        1.390   6.308   1.583  0.00  0.00    -0.380 N 
ATOM     30  H   LIG    1        2.152   6.526   2.207  0.00  0.00    +0.430 HD
ATOM     31  C   LIG    1        0.385   7.377   1.649  0.00  0.00    +0.290 C 
BRANCH  25  35
ATOM     32  N   LIG    1        0.902   8.109   5.290  0.00  0.00    -0.830 N 
ATOM     33  H   LIG    1        1.657   8.341   5.853  0.00  0.00    +0.420 HD
ATOM     34  H   LIG    1        0.017   8.021   5.677  0.00  0.00    +0.410 HD
ATOM     35  C   LIG    1        1.084   7.909   3.969  0.00  0.00    +0.520 C 
ATOM     36  O   LIG    1        2.190   8.019   3.486  0.00  0.00    -0.560 OA
ENDBRANCH  25  35
ENDBRANCH  24  29
ENDBRANCH   1  24
TORSDOF 7
