REMARK  Name = ZINCqH0000038jBb.0
REMARK                            x       y       z     vdW  Elec       q    Type
REMARK                         _______ _______ _______ _____ _____    ______ ____
ROOT
ATOM      1  N   LIG    1       -0.098  -0.521   0.172  0.00  0.00    -0.320 N 
ATOM      2  N   LIG    1        0.943  -1.170   0.858  0.00  0.00    -0.070 NA
ATOM      3  N   LIG    1        1.787  -0.256   1.198  0.00  0.00    -0.040 NA
ATOM      4  N   LIG    1        1.381   0.894   0.796  0.00  0.00    -0.330 NA
ATOM      5  C   LIG    1        0.240   0.787   0.167  0.00  0.00    +0.270 A 
ENDROOT
BRANCH   1  13
ATOM      6  C   LIG    1       -2.644   0.290   1.154  0.00  0.00    +0.110 C 
ATOM      7  C   LIG    1       -2.503  -0.739   0.061  0.00  0.00    -0.050 A 
ATOM      8  C   LIG    1       -3.629  -1.313  -0.496  0.00  0.00    +0.020 A 
ATOM      9  C   LIG    1       -3.501  -2.261  -1.494  0.00  0.00    +0.050 A 
ATOM     10  C   LIG    1       -2.247  -2.633  -1.942  0.00  0.00    +0.020 A 
ATOM     11  C   LIG    1       -1.117  -2.058  -1.392  0.00  0.00    -0.050 A 
ATOM     12  C   LIG    1        0.249  -2.463  -1.880  0.00  0.00    +0.100 C 
ATOM     13  C   LIG    1       -1.243  -1.106  -0.389  0.00  0.00    +0.100 A 
ENDBRANCH   1  13
BRANCH   5  14
ATOM     14  C   LIG    1       -0.547   1.912  -0.453  0.00  0.00    +0.310 C 
BRANCH  14  15
ATOM     15  N   LIG    1       -1.103   2.763   0.607  0.00  0.00    -0.530 NA
ATOM     16  C   LIG    1       -0.046   3.545   1.263  0.00  0.00    +0.200 C 
BRANCH  15  17
ATOM     17  C   LIG    1       -2.156   3.641   0.079  0.00  0.00    +0.170 C 
BRANCH  17  18
ATOM     18  C   LIG    1       -2.966   4.221   1.240  0.00  0.00    +0.020 C 
BRANCH  18  19
ATOM     19  C   LIG    1       -4.063   5.136   0.690  0.00  0.00    +0.010 C 
BRANCH  19  20
ATOM     20  C   LIG    1       -4.872   5.716   1.852  0.00  0.00    +0.060 C 
BRANCH  20  21
ATOM     21  C   LIG    1       -5.953   6.616   1.310  0.00  0.00    -0.080 A 
ATOM     22  C   LIG    1       -5.701   7.963   1.123  0.00  0.00    +0.000 A 
ATOM     23  C   LIG    1       -6.691   8.788   0.622  0.00  0.00    +0.000 A 
ATOM     24  C   LIG    1       -7.935   8.268   0.318  0.00  0.00    -0.010 A 
ATOM     25  C   LIG    1       -8.188   6.923   0.509  0.00  0.00    +0.000 A 
ATOM     26  C   LIG    1       -7.197   6.097   1.005  0.00  0.00    +0.000 A 
ENDBRANCH  20  21
ENDBRANCH  19  20
ENDBRANCH  18  19
ENDBRANCH  17  18
ENDBRANCH  15  17
ENDBRANCH  14  15
ENDBRANCH   5  14
TORSDOF 8
