REMARK  Name = ZINCpk00000e9MP6.0
REMARK                            x       y       z     vdW  Elec       q    Type
REMARK                         _______ _______ _______ _____ _____    ______ ____
ROOT
ATOM      1  S   LIG    1       -2.797   0.991   0.145  0.00  0.00    +2.690 S 
ATOM      2  O   LIG    1       -2.479  -0.174  -0.605  0.00  0.00    -0.940 OA
ATOM      3  O   LIG    1       -3.846   1.881  -0.210  0.00  0.00    -0.940 OA
ENDROOT
BRANCH   1   4
ATOM      4  C   LIG    1       -1.325   1.956   0.212  0.00  0.00    -0.690 A 
ATOM      5  C   LIG    1       -0.090   1.335   0.152  0.00  0.00    +0.180 A 
ATOM      6  C   LIG    1        1.072   2.087   0.198  0.00  0.00    +0.030 A 
ATOM      7  C   LIG    1        1.000   3.456   0.310  0.00  0.00    -0.050 A 
ATOM      8  C   LIG    1        2.040   4.545   0.385  0.00  0.00    +0.340 C 
ATOM      9  O   LIG    1        1.314   5.800   0.495  0.00  0.00    -0.310 OA
ATOM     10  C   LIG    1       -0.005   5.544   0.491  0.00  0.00    +0.520 C 
ATOM     11  O   LIG    1       -0.877   6.387   0.570  0.00  0.00    -0.440 OA
ATOM     12  C   LIG    1       -0.242   4.093   0.377  0.00  0.00    -0.210 A 
ATOM     13  C   LIG    1       -1.409   3.329   0.330  0.00  0.00    +0.220 A 
ENDBRANCH   1   4
BRANCH   1  15
ATOM     14  C   LIG    1       -4.041   1.242   2.533  0.00  0.00    +0.300 C 
ATOM     15  N   LIG    1       -3.119   0.480   1.687  0.00  0.00    -1.000 NA
BRANCH  15  16
ATOM     16  C   LIG    1       -2.482  -0.733   2.205  0.00  0.00    +0.310 C 
BRANCH  16  17
ATOM     17  C   LIG    1       -3.409  -1.930   1.984  0.00  0.00    -0.030 C 
ATOM     18  C   LIG    1       -2.689  -3.217   2.396  0.00  0.00    +0.040 C 
ATOM     19  C   LIG    1       -3.523  -4.427   1.954  0.00  0.00    +0.160 C 
ATOM     20  C   LIG    1       -4.948  -4.206   2.402  0.00  0.00    +0.210 A 
ATOM     21  N   LIG    1       -5.896  -5.093   2.485  0.00  0.00    -0.490 NA
ATOM     22  C   LIG    1       -7.018  -4.500   2.926  0.00  0.00    +0.140 A 
ATOM     23  C   LIG    1       -6.751  -3.193   3.123  0.00  0.00    +0.110 A 
ATOM     24  N   LIG    1       -5.442  -3.006   2.791  0.00  0.00    -0.460 N 
ATOM     25  C   LIG    1       -4.675  -1.759   2.831  0.00  0.00    +0.290 C 
ENDBRANCH  16  17
ENDBRANCH  15  16
ENDBRANCH   1  15
TORSDOF 4
