REMARK  Name = ZINCrD000000A52p.0
REMARK                            x       y       z     vdW  Elec       q    Type
REMARK                         _______ _______ _______ _____ _____    ______ ____
ROOT
ATOM      1  C   LIG    1       -1.860   5.412  -1.968  0.00  0.00    +0.530 C 
ATOM      2  N   LIG    1       -2.052   6.737  -1.810  0.00  0.00    -0.720 N 
ATOM      3  H   LIG    1       -2.055   7.123  -0.920  0.00  0.00    +0.410 HD
ATOM      4  O   LIG    1       -1.856   4.928  -3.080  0.00  0.00    -0.520 OA
ENDROOT
BRANCH   1   5
ATOM      5  C   LIG    1       -1.649   4.532  -0.763  0.00  0.00    +0.110 C 
BRANCH   5  10
ATOM      6  C   LIG    1       -0.033   1.345  -2.000  0.00  0.00    +0.230 A 
ATOM      7  C   LIG    1       -1.119   0.481  -2.029  0.00  0.00    -0.060 A 
ATOM      8  C   LIG    1       -2.369   0.932  -1.649  0.00  0.00    +0.070 A 
ATOM      9  C   LIG    1       -2.539   2.241  -1.240  0.00  0.00    -0.020 A 
ATOM     10  C   LIG    1       -1.459   3.105  -1.209  0.00  0.00    -0.010 A 
ATOM     11  C   LIG    1       -0.206   2.660  -1.583  0.00  0.00    -0.100 A 
ATOM     12 CL   LIG    1        1.151   3.743  -1.538  0.00  0.00    -0.070 Cl
BRANCH   6  13
ATOM     13  N   LIG    1        1.232   0.893  -2.383  0.00  0.00    -0.870 N 
ATOM     14  H   LIG    1        1.990   1.498  -2.366  0.00  0.00    +0.400 HD
ATOM     15  H   LIG    1        1.353  -0.026  -2.670  0.00  0.00    +0.400 HD
ENDBRANCH   6  13
ENDBRANCH   5  10
ENDBRANCH   1   5
BRANCH   2  16
ATOM     16  C   LIG    1       -2.257   7.592  -2.981  0.00  0.00    +0.290 C 
BRANCH  16  17
ATOM     17  C   LIG    1       -1.843   9.003  -2.651  0.00  0.00    +0.520 C 
ATOM     18  N   LIG    1       -1.398   9.820  -3.626  0.00  0.00    -0.600 N 
ATOM     19  C   LIG    1       -1.400   9.383  -5.029  0.00  0.00    +0.270 C 
ATOM     20  C   LIG    1       -2.150  10.430  -5.866  0.00  0.00    +0.020 C 
ATOM     21  C   LIG    1       -1.518  11.805  -5.638  0.00  0.00    +0.020 C 
ATOM     22  C   LIG    1       -1.645  12.188  -4.161  0.00  0.00    +0.020 C 
ATOM     23  C   LIG    1       -0.894  11.163  -3.306  0.00  0.00    +0.270 C 
ATOM     24  O   LIG    1       -1.912   9.404  -1.508  0.00  0.00    -0.530 OA
ENDBRANCH  16  17
BRANCH  16  25
ATOM     25  C   LIG    1       -3.713   7.573  -3.369  0.00  0.00    -0.100 A 
ATOM     26  C   LIG    1       -4.687   7.753  -2.405  0.00  0.00    +0.030 A 
ATOM     27  C   LIG    1       -6.023   7.740  -2.761  0.00  0.00    +0.000 A 
ATOM     28  C   LIG    1       -6.385   7.538  -4.080  0.00  0.00    +0.010 A 
ATOM     29  C   LIG    1       -5.410   7.353  -5.043  0.00  0.00    +0.010 A 
ATOM     30  C   LIG    1       -4.075   7.370  -4.687  0.00  0.00    +0.020 A 
ENDBRANCH  16  25
ENDBRANCH   2  16
TORSDOF 6
