REMARK  Name = ZINCtV000002KknF.0
REMARK                            x       y       z     vdW  Elec       q    Type
REMARK                         _______ _______ _______ _____ _____    ______ ____
ROOT
ATOM      1  C   LIG    1       -6.783   2.765   0.961  0.00  0.00    +0.170 C 
ATOM      2  C   LIG    1       -7.070   2.172  -0.394  0.00  0.00    +0.120 A 
ATOM      3  N   LIG    1       -8.229   1.744  -0.813  0.00  0.00    -0.250 NA
ATOM      4  N   LIG    1       -8.090   1.261  -2.119  0.00  0.00    -0.340 N 
ATOM      5  C   LIG    1       -6.809   1.410  -2.494  0.00  0.00    +0.160 A 
ATOM      6 CL   LIG    1       -6.128   0.963  -4.027  0.00  0.00    +0.010 Cl
ATOM      7  C   LIG    1       -6.132   1.985  -1.435  0.00  0.00    -0.260 A 
ENDROOT
BRANCH   7   8
ATOM      8  C   LIG    1       -4.701   2.332  -1.395  0.00  0.00    +0.600 C 
ATOM      9  N   LIG    1       -3.801   1.429  -0.959  0.00  0.00    -0.710 N 
ATOM     10  H   LIG    1       -4.095   0.551  -0.670  0.00  0.00    +0.400 HD
ATOM     11  O   LIG    1       -4.332   3.433  -1.756  0.00  0.00    -0.520 OA
BRANCH   9  12
ATOM     12  C   LIG    1       -2.377   1.774  -0.919  0.00  0.00    +0.290 C 
ATOM     13  C   LIG    1       -1.685   0.932   0.150  0.00  0.00    +0.020 C 
ATOM     14  C   LIG    1       -0.172   1.148   0.030  0.00  0.00    +0.030 C 
ATOM     15  C   LIG    1        0.308   0.486  -1.260  0.00  0.00    +0.080 C 
ATOM     16  C   LIG    1       -0.530   0.934  -2.429  0.00  0.00    -0.070 A 
ATOM     17  C   LIG    1       -0.018   0.739  -3.705  0.00  0.00    -0.010 A 
ATOM     18  C   LIG    1       -0.740   1.123  -4.816  0.00  0.00    +0.010 A 
ATOM     19  C   LIG    1       -1.983   1.706  -4.659  0.00  0.00    -0.010 A 
ATOM     20  C   LIG    1       -2.493   1.902  -3.392  0.00  0.00    +0.030 A 
ATOM     21  C   LIG    1       -1.767   1.519  -2.272  0.00  0.00    -0.100 A 
ENDBRANCH   9  12
ENDBRANCH   7   8
BRANCH   4  22
ATOM     22  C   LIG    1       -9.162   0.690  -2.938  0.00  0.00    +0.390 C 
BRANCH  22  23
ATOM     23  C   LIG    1       -9.912   1.799  -3.629  0.00  0.00    -0.110 A 
ATOM     24  C   LIG    1       -9.563   2.174  -4.913  0.00  0.00    +0.070 A 
ATOM     25  C   LIG    1      -10.251   3.192  -5.547  0.00  0.00    +0.040 A 
ATOM     26  C   LIG    1      -11.289   3.835  -4.898  0.00  0.00    -0.010 A 
ATOM     27  C   LIG    1      -11.639   3.460  -3.613  0.00  0.00    +0.040 A 
ATOM     28 CL   LIG    1      -12.153   5.113  -5.695  0.00  0.00    -0.050 Cl
ATOM     29  C   LIG    1      -10.954   2.438  -2.981  0.00  0.00    +0.000 A 
ATOM     30 CL   LIG    1      -11.397   1.962  -1.371  0.00  0.00    -0.030 Cl
ENDBRANCH  22  23
ENDBRANCH   4  22
TORSDOF 4
