REMARK  Name = ZINCqH0000000evz.0
REMARK                            x       y       z     vdW  Elec       q    Type
REMARK                         _______ _______ _______ _____ _____    ______ ____
ROOT
ATOM      1  C   LIG    1        5.993   3.441   4.381  0.00  0.00    +0.520 C 
ATOM      2  N   LIG    1        4.920   4.235   4.191  0.00  0.00    -0.680 N 
ATOM      3  H   LIG    1        4.551   4.737   4.934  0.00  0.00    +0.410 HD
ATOM      4  O   LIG    1        6.503   2.875   3.437  0.00  0.00    -0.490 OA
ENDROOT
BRANCH   2   5
ATOM      5  C   LIG    1        4.343   4.335   2.926  0.00  0.00    +0.170 A 
ATOM      6  C   LIG    1        5.149   4.332   1.792  0.00  0.00    +0.010 A 
ATOM      7  C   LIG    1        4.582   4.431   0.541  0.00  0.00    +0.070 A 
ATOM      8  C   LIG    1        3.195   4.536   0.411  0.00  0.00    -0.150 A 
ATOM      9  C   LIG    1        2.388   4.544   1.552  0.00  0.00    +0.100 A 
ATOM     10  C   LIG    1        2.961   4.439   2.800  0.00  0.00    -0.020 A 
BRANCH   8  11
ATOM     11  C   LIG    1        2.583   4.643  -0.928  0.00  0.00    +0.560 C 
ATOM     12  N   LIG    1        3.179   4.064  -1.989  0.00  0.00    -0.620 N 
ATOM     13  C   LIG    1        4.457   3.368  -1.822  0.00  0.00    +0.280 C 
ATOM     14  C   LIG    1        2.549   4.131  -3.310  0.00  0.00    +0.290 C 
ATOM     15  O   LIG    1        1.544   5.258  -1.074  0.00  0.00    -0.540 OA
ENDBRANCH   8  11
ENDBRANCH   2   5
BRANCH   1  16
ATOM     16  C   LIG    1        6.558   3.256   5.766  0.00  0.00    +0.210 C 
BRANCH  16  17
ATOM     17  N   LIG    1        7.714   2.352   5.706  0.00  0.00    -0.510 NA
BRANCH  17  18
ATOM     18  C   LIG    1        7.303   0.997   5.313  0.00  0.00    +0.220 C 
BRANCH  18  20
ATOM     19  C   LIG    1        9.060  -0.648   5.724  0.00  0.00    +0.000 C 
ATOM     20  C   LIG    1        8.515   0.207   4.893  0.00  0.00    -0.020 C 
ENDBRANCH  18  20
ENDBRANCH  17  18
BRANCH  17  21
ATOM     21  C   LIG    1        8.433   2.333   6.987  0.00  0.00    +0.280 C 
BRANCH  21  22
ATOM     22  C   LIG    1        9.227   3.605   7.136  0.00  0.00    -0.170 A 
ATOM     23  C   LIG    1        8.822   4.691   7.795  0.00  0.00    +0.010 A 
ATOM     24  C   LIG    1        9.725   5.741   7.802  0.00  0.00    +0.030 A 
ATOM     25  C   LIG    1       10.860   5.510   7.138  0.00  0.00    -0.150 A 
ATOM     26 CL   LIG    1       12.168   6.638   6.970  0.00  0.00    -0.010 Cl
ATOM     27  S   LIG    1       10.826   3.887   6.460  0.00  0.00    +0.190 S 
ENDBRANCH  21  22
ENDBRANCH  17  21
ENDBRANCH  16  17
ENDBRANCH   1  16
TORSDOF 8
