REMARK  Name = ZINCqH0000001s3x.0
REMARK                            x       y       z     vdW  Elec       q    Type
REMARK                         _______ _______ _______ _____ _____    ______ ____
ROOT
ATOM      1  C   LIG    1       -1.207  -2.952   4.732  0.00  0.00    -0.680 A 
ATOM      2  C   LIG    1        0.078  -3.196   5.182  0.00  0.00    +0.190 A 
ATOM      3  C   LIG    1        1.167  -2.898   4.382  0.00  0.00    +0.040 A 
ATOM      4  C   LIG    1        0.978  -2.354   3.127  0.00  0.00    +0.050 A 
ATOM      5  C   LIG    1       -0.318  -2.104   2.666  0.00  0.00    -0.130 A 
ATOM      6 CL   LIG    1        2.345  -1.980   2.126  0.00  0.00    -0.020 Cl
ATOM      7  C   LIG    1       -1.412  -2.402   3.482  0.00  0.00    +0.090 A 
ATOM      8 CL   LIG    1       -3.025  -2.090   2.922  0.00  0.00    -0.010 Cl
ENDROOT
BRANCH   5   9
ATOM      9  C   LIG    1       -0.529  -1.522   1.325  0.00  0.00    +0.570 C 
ATOM     10  N   LIG    1       -0.581  -0.184   1.171  0.00  0.00    -0.710 N 
ATOM     11  H   LIG    1       -0.481   0.397   1.942  0.00  0.00    +0.400 HD
ATOM     12  O   LIG    1       -0.655  -2.250   0.359  0.00  0.00    -0.500 OA
BRANCH  10  13
ATOM     13  C   LIG    1       -0.790   0.393  -0.159  0.00  0.00    +0.320 C 
BRANCH  13  14
ATOM     14  C   LIG    1       -0.809   1.896  -0.057  0.00  0.00    -0.120 A 
ATOM     15  C   LIG    1       -2.003   2.559   0.159  0.00  0.00    +0.070 A 
ATOM     16  C   LIG    1       -2.021   3.937   0.258  0.00  0.00    -0.020 A 
ATOM     17  C   LIG    1       -0.844   4.655   0.130  0.00  0.00    +0.110 A 
ATOM     18  C   LIG    1        0.350   3.990  -0.092  0.00  0.00    -0.020 A 
ATOM     19  F   LIG    1       -0.861   6.003   0.220  0.00  0.00    -0.140 F 
ATOM     20  C   LIG    1        0.367   2.612  -0.185  0.00  0.00    +0.070 A 
ENDBRANCH  13  14
ENDBRANCH  10  13
ENDBRANCH   5   9
BRANCH   1  21
ATOM     21  S   LIG    1       -2.586  -3.336   5.760  0.00  0.00    +2.690 S 
ATOM     22  O   LIG    1       -2.051  -3.839   6.977  0.00  0.00    -0.940 OA
ATOM     23  O   LIG    1       -3.498  -4.066   4.952  0.00  0.00    -0.930 OA
BRANCH  21  24
ATOM     24  N   LIG    1       -3.333  -1.906   6.133  0.00  0.00    -1.110 NA
ATOM     25  H   LIG    1       -4.232  -1.731   5.814  0.00  0.00    +0.420 HD
BRANCH  24  27
ATOM     26  C   LIG    1       -1.988   0.135   6.027  0.00  0.00    +0.010 C 
ATOM     27  C   LIG    1       -2.635  -0.905   6.944  0.00  0.00    +0.240 C 
ATOM     28  C   LIG    1       -3.636  -0.213   7.872  0.00  0.00    +0.040 C 
ENDBRANCH  24  27
ENDBRANCH  21  24
ENDBRANCH   1  21
TORSDOF 6
