REMARK  Name = ZINCrH000004rvAb.0
REMARK                            x       y       z     vdW  Elec       q    Type
REMARK                         _______ _______ _______ _____ _____    ______ ____
ROOT
ATOM      1  C   LIG    1       -0.758   0.881   1.418  0.00  0.00    +0.260 C 
ENDROOT
BRANCH   1   2
ATOM      2  N   LIG    1        0.217   0.851   2.511  0.00  0.00    -1.110 NA
ATOM      3  H   LIG    1        1.066   0.398   2.391  0.00  0.00    +0.420 HD
BRANCH   2   4
ATOM      4  S   LIG    1       -0.132   1.589   3.952  0.00  0.00    +2.680 S 
ATOM      5  O   LIG    1       -0.596   2.893   3.633  0.00  0.00    -0.950 OA
ATOM      6  O   LIG    1        0.978   1.346   4.806  0.00  0.00    -0.930 OA
BRANCH   4  11
ATOM      7  C   LIG    1       -4.818  -1.341   6.375  0.00  0.00    +0.110 C 
ATOM      8  C   LIG    1       -3.647  -0.610   5.770  0.00  0.00    -0.020 A 
ATOM      9  C   LIG    1       -3.780   0.712   5.388  0.00  0.00    +0.010 A 
ATOM     10  C   LIG    1       -2.705   1.385   4.838  0.00  0.00    +0.140 A 
ATOM     11  C   LIG    1       -1.500   0.733   4.659  0.00  0.00    -0.670 A 
ATOM     12  C   LIG    1       -1.366  -0.591   5.040  0.00  0.00    +0.000 A 
ATOM     13 BR   LIG    1        0.285  -1.481   4.802  0.00  0.00    -0.020 Br
ATOM     14  C   LIG    1       -2.440  -1.262   5.595  0.00  0.00    +0.030 A 
ENDBRANCH   4  11
ENDBRANCH   2   4
ENDBRANCH   1   2
BRANCH   1  15
ATOM     15  C   LIG    1       -0.047   0.598   0.093  0.00  0.00    +0.230 C 
BRANCH  15  16
ATOM     16  C   LIG    1       -1.064   0.528  -1.017  0.00  0.00    -0.070 A 
ATOM     17  C   LIG    1       -1.215   1.594  -1.884  0.00  0.00    +0.060 A 
ATOM     18  C   LIG    1       -2.148   1.530  -2.902  0.00  0.00    +0.010 A 
ATOM     19  C   LIG    1       -2.929   0.400  -3.055  0.00  0.00    +0.020 A 
ATOM     20  C   LIG    1       -2.779  -0.666  -2.189  0.00  0.00    +0.020 A 
ATOM     21  C   LIG    1       -1.841  -0.606  -1.173  0.00  0.00    -0.030 A 
ATOM     22 CL   LIG    1       -1.646  -1.948  -0.090  0.00  0.00    -0.070 Cl
ENDBRANCH  15  16
BRANCH  15  23
ATOM     23  N   LIG    1        0.912   1.675  -0.188  0.00  0.00    -0.520 NA
ATOM     24  C   LIG    1        2.207   1.407   0.453  0.00  0.00    +0.150 C 
ATOM     25  C   LIG    1        3.192   2.521   0.086  0.00  0.00    +0.220 C 
ATOM     26  O   LIG    1        2.644   3.782   0.478  0.00  0.00    -0.380 OA
ATOM     27  C   LIG    1        1.383   4.076  -0.129  0.00  0.00    +0.220 C 
ATOM     28  C   LIG    1        0.380   2.978   0.236  0.00  0.00    +0.150 C 
ENDBRANCH  15  23
ENDBRANCH   1  15
TORSDOF 6
