REMARK  Name = ZINCpe000000Y8nG.0
REMARK                            x       y       z     vdW  Elec       q    Type
REMARK                         _______ _______ _______ _____ _____    ______ ____
ROOT
ATOM      1  C   LIG    1       -0.780   1.618   1.237  0.00  0.00    +0.020 C 
ATOM      2  C   LIG    1       -0.016   1.077   0.006  0.00  0.00    +0.090 C 
ATOM      3  C   LIG    1       -0.799   1.597  -1.179  0.00  0.00    +0.520 C 
ATOM      4  N   LIG    1       -2.016   2.009  -0.784  0.00  0.00    -0.550 N 
ATOM      5  O   LIG    1       -0.388   1.639  -2.319  0.00  0.00    -0.500 OA
ATOM      6  C   LIG    1       -2.203   1.815   0.658  0.00  0.00    +0.320 C 
ENDROOT
BRANCH   4   7
ATOM      7  C   LIG    1       -2.983   2.552  -1.641  0.00  0.00    +0.170 A 
ATOM      8  C   LIG    1       -2.670   2.806  -2.969  0.00  0.00    +0.010 A 
ATOM      9  C   LIG    1       -3.623   3.343  -3.813  0.00  0.00    +0.060 A 
ATOM     10  C   LIG    1       -4.894   3.629  -3.337  0.00  0.00    +0.030 A 
ATOM     11  O   LIG    1       -5.818   4.162  -4.184  0.00  0.00    -0.310 OA
ATOM     12  C   LIG    1       -7.187   4.090  -3.770  0.00  0.00    +0.220 C 
ATOM     13  C   LIG    1       -7.269   4.529  -2.301  0.00  0.00    +0.220 C 
ATOM     14  O   LIG    1       -6.453   3.646  -1.524  0.00  0.00    -0.310 OA
ATOM     15  C   LIG    1       -5.210   3.375  -2.008  0.00  0.00    +0.080 A 
ATOM     16  C   LIG    1       -4.256   2.832  -1.162  0.00  0.00    -0.010 A 
ENDBRANCH   4   7
BRANCH   1  19
ATOM     17  N   LIG    1        1.082   2.990   2.115  0.00  0.00    -0.630 N 
ATOM     18  H   LIG    1        1.629   2.189   2.118  0.00  0.00    +0.420 HD
ATOM     19  C   LIG    1       -0.199   2.930   1.698  0.00  0.00    +0.510 C 
ATOM     20  O   LIG    1       -0.883   3.932   1.694  0.00  0.00    -0.470 OA
BRANCH  17  27
ATOM     21  C   LIG    1        4.005   3.389   3.135  0.00  0.00    +0.170 C 
ATOM     22  C   LIG    1        2.924   4.431   3.008  0.00  0.00    -0.030 A 
ATOM     23  N   LIG    1        3.042   5.700   3.309  0.00  0.00    -0.220 NA
ATOM     24  N   LIG    1        1.929   6.304   3.085  0.00  0.00    -0.320 N 
ATOM     25  H   LIG    1        1.758   7.248   3.232  0.00  0.00    +0.470 HD
ATOM     26  N   LIG    1        1.003   5.373   2.595  0.00  0.00    -0.260 NA
ATOM     27  C   LIG    1        1.623   4.210   2.544  0.00  0.00    +0.270 A 
ENDBRANCH  17  27
ENDBRANCH   1  19
TORSDOF 3
