REMARK  Name = ZINCvU0000000HIp.0
REMARK                            x       y       z     vdW  Elec       q    Type
REMARK                         _______ _______ _______ _____ _____    ______ ____
ROOT
ATOM      1  S   LIG    1        0.002  -0.004   0.002  0.00  0.00    +0.170 S 
ENDROOT
BRANCH   1   5
ATOM      2  C   LIG    1       -0.675   3.817   0.028  0.00  0.00    +0.250 A 
ATOM      3  N   LIG    1        0.638   3.775   0.015  0.00  0.00    -0.260 NA
ATOM      4  N   LIG    1        1.026   2.548   0.006  0.00  0.00    -0.280 NA
ATOM      5  C   LIG    1       -0.022   1.758   0.012  0.00  0.00    +0.120 A 
ATOM      6  O   LIG    1       -1.119   2.540   0.021  0.00  0.00    -0.200 OA
BRANCH   2  14
ATOM      7  C   LIG    1       -2.710  11.052  -0.148  0.00  0.00    +0.030 C 
ATOM      8  C   LIG    1       -2.943   9.554  -0.357  0.00  0.00    -0.010 C 
ATOM      9  C   LIG    1       -4.130   9.097   0.495  0.00  0.00    +0.040 C 
ATOM     10  C   LIG    1       -4.521   7.675   0.083  0.00  0.00    +0.120 C 
ATOM     11  C   LIG    1       -3.275   6.813   0.067  0.00  0.00    -0.150 A 
ATOM     12  C   LIG    1       -2.013   7.290   0.058  0.00  0.00    -0.110 A 
ATOM     13  C   LIG    1       -1.039   6.302   0.049  0.00  0.00    +0.100 A 
ATOM     14  C   LIG    1       -1.507   5.029   0.041  0.00  0.00    -0.160 A 
ATOM     15  S   LIG    1       -3.264   5.055   0.057  0.00  0.00    +0.170 S 
ATOM     16  C   LIG    1       -1.692   8.779   0.062  0.00  0.00    +0.110 C 
ENDBRANCH   2  14
ENDBRANCH   1   5
BRANCH   1  17
ATOM     17  C   LIG    1        1.789  -0.294  -0.016  0.00  0.00    +0.110 C 
BRANCH  17  18
ATOM     18  C   LIG    1        2.057  -1.777  -0.026  0.00  0.00    +0.530 C 
ATOM     19  N   LIG    1        3.325  -2.232  -0.040  0.00  0.00    -0.620 N 
ATOM     20  H   LIG    1        4.065  -1.606  -0.044  0.00  0.00    +0.420 HD
ATOM     21  O   LIG    1        1.131  -2.561  -0.022  0.00  0.00    -0.480 OA
BRANCH  19  22
ATOM     22  C   LIG    1        3.572  -3.598  -0.050  0.00  0.00    +0.050 A 
ATOM     23  C   LIG    1        4.816  -4.162  -0.070  0.00  0.00    -0.100 A 
ATOM     24  C   LIG    1        4.791  -5.613  -0.071  0.00  0.00    -0.040 A 
ATOM     25  C   LIG    1        3.544  -6.101  -0.063  0.00  0.00    -0.240 A 
ATOM     26  C   LIG    1        3.205  -7.579  -0.067  0.00  0.00    +0.120 C 
ATOM     27  C   LIG    1        4.446  -8.367  -0.497  0.00  0.00    +0.020 C 
ATOM     28  C   LIG    1        5.645  -7.905   0.337  0.00  0.00    +0.020 C 
ATOM     29  C   LIG    1        6.035  -6.487  -0.087  0.00  0.00    +0.100 C 
ATOM     30  S   LIG    1        2.366  -4.800  -0.046  0.00  0.00    +0.330 S 
BRANCH  23  31
ATOM     31  C   LIG    1        6.026  -3.397  -0.083  0.00  0.00    +0.270 C 
ATOM     32  N   LIG    1        6.986  -2.789  -0.094  0.00  0.00    -0.420 NA
ENDBRANCH  23  31
ENDBRANCH  19  22
ENDBRANCH  17  18
ENDBRANCH   1  17
TORSDOF 6
