REMARK  Name = ZINCqH0000038iBF.0
REMARK                            x       y       z     vdW  Elec       q    Type
REMARK                         _______ _______ _______ _____ _____    ______ ____
ROOT
ATOM      1  N   LIG    1       -0.369  -0.495   1.276  0.00  0.00    -0.500 NA
ENDROOT
BRANCH   1   2
ATOM      2  C   LIG    1        0.660   0.451   1.726  0.00  0.00    +0.080 C 
ATOM      3  C   LIG    1        0.240   1.902   1.403  0.00  0.00    +0.040 C 
ATOM      4  C   LIG    1        0.155   2.585   2.787  0.00  0.00    +0.190 C 
ATOM      5  O   LIG    1        1.021   1.803   3.638  0.00  0.00    -0.360 OA
ATOM      6  C   LIG    1        0.780   0.428   3.266  0.00  0.00    +0.220 C 
BRANCH   2   7
ATOM      7  C   LIG    1        2.007   0.126   1.076  0.00  0.00    +0.150 C 
BRANCH   7   8
ATOM      8  O   LIG    1        3.019   0.971   1.629  0.00  0.00    -0.550 OA
ATOM      9  H   LIG    1        3.901   0.819   1.262  0.00  0.00    +0.380 HD
ENDBRANCH   7   8
ENDBRANCH   2   7
ENDBRANCH   1   2
BRANCH   1  10
ATOM     10  C   LIG    1       -0.122  -1.838   1.818  0.00  0.00    +0.300 C 
BRANCH  10  17
ATOM     11  C   LIG    1       -4.426  -1.940   7.868  0.00  0.00    +0.100 C 
ATOM     12  C   LIG    1       -3.123  -1.938   7.110  0.00  0.00    -0.070 A 
ATOM     13  C   LIG    1       -1.924  -1.974   7.808  0.00  0.00    +0.040 A 
ATOM     14  C   LIG    1       -0.728  -1.973   7.125  0.00  0.00    +0.060 A 
ATOM     15  C   LIG    1       -0.722  -1.936   5.733  0.00  0.00    -0.180 A 
ATOM     16  S   LIG    1        0.597  -1.923   4.566  0.00  0.00    +0.100 S 
ATOM     17  C   LIG    1       -0.515  -1.872   3.273  0.00  0.00    +0.090 A 
ATOM     18  N   LIG    1       -1.724  -1.862   3.693  0.00  0.00    -0.440 NA
ATOM     19  C   LIG    1       -1.928  -1.900   5.023  0.00  0.00    +0.080 A 
ATOM     20  C   LIG    1       -3.136  -1.902   5.749  0.00  0.00    +0.070 A 
ENDBRANCH  10  17
ENDBRANCH   1  10
BRANCH   1  21
ATOM     21  C   LIG    1       -0.450  -0.527  -0.190  0.00  0.00    +0.240 C 
BRANCH  21  22
ATOM     22  C   LIG    1       -1.151   0.714  -0.681  0.00  0.00    -0.080 A 
ATOM     23  C   LIG    1       -2.532   0.767  -0.696  0.00  0.00    +0.030 A 
ATOM     24  C   LIG    1       -3.175   1.907  -1.142  0.00  0.00    +0.000 A 
ATOM     25  C   LIG    1       -2.437   2.989  -1.583  0.00  0.00    +0.000 A 
ATOM     26  C   LIG    1       -1.056   2.934  -1.573  0.00  0.00    -0.010 A 
ATOM     27  C   LIG    1       -0.413   1.796  -1.122  0.00  0.00    +0.020 A 
ENDBRANCH  21  22
ENDBRANCH   1  21
TORSDOF 7
