REMARK  Name = ZINCtV00000L6jle.0
REMARK                            x       y       z     vdW  Elec       q    Type
REMARK                         _______ _______ _______ _____ _____    ______ ____
ROOT
ATOM      1  C   LIG    1       -6.081   2.683  -0.050  0.00  0.00    +0.230 A 
ATOM      2  N   LIG    1       -5.184   3.623  -0.237  0.00  0.00    -0.270 NA
ATOM      3  N   LIG    1       -4.005   3.148  -0.055  0.00  0.00    -0.280 NA
ATOM      4  C   LIG    1       -4.075   1.874   0.260  0.00  0.00    +0.110 A 
ATOM      5  N   LIG    1       -5.398   1.532   0.269  0.00  0.00    -0.440 N 
ENDROOT
BRANCH   1  11
ATOM      6  C   LIG    1      -10.188   5.479   0.416  0.00  0.00    +0.090 C 
ATOM      7  C   LIG    1       -9.527   4.173   0.057  0.00  0.00    -0.080 A 
ATOM      8  C   LIG    1      -10.294   3.108  -0.382  0.00  0.00    +0.020 A 
ATOM      9  C   LIG    1       -9.695   1.906  -0.713  0.00  0.00    +0.020 A 
ATOM     10  C   LIG    1       -8.327   1.761  -0.608  0.00  0.00    +0.000 A 
ATOM     11  C   LIG    1       -7.547   2.831  -0.165  0.00  0.00    -0.010 A 
ATOM     12  C   LIG    1       -8.158   4.039   0.173  0.00  0.00    +0.050 A 
ENDBRANCH   1  11
BRANCH   5  13
ATOM     13  C   LIG    1       -5.970   0.215   0.559  0.00  0.00    +0.240 C 
ATOM     14  C   LIG    1       -5.437  -0.806  -0.448  0.00  0.00    +0.030 C 
ATOM     15  C   LIG    1       -3.912  -0.878  -0.344  0.00  0.00    +0.020 C 
ATOM     16  C   LIG    1       -3.517  -1.304   1.072  0.00  0.00    +0.050 C 
ATOM     17  C   LIG    1       -4.050  -0.283   2.079  0.00  0.00    +0.020 C 
ATOM     18  C   LIG    1       -5.575  -0.211   1.975  0.00  0.00    +0.000 C 
ATOM     19  C   LIG    1       -6.108   0.809   2.982  0.00  0.00    +0.030 C 
ENDBRANCH   5  13
BRANCH   4  20
ATOM     20  S   LIG    1       -2.717   0.804   0.600  0.00  0.00    +0.230 S 
BRANCH  20  21
ATOM     21  C   LIG    1       -1.343   1.962   0.385  0.00  0.00    -0.060 C 
BRANCH  21  22
ATOM     22  C   LIG    1       -0.040   1.248   0.633  0.00  0.00    +0.450 C 
ATOM     23  O   LIG    1       -0.040   0.069   0.928  0.00  0.00    -0.440 OA
BRANCH  22  24
ATOM     24  C   LIG    1        1.180   1.946   0.518  0.00  0.00    -0.300 A 
ATOM     25  C   LIG    1        2.428   1.407   0.714  0.00  0.00    +0.130 A 
ATOM     26  C   LIG    1        3.442   2.312   0.537  0.00  0.00    +0.010 A 
ATOM     27  C   LIG    1        3.048   3.553   0.208  0.00  0.00    -0.160 A 
ATOM     28 CL   LIG    1        4.126   4.885  -0.072  0.00  0.00    +0.000 Cl
ATOM     29  S   LIG    1        1.348   3.644   0.094  0.00  0.00    +0.290 S 
ENDBRANCH  22  24
ENDBRANCH  21  22
ENDBRANCH  20  21
ENDBRANCH   4  20
TORSDOF 6
