REMARK  Name = ZINCqH0000002OTM.0
REMARK                            x       y       z     vdW  Elec       q    Type
REMARK                         _______ _______ _______ _____ _____    ______ ____
ROOT
ATOM      1  C   LIG    1       -0.384   1.162   4.834  0.00  0.00    +0.270 C 
ENDROOT
BRANCH   1   2
ATOM      2  N   LIG    1       -0.947   1.324   3.491  0.00  0.00    -0.730 N 
ATOM      3  H   LIG    1       -1.796   1.777   3.373  0.00  0.00    +0.410 HD
ATOM      4  C   LIG    1       -0.284   0.843   2.421  0.00  0.00    +0.710 C 
ATOM      5  N   LIG    1       -0.801   0.992   1.185  0.00  0.00    -0.740 N 
ATOM      6  H   LIG    1       -1.651   1.446   1.067  0.00  0.00    +0.400 HD
ATOM      7  O   LIG    1        0.781   0.275   2.570  0.00  0.00    -0.580 OA
BRANCH   5   8
ATOM      8  C   LIG    1       -0.081   0.470   0.021  0.00  0.00    +0.340 C 
BRANCH   8   9
ATOM      9  C   LIG    1       -0.867   0.765  -1.230  0.00  0.00    -0.120 A 
ATOM     10  C   LIG    1       -1.797  -0.148  -1.692  0.00  0.00    +0.070 A 
ATOM     11  C   LIG    1       -2.523   0.124  -2.837  0.00  0.00    -0.020 A 
ATOM     12  C   LIG    1       -2.310   1.306  -3.526  0.00  0.00    +0.110 A 
ATOM     13  C   LIG    1       -1.374   2.216  -3.066  0.00  0.00    -0.020 A 
ATOM     14  F   LIG    1       -3.014   1.569  -4.649  0.00  0.00    -0.140 F 
ATOM     15  C   LIG    1       -0.654   1.945  -1.918  0.00  0.00    +0.070 A 
ENDBRANCH   8   9
ENDBRANCH   5   8
ENDBRANCH   1   2
BRANCH   1  16
ATOM     16  C   LIG    1       -1.495   1.195   5.852  0.00  0.00    +0.510 C 
ATOM     17  N   LIG    1       -1.213   1.064   7.163  0.00  0.00    -0.670 N 
ATOM     18  H   LIG    1       -0.305   0.872   7.447  0.00  0.00    +0.410 HD
ATOM     19  O   LIG    1       -2.644   1.340   5.491  0.00  0.00    -0.510 OA
BRANCH  17  20
ATOM     20  C   LIG    1       -2.228   1.205   8.115  0.00  0.00    +0.150 A 
ATOM     21  C   LIG    1       -3.271   2.095   7.894  0.00  0.00    +0.000 A 
ATOM     22  C   LIG    1       -4.275   2.227   8.833  0.00  0.00    +0.030 A 
ATOM     23  C   LIG    1       -4.237   1.483   9.998  0.00  0.00    -0.010 A 
ATOM     24  C   LIG    1       -3.197   0.600  10.224  0.00  0.00    -0.070 A 
ATOM     25  C   LIG    1       -3.159  -0.209  11.495  0.00  0.00    +0.090 C 
ATOM     26  C   LIG    1       -2.193   0.458   9.286  0.00  0.00    -0.010 A 
ENDBRANCH  17  20
ENDBRANCH   1  16
BRANCH   1  27
ATOM     27  C   LIG    1        0.599   2.300   5.116  0.00  0.00    +0.020 C 
BRANCH  27  29
ATOM     28  C   LIG    1        2.774   3.329   4.444  0.00  0.00    +0.010 C 
ATOM     29  C   LIG    1        1.791   2.192   4.163  0.00  0.00    +0.030 C 
ENDBRANCH  27  29
ENDBRANCH   1  27
TORSDOF 7
