REMARK  Name = ZINCrD000000CJDd.0
REMARK                            x       y       z     vdW  Elec       q    Type
REMARK                         _______ _______ _______ _____ _____    ______ ____
ROOT
ATOM      1  O   LIG    1       -1.649   1.108   3.169  0.00  0.00    -0.510 OA
ATOM      2  C   LIG    1       -1.091   0.697   2.171  0.00  0.00    +0.590 C 
ATOM      3  N   LIG    1       -0.631   1.566   1.250  0.00  0.00    -0.600 N 
ATOM      4  C   LIG    1        0.142   1.092   0.093  0.00  0.00    +0.280 C 
ATOM      5  C   LIG    1       -0.510   1.620  -1.188  0.00  0.00    +0.030 C 
ATOM      6  C   LIG    1       -0.640   3.143  -1.101  0.00  0.00    +0.030 C 
ATOM      7  C   LIG    1       -1.535   3.512   0.084  0.00  0.00    +0.260 C 
ATOM      8  C   LIG    1       -0.895   3.006   1.381  0.00  0.00    +0.310 C 
ENDROOT
BRANCH   2   9
ATOM      9  C   LIG    1       -0.916  -0.758   1.967  0.00  0.00    +0.080 A 
ATOM     10  C   LIG    1       -2.007  -1.565   1.565  0.00  0.00    -0.050 A 
ATOM     11  C   LIG    1       -3.284  -1.049   1.329  0.00  0.00    +0.050 A 
ATOM     12  C   LIG    1       -4.285  -1.889   0.936  0.00  0.00    +0.060 A 
ATOM     13  C   LIG    1       -4.053  -3.252   0.762  0.00  0.00    +0.050 A 
ATOM     14  C   LIG    1       -2.819  -3.789   0.979  0.00  0.00    +0.070 A 
ATOM     15  C   LIG    1       -1.767  -2.954   1.383  0.00  0.00    -0.080 A 
ATOM     16  C   LIG    1       -0.469  -3.432   1.625  0.00  0.00    +0.290 A 
ATOM     17  N   LIG    1        0.467  -2.584   2.002  0.00  0.00    -0.260 NA
ATOM     18  N   LIG    1        0.261  -1.330   2.163  0.00  0.00    -0.230 NA
ENDBRANCH   2   9
BRANCH   7  19
ATOM     19  N   LIG    1       -1.685   4.968   0.149  0.00  0.00    -0.350 N 
ATOM     20  C   LIG    1       -0.838   5.827   0.754  0.00  0.00    +0.250 A 
ATOM     21  C   LIG    1       -1.328   7.077   0.586  0.00  0.00    -0.060 A 
ATOM     22  C   LIG    1       -2.520   6.978  -0.139  0.00  0.00    -0.020 A 
ATOM     23  N   LIG    1       -2.735   5.714  -0.402  0.00  0.00    -0.230 NA
BRANCH  22  24
ATOM     24  C   LIG    1       -3.404   8.128  -0.547  0.00  0.00    +0.560 C 
ATOM     25  F   LIG    1       -2.716   8.949  -1.447  0.00  0.00    -0.170 F 
ATOM     26  F   LIG    1       -3.756   8.870   0.585  0.00  0.00    -0.170 F 
ATOM     27  F   LIG    1       -4.561   7.632  -1.158  0.00  0.00    -0.170 F 
ENDBRANCH  22  24
ENDBRANCH   7  19
TORSDOF 3
