REMARK  Name = ZINCqH0000034B4V.0
REMARK                            x       y       z     vdW  Elec       q    Type
REMARK                         _______ _______ _______ _____ _____    ______ ____
ROOT
ATOM      1  C   LIG    1        4.878   4.229  -2.653  0.00  0.00    +0.300 C 
ATOM      2  N   LIG    1        5.264   3.617  -1.379  0.00  0.00    -0.610 N 
ATOM      3  C   LIG    1        6.263   2.713  -1.341  0.00  0.00    +0.560 C 
ATOM      4  O   LIG    1        6.501   2.114  -0.310  0.00  0.00    -0.500 OA
ENDROOT
BRANCH   3   5
ATOM      5  C   LIG    1        7.067   2.450  -2.550  0.00  0.00    -0.120 A 
ATOM      6  C   LIG    1        7.108   3.391  -3.581  0.00  0.00    +0.070 A 
ATOM      7  C   LIG    1        7.864   3.148  -4.710  0.00  0.00    -0.050 A 
ATOM      8  C   LIG    1        8.576   1.962  -4.823  0.00  0.00    +0.100 A 
ATOM      9  O   LIG    1        9.321   1.714  -5.938  0.00  0.00    -0.310 OA
ATOM     10  C   LIG    1       10.737   1.696  -5.752  0.00  0.00    +0.230 C 
ATOM     11  C   LIG    1       11.202   0.328  -5.277  0.00  0.00    +0.000 C 
ATOM     12  C   LIG    1       10.660  -0.021  -3.899  0.00  0.00    +0.230 C 
ATOM     13  O   LIG    1        9.237  -0.145  -3.931  0.00  0.00    -0.310 OA
ATOM     14  C   LIG    1        8.533   1.018  -3.803  0.00  0.00    +0.070 A 
ATOM     15 CL   LIG    1        7.921   4.322  -5.988  0.00  0.00    -0.040 Cl
ATOM     16  C   LIG    1        7.784   1.255  -2.668  0.00  0.00    +0.100 A 
ENDBRANCH   3   5
BRANCH   2  17
ATOM     17  C   LIG    1        4.566   3.989  -0.146  0.00  0.00    +0.330 C 
BRANCH  17  18
ATOM     18  C   LIG    1        3.370   3.058   0.063  0.00  0.00    +0.190 C 
BRANCH  18  19
ATOM     19  O   LIG    1        3.837   1.725   0.281  0.00  0.00    -0.290 OA
BRANCH  19  20
ATOM     20  C   LIG    1        2.894   0.767   0.485  0.00  0.00    +0.100 A 
ATOM     21  C   LIG    1        1.549   1.102   0.477  0.00  0.00    -0.050 A 
ATOM     22  C   LIG    1        0.593   0.127   0.686  0.00  0.00    +0.040 A 
ATOM     23  C   LIG    1        0.975  -1.184   0.902  0.00  0.00    +0.000 A 
ATOM     24  C   LIG    1        2.316  -1.523   0.911  0.00  0.00    +0.020 A 
ATOM     25  C   LIG    1        3.277  -0.551   0.703  0.00  0.00    +0.070 A 
ATOM     26  F   LIG    1        4.587  -0.882   0.711  0.00  0.00    -0.130 F 
ENDBRANCH  19  20
ENDBRANCH  18  19
ENDBRANCH  17  18
ENDBRANCH   2  17
TORSDOF 5
