REMARK  Name = ZINCrg00000SjSFb.0
REMARK                            x       y       z     vdW  Elec       q    Type
REMARK                         _______ _______ _______ _____ _____    ______ ____
ROOT
ATOM      1  C   LIG    1        0.145   2.235  -2.600  0.00  0.00    +0.510 C 
ATOM      2  N   LIG    1       -0.088   1.532  -1.474  0.00  0.00    -0.620 N 
ATOM      3  C   LIG    1       -1.462   1.248  -1.029  0.00  0.00    +0.250 C 
ATOM      4  C   LIG    1       -1.586   1.652   0.444  0.00  0.00    +0.230 C 
ATOM      5  O   LIG    1       -0.535   1.036   1.192  0.00  0.00    -0.360 OA
ATOM      6  C   LIG    1        0.780   1.449   0.803  0.00  0.00    +0.080 C 
ATOM      7  C   LIG    1        0.886   2.968   0.911  0.00  0.00    +0.060 C 
ATOM      8  C   LIG    1        0.314   3.433   2.256  0.00  0.00    -0.270 C 
ATOM      9  S   LIG    1        1.293   2.665   3.585  0.00  0.00    +2.290 S 
ATOM     10  C   LIG    1        1.380   0.895   3.169  0.00  0.00    -0.140 C 
ATOM     11  N   LIG    1        0.524   2.799   4.858  0.00  0.00    -1.120 NA
ATOM     12  O   LIG    1        2.563   3.271   3.787  0.00  0.00    -0.920 OA
ATOM     13  C   LIG    1        1.810   0.769   1.703  0.00  0.00    +0.120 C 
ATOM     14  C   LIG    1        1.023   1.027  -0.652  0.00  0.00    +0.300 C 
ATOM     15  O   LIG    1        1.281   2.526  -2.908  0.00  0.00    -0.510 OA
ENDROOT
BRANCH  11  16
ATOM     16  C   LIG    1        0.315   3.996   5.383  0.00  0.00    +0.640 C 
ATOM     17  O   LIG    1        0.753   4.993   4.825  0.00  0.00    -0.550 OA
BRANCH  16  18
ATOM     18  C   LIG    1       -0.443   4.128   6.637  0.00  0.00    -0.080 A 
ATOM     19  C   LIG    1       -0.742   5.317   7.318  0.00  0.00    +0.250 A 
ATOM     20  N   LIG    1       -1.441   4.982   8.395  0.00  0.00    -0.490 NA
ATOM     21  C   LIG    1       -1.586   3.676   8.429  0.00  0.00    +0.440 A 
ATOM     22  O   LIG    1       -0.985   3.128   7.366  0.00  0.00    -0.160 OA
ENDBRANCH  16  18
ENDBRANCH  11  16
BRANCH   1  23
ATOM     23  C   LIG    1       -1.006   2.658  -3.476  0.00  0.00    +0.160 C 
BRANCH  23  25
ATOM     24  C   LIG    1       -2.994   4.162  -3.632  0.00  0.00    +0.030 C 
ATOM     25  C   LIG    1       -1.738   3.833  -2.824  0.00  0.00    +0.020 C 
ENDBRANCH  23  25
BRANCH  23  26
ATOM     26  O   LIG    1       -0.509   3.057  -4.755  0.00  0.00    -0.360 OA
ATOM     27  C   LIG    1       -1.280   2.572  -5.856  0.00  0.00    +0.200 C 
ENDBRANCH  23  26
ENDBRANCH   1  23
TORSDOF 5
