REMARK  Name = ZINCrD00000F5LoF.0
REMARK                            x       y       z     vdW  Elec       q    Type
REMARK                         _______ _______ _______ _____ _____    ______ ____
ROOT
ATOM      1  C   LIG    1        1.849   0.861  -0.307  0.00  0.00    +0.290 C 
ATOM      2  C   LIG    1        0.776   1.923  -0.193  0.00  0.00    -0.110 A 
ATOM      3  C   LIG    1        0.863   3.301  -0.293  0.00  0.00    +0.040 A 
ATOM      4  C   LIG    1       -0.268   4.081  -0.151  0.00  0.00    +0.010 A 
ATOM      5  C   LIG    1       -1.491   3.485   0.093  0.00  0.00    +0.020 A 
ATOM      6  C   LIG    1       -1.581   2.110   0.188  0.00  0.00    +0.010 A 
ATOM      7  C   LIG    1       -0.447   1.327   0.051  0.00  0.00    -0.090 A 
ATOM      8  C   LIG    1       -0.280  -0.176   0.118  0.00  0.00    +0.090 C 
ATOM      9  C   LIG    1        1.233  -0.406   0.324  0.00  0.00    +0.260 C 
ENDROOT
BRANCH   1  12
ATOM     10  O   LIG    1        3.877   2.302  -1.345  0.00  0.00    -0.510 OA
ATOM     11  C   LIG    1        4.005   1.988  -0.180  0.00  0.00    +0.510 C 
ATOM     12  N   LIG    1        3.046   1.266   0.433  0.00  0.00    -0.720 N 
ATOM     13  H   LIG    1        3.149   1.015   1.364  0.00  0.00    +0.410 HD
BRANCH  11  14
ATOM     14  C   LIG    1        5.237   2.405   0.581  0.00  0.00    +0.170 C 
ATOM     15 CL   LIG    1        6.323   3.352  -0.504  0.00  0.00    -0.130 Cl
ENDBRANCH  11  14
ENDBRANCH   1  12
BRANCH   9  16
ATOM     16  N   LIG    1        1.678  -1.609  -0.383  0.00  0.00    -0.720 N 
ATOM     17  H   LIG    1        2.037  -1.539  -1.282  0.00  0.00    +0.400 HD
ATOM     18  C   LIG    1        1.589  -2.813   0.215  0.00  0.00    +0.560 C 
ATOM     19  O   LIG    1        1.140  -2.901   1.341  0.00  0.00    -0.520 OA
BRANCH  18  20
ATOM     20  C   LIG    1        2.039  -4.028  -0.498  0.00  0.00    -0.140 A 
ATOM     21  C   LIG    1        2.671  -3.913  -1.734  0.00  0.00    +0.030 A 
ATOM     22  C   LIG    1        3.092  -5.050  -2.393  0.00  0.00    +0.000 A 
ATOM     23  C   LIG    1        2.874  -6.292  -1.831  0.00  0.00    +0.040 A 
ATOM     24  C   LIG    1        2.236  -6.417  -0.602  0.00  0.00    -0.090 A 
ATOM     25  C   LIG    1        2.022  -7.807  -0.062  0.00  0.00    +0.080 C 
ATOM     26  C   LIG    1        1.730  -7.763   1.436  0.00  0.00    +0.020 C 
ATOM     27  C   LIG    1        0.601  -6.754   1.679  0.00  0.00    +0.000 C 
ATOM     28  C   LIG    1        1.142  -5.351   1.412  0.00  0.00    +0.100 C 
ATOM     29  C   LIG    1        1.822  -5.292   0.069  0.00  0.00    -0.010 A 
ENDBRANCH  18  20
ENDBRANCH   9  16
TORSDOF 4
