REMARK  Name = ZINCqH0000000fNK.0
REMARK                            x       y       z     vdW  Elec       q    Type
REMARK                         _______ _______ _______ _____ _____    ______ ____
ROOT
ATOM      1  N   LIG    1        2.511  -4.361  -0.122  0.00  0.00    -0.620 N 
ATOM      2  C   LIG    1        3.246  -4.557   0.992  0.00  0.00    +0.570 C 
ATOM      3  C   LIG    1        2.566  -4.658   2.295  0.00  0.00    -0.200 A 
ATOM      4  C   LIG    1        3.266  -4.581   3.496  0.00  0.00    +0.110 A 
ATOM      5  C   LIG    1        2.583  -4.693   4.690  0.00  0.00    -0.040 A 
ATOM      6  C   LIG    1        1.210  -4.879   4.700  0.00  0.00    +0.080 A 
ATOM      7  C   LIG    1        0.502  -4.954   3.516  0.00  0.00    -0.050 A 
ATOM      8  C   LIG    1        1.171  -4.843   2.310  0.00  0.00    +0.240 A 
ATOM      9  N   LIG    1        0.507  -4.906   1.090  0.00  0.00    -0.740 N 
ATOM     10  H   LIG    1       -0.306  -5.427   0.995  0.00  0.00    +0.420 HD
ATOM     11  O   LIG    1        4.457  -4.648   0.921  0.00  0.00    -0.520 OA
ATOM     12  C   LIG    1        1.063  -4.168  -0.050  0.00  0.00    +0.560 C 
ENDROOT
BRANCH  12  13
ATOM     13  C   LIG    1        0.763  -2.700   0.112  0.00  0.00    -0.120 A 
ATOM     14  C   LIG    1        1.697  -1.868   0.691  0.00  0.00    +0.060 A 
ATOM     15  C   LIG    1        1.430  -0.510   0.845  0.00  0.00    +0.070 A 
ATOM     16  C   LIG    1        0.208  -0.012   0.414  0.00  0.00    -0.130 A 
ATOM     17  C   LIG    1        0.200   1.474   0.720  0.00  0.00    +0.080 C 
ATOM     18  C   LIG    1        1.381   1.603   1.710  0.00  0.00    +0.170 C 
ATOM     19  C   LIG    1        2.132   2.917   1.490  0.00  0.00    +0.070 C 
ATOM     20  C   LIG    1       -0.727  -0.840  -0.168  0.00  0.00    -0.030 A 
ATOM     21  O   LIG    1        2.209   0.479   1.366  0.00  0.00    -0.300 OA
ATOM     22  C   LIG    1       -0.453  -2.192  -0.322  0.00  0.00    +0.120 A 
BRANCH  22  23
ATOM     23  O   LIG    1       -1.372  -3.014  -0.896  0.00  0.00    -0.310 OA
ATOM     24  C   LIG    1       -2.601  -2.419  -1.317  0.00  0.00    +0.250 C 
ENDBRANCH  22  23
ENDBRANCH  12  13
BRANCH   1  25
ATOM     25  C   LIG    1        3.175  -4.341  -1.428  0.00  0.00    +0.330 C 
BRANCH  25  27
ATOM     26  C   LIG    1        4.976  -2.787  -1.977  0.00  0.00    +0.040 C 
ATOM     27  C   LIG    1        3.707  -2.958  -1.700  0.00  0.00    -0.070 C 
ENDBRANCH  25  27
ENDBRANCH   1  25
TORSDOF 4
