REMARK  Name = ZINCtV00000tRSZV.0
REMARK                            x       y       z     vdW  Elec       q    Type
REMARK                         _______ _______ _______ _____ _____    ______ ____
ROOT
ATOM      1  C   LIG    1        2.475   1.356   0.196  0.00  0.00    +0.050 A 
ATOM      2  C   LIG    1        3.555   2.174   0.367  0.00  0.00    +0.020 A 
ATOM      3  C   LIG    1        4.688   1.350   0.414  0.00  0.00    -0.020 A 
ATOM      4  C   LIG    1        4.254   0.066   0.262  0.00  0.00    +0.040 A 
ATOM      5  O   LIG    1        2.914   0.083   0.130  0.00  0.00    -0.160 OA
ENDROOT
BRANCH   1  10
ATOM      6  C   LIG    1       -2.539   1.312  -0.318  0.00  0.00    +0.160 C 
ATOM      7  C   LIG    1       -1.115   1.768  -0.130  0.00  0.00    +0.020 A 
ATOM      8  C   LIG    1       -0.690   3.050   0.028  0.00  0.00    +0.040 A 
ATOM      9  N   LIG    1        0.649   3.035   0.158  0.00  0.00    -0.420 NA
ATOM     10  C   LIG    1        1.075   1.790   0.094  0.00  0.00    +0.280 A 
ATOM     11  N   LIG    1       -0.005   0.970  -0.082  0.00  0.00    -0.560 N 
ATOM     12  H   LIG    1        0.013   0.003  -0.163  0.00  0.00    +0.430 HD
BRANCH   8  13
ATOM     13  C   LIG    1       -1.552   4.258   0.045  0.00  0.00    +0.010 A 
ATOM     14  C   LIG    1       -2.705   4.282   0.827  0.00  0.00    +0.040 A 
ATOM     15  C   LIG    1       -3.501   5.410   0.844  0.00  0.00    +0.010 A 
ATOM     16  C   LIG    1       -3.162   6.511   0.079  0.00  0.00    +0.030 A 
ATOM     17  C   LIG    1       -2.022   6.491  -0.705  0.00  0.00    +0.030 A 
ATOM     18  C   LIG    1       -1.215   5.370  -0.725  0.00  0.00    -0.010 A 
ATOM     19 CL   LIG    1        0.216   5.346  -1.708  0.00  0.00    -0.050 Cl
ENDBRANCH   8  13
ENDBRANCH   1  10
BRANCH   4  20
ATOM     20  C   LIG    1        5.108  -1.137   0.243  0.00  0.00    -0.030 A 
ATOM     21  C   LIG    1        6.229  -1.189  -0.587  0.00  0.00    +0.100 A 
ATOM     22  C   LIG    1        7.027  -2.315  -0.597  0.00  0.00    +0.010 A 
ATOM     23  C   LIG    1        6.713  -3.399   0.205  0.00  0.00    +0.080 A 
ATOM     24  C   LIG    1        5.602  -3.361   1.028  0.00  0.00    -0.050 A 
ATOM     25  C   LIG    1        4.795  -2.237   1.053  0.00  0.00    +0.130 A 
BRANCH  25  26
ATOM     26  O   LIG    1        3.703  -2.199   1.861  0.00  0.00    -0.300 OA
BRANCH  26  27
ATOM     27  C   LIG    1        3.446  -3.357   2.659  0.00  0.00    +0.600 C 
ATOM     28  F   LIG    1        3.259  -4.465   1.826  0.00  0.00    -0.160 F 
ATOM     29  F   LIG    1        2.294  -3.149   3.425  0.00  0.00    -0.130 F 
ATOM     30  F   LIG    1        4.534  -3.589   3.507  0.00  0.00    -0.160 F 
ENDBRANCH  26  27
ENDBRANCH  25  26
ENDBRANCH   4  20
TORSDOF 5
