REMARK  Name = ZINCtV00000tRSZV.1
REMARK                            x       y       z     vdW  Elec       q    Type
REMARK                         _______ _______ _______ _____ _____    ______ ____
ROOT
ATOM      1  C   LIG    1       -4.446  -1.929  -1.302  0.00  0.00    +0.050 A 
ATOM      2  C   LIG    1       -5.443  -2.763  -0.882  0.00  0.00    +0.030 A 
ATOM      3  C   LIG    1       -6.417  -2.776  -1.889  0.00  0.00    -0.020 A 
ATOM      4  C   LIG    1       -5.971  -1.958  -2.885  0.00  0.00    +0.040 A 
ATOM      5  O   LIG    1       -4.779  -1.451  -2.519  0.00  0.00    -0.160 OA
ENDROOT
BRANCH   1  11
ATOM      6  C   LIG    1       -1.002  -1.878   2.295  0.00  0.00    +0.150 C 
ATOM      7  C   LIG    1       -1.716  -1.584   1.001  0.00  0.00    +0.050 A 
ATOM      8  C   LIG    1       -1.265  -0.763   0.009  0.00  0.00    +0.020 A 
ATOM      9  N   LIG    1       -2.223  -0.775  -0.982  0.00  0.00    -0.550 N 
ATOM     10  H   LIG    1       -2.195  -0.286  -1.819  0.00  0.00    +0.420 HD
ATOM     11  C   LIG    1       -3.220  -1.611  -0.559  0.00  0.00    +0.290 A 
ATOM     12  N   LIG    1       -2.897  -2.081   0.631  0.00  0.00    -0.450 NA
BRANCH   8  13
ATOM     13  C   LIG    1        0.002  -0.004   0.002  0.00  0.00    -0.020 A 
ATOM     14  C   LIG    1       -0.017   1.392   0.010  0.00  0.00    +0.040 A 
ATOM     15  C   LIG    1        1.170   2.095   0.002  0.00  0.00    +0.020 A 
ATOM     16  C   LIG    1        2.378   1.420  -0.013  0.00  0.00    +0.040 A 
ATOM     17  C   LIG    1        2.405   0.037  -0.021  0.00  0.00    +0.030 A 
ATOM     18  C   LIG    1        1.225  -0.680  -0.013  0.00  0.00    -0.020 A 
ATOM     19 CL   LIG    1        1.261  -2.415  -0.024  0.00  0.00    -0.050 Cl
ENDBRANCH   8  13
ENDBRANCH   1  11
BRANCH   4  20
ATOM     20  C   LIG    1       -6.676  -1.675  -4.150  0.00  0.00    -0.030 A 
ATOM     21  C   LIG    1       -7.159  -2.725  -4.934  0.00  0.00    +0.100 A 
ATOM     22  C   LIG    1       -7.822  -2.454  -6.113  0.00  0.00    +0.010 A 
ATOM     23  C   LIG    1       -8.001  -1.147  -6.529  0.00  0.00    +0.080 A 
ATOM     24  C   LIG    1       -7.522  -0.098  -5.764  0.00  0.00    -0.050 A 
ATOM     25  C   LIG    1       -6.860  -0.352  -4.575  0.00  0.00    +0.130 A 
BRANCH  25  26
ATOM     26  O   LIG    1       -6.390   0.676  -3.823  0.00  0.00    -0.300 OA
BRANCH  26  27
ATOM     27  C   LIG    1       -6.614   1.998  -4.319  0.00  0.00    +0.600 C 
ATOM     28  F   LIG    1       -6.003   2.137  -5.569  0.00  0.00    -0.160 F 
ATOM     29  F   LIG    1       -6.070   2.929  -3.427  0.00  0.00    -0.130 F 
ATOM     30  F   LIG    1       -7.990   2.221  -4.445  0.00  0.00    -0.160 F 
ENDBRANCH  26  27
ENDBRANCH  25  26
ENDBRANCH   4  20
TORSDOF 5
