REMARK  Name = ZINCkj000005jbsg.0
REMARK                            x       y       z     vdW  Elec       q    Type
REMARK                         _______ _______ _______ _____ _____    ______ ____
ROOT
ATOM      1  N   LIG    1       -0.881   3.056   1.205  0.00  0.00    -0.380 N 
ATOM      2  C   LIG    1       -0.822   1.588   1.204  0.00  0.00    +0.280 C 
ATOM      3  C   LIG    1       -0.221   1.102  -0.117  0.00  0.00    +0.200 C 
ATOM      4  N   LIG    1       -1.050   1.578  -1.233  0.00  0.00    -0.530 NA
ATOM      5  C   LIG    1       -1.138   3.045  -1.230  0.00  0.00    +0.210 C 
ATOM      6  C   LIG    1       -1.732   3.515   0.100  0.00  0.00    +0.270 C 
ATOM      7  H   LIG    1        0.050   3.429   1.090  0.00  0.00    +0.430 HD
ENDROOT
BRANCH   1   8
ATOM      8  C   LIG    1       -1.441   3.522   2.480  0.00  0.00    +0.280 C 
BRANCH   8  10
ATOM      9  C   LIG    1       -1.959   5.536   3.866  0.00  0.00    +0.050 C 
ATOM     10  C   LIG    1       -1.369   5.049   2.541  0.00  0.00    +0.160 C 
BRANCH  10  11
ATOM     11  O   LIG    1       -0.005   5.466   2.445  0.00  0.00    -0.580 OA
ATOM     12  H   LIG    1        0.116   6.425   2.477  0.00  0.00    +0.410 HD
ENDBRANCH  10  11
ENDBRANCH   8  10
ENDBRANCH   1   8
BRANCH   4  13
ATOM     13  C   LIG    1       -0.537   1.084  -2.518  0.00  0.00    +0.190 C 
BRANCH  13  14
ATOM     14  C   LIG    1       -1.263   1.792  -3.664  0.00  0.00    +0.260 C 
BRANCH  14  15
ATOM     15  C   LIG    1       -0.737   1.285  -4.981  0.00  0.00    -0.120 A 
ATOM     16  C   LIG    1       -1.390   0.260  -5.639  0.00  0.00    +0.030 A 
ATOM     17  C   LIG    1       -0.907  -0.205  -6.848  0.00  0.00    +0.030 A 
ATOM     18  C   LIG    1        0.230   0.354  -7.400  0.00  0.00    +0.040 A 
ATOM     19  C   LIG    1        0.885   1.379  -6.743  0.00  0.00    +0.040 A 
ATOM     20  C   LIG    1        0.399   1.849  -5.536  0.00  0.00    -0.030 A 
ATOM     21 CL   LIG    1        1.216   3.142  -4.715  0.00  0.00    -0.070 Cl
ENDBRANCH  14  15
BRANCH  14  22
ATOM     22  O   LIG    1       -2.664   1.525  -3.576  0.00  0.00    -0.540 OA
ATOM     23  H   LIG    1       -2.890   0.586  -3.632  0.00  0.00    +0.380 HD
ENDBRANCH  14  22
ENDBRANCH  13  14
ENDBRANCH   4  13
TORSDOF 7
