REMARK  Name = ZINCpk00000xIh1A.0
REMARK                            x       y       z     vdW  Elec       q    Type
REMARK                         _______ _______ _______ _____ _____    ______ ____
ROOT
ATOM      1  C   LIG    1       -2.509   2.802   3.130  0.00  0.00    -0.230 A 
ATOM      2  C   LIG    1       -1.352   2.342   3.651  0.00  0.00    +0.000 A 
ATOM      3  C   LIG    1       -0.456   1.877   2.697  0.00  0.00    -0.000 A 
ATOM      4  C   LIG    1       -0.908   1.982   1.410  0.00  0.00    -0.780 A 
ATOM      5  C   LIG    1       -1.063   2.328   5.130  0.00  0.00    +0.150 C 
ATOM      6  S   LIG    1       -2.475   2.655   1.379  0.00  0.00    +0.410 S 
ENDROOT
BRANCH   4   7
ATOM      7  S   LIG    1       -0.002   1.483  -0.016  0.00  0.00    +2.700 S 
ATOM      8  O   LIG    1        1.095   2.380  -0.129  0.00  0.00    -0.920 OA
ATOM      9  O   LIG    1        0.154   0.074   0.080  0.00  0.00    -0.920 OA
BRANCH   7  10
ATOM     10  N   LIG    1       -0.968   1.758  -1.333  0.00  0.00    -1.000 NA
ATOM     11  C   LIG    1       -1.019   3.084  -1.970  0.00  0.00    +0.280 C 
ATOM     12  C   LIG    1       -0.801   2.898  -3.480  0.00  0.00    +0.150 C 
ATOM     13  O   LIG    1       -1.723   1.921  -3.971  0.00  0.00    -0.360 OA
ATOM     14  C   LIG    1       -1.552   0.619  -3.406  0.00  0.00    +0.200 C 
ATOM     15  C   LIG    1       -0.125   0.132  -3.664  0.00  0.00    +0.020 C 
ATOM     16  C   LIG    1       -1.036   4.228  -4.198  0.00  0.00    +0.070 C 
ATOM     17  C   LIG    1       -1.805   0.687  -1.895  0.00  0.00    +0.280 C 
ENDBRANCH   7  10
ENDBRANCH   4   7
BRANCH   1  18
ATOM     18  C   LIG    1       -3.627   3.342   3.908  0.00  0.00    +0.540 C 
ATOM     19  O   LIG    1       -3.552   3.402   5.120  0.00  0.00    -0.480 OA
BRANCH  18  21
ATOM     20  C   LIG    1       -5.807   4.298   4.113  0.00  0.00    +0.290 C 
ATOM     21  O   LIG    1       -4.739   3.774   3.279  0.00  0.00    -0.360 OA
ENDBRANCH  18  21
ENDBRANCH   1  18
BRANCH   3  22
ATOM     22  C   LIG    1        0.864   1.325   3.039  0.00  0.00    +0.500 C 
ATOM     23  O   LIG    1        1.830   2.059   3.111  0.00  0.00    -0.460 OA
BRANCH  22  24
ATOM     24  O   LIG    1        1.003   0.005   3.274  0.00  0.00    -0.340 OA
ATOM     25  C   LIG    1        2.334  -0.470   3.606  0.00  0.00    +0.280 C 
ENDBRANCH  22  24
ENDBRANCH   3  22
TORSDOF 6
