REMARK  Name = ZINCrD0000073PuI.0
REMARK                            x       y       z     vdW  Elec       q    Type
REMARK                         _______ _______ _______ _____ _____    ______ ____
ROOT
ATOM      1  C   LIG    1        1.472   1.369  -2.010  0.00  0.00    +0.030 C 
ATOM      2  C   LIG    1        0.012   1.030  -2.319  0.00  0.00    +0.180 C 
ENDROOT
BRANCH   2   3
ATOM      3  N   LIG    1       -0.851   1.570  -1.259  0.00  0.00    -0.520 NA
ATOM      4  C   LIG    1       -0.332   1.222   0.071  0.00  0.00    +0.200 C 
ATOM      5  C   LIG    1       -1.298   1.733   1.143  0.00  0.00    +0.200 C 
ATOM      6  N   LIG    1       -1.454   3.188   1.005  0.00  0.00    -0.490 N 
ATOM      7  C   LIG    1       -1.973   3.535  -0.326  0.00  0.00    +0.200 C 
ATOM      8  C   LIG    1       -1.006   3.025  -1.397  0.00  0.00    +0.200 C 
BRANCH   6   9
ATOM      9  C   LIG    1       -2.274   3.701   2.012  0.00  0.00    +0.110 A 
ATOM     10  C   LIG    1       -3.405   4.436   1.681  0.00  0.00    -0.040 A 
ATOM     11  C   LIG    1       -4.217   4.938   2.680  0.00  0.00    +0.030 A 
ATOM     12  C   LIG    1       -3.898   4.718   4.008  0.00  0.00    -0.030 A 
ATOM     13  C   LIG    1       -2.770   3.991   4.340  0.00  0.00    +0.030 A 
ATOM     14  C   LIG    1       -1.957   3.482   3.347  0.00  0.00    -0.020 A 
ENDBRANCH   6   9
ENDBRANCH   2   3
BRANCH   2  15
ATOM     15  C   LIG    1       -0.153  -0.466  -2.388  0.00  0.00    +0.520 C 
ATOM     16  N   LIG    1        0.312  -1.147  -3.453  0.00  0.00    -0.670 N 
ATOM     17  H   LIG    1        0.808  -0.683  -4.147  0.00  0.00    +0.420 HD
ATOM     18  O   LIG    1       -0.705  -1.057  -1.484  0.00  0.00    -0.490 OA
BRANCH  16  19
ATOM     19  C   LIG    1        0.081  -2.523  -3.560  0.00  0.00    +0.170 A 
ATOM     20  C   LIG    1       -0.070  -3.294  -2.415  0.00  0.00    +0.130 A 
ATOM     21  C   LIG    1       -0.303  -4.652  -2.524  0.00  0.00    -0.020 A 
ATOM     22  C   LIG    1       -0.375  -5.245  -3.770  0.00  0.00    +0.110 A 
ATOM     23  C   LIG    1       -0.219  -4.482  -4.913  0.00  0.00    +0.080 A 
ATOM     24  C   LIG    1        0.009  -3.123  -4.812  0.00  0.00    -0.030 A 
ATOM     25 CL   LIG    1        0.205  -2.165  -6.247  0.00  0.00    -0.030 Cl
BRANCH  21  26
ATOM     26  N   LIG    1       -0.469  -5.473  -1.303  0.00  0.00    +0.030 N 
ATOM     27  O   LIG    1       -0.406  -4.950  -0.205  0.00  0.00    -0.140 OA
ATOM     28  O   LIG    1       -0.670  -6.670  -1.398  0.00  0.00    -0.150 OA
ENDBRANCH  21  26
ENDBRANCH  16  19
ENDBRANCH   2  15
TORSDOF 5
