REMARK  Name = ZINCpe000000Uz4S.0
REMARK                            x       y       z     vdW  Elec       q    Type
REMARK                         _______ _______ _______ _____ _____    ______ ____
ROOT
ATOM      1  C   LIG    1        5.010   0.548  -1.709  0.00  0.00    +0.210 C 
ATOM      2  N   LIG    1        4.838   1.168  -0.388  0.00  0.00    -0.500 NA
ENDROOT
BRANCH   2   3
ATOM      3  C   LIG    1        3.688   2.082  -0.382  0.00  0.00    +0.300 C 
BRANCH   3   4
ATOM      4  C   LIG    1        2.418   1.294  -0.576  0.00  0.00    +0.430 A 
ATOM      5  N   LIG    1        2.504   0.004  -0.714  0.00  0.00    -0.490 NA
ATOM      6  C   LIG    1        1.417  -0.764  -0.891  0.00  0.00    +0.330 A 
ATOM      7  C   LIG    1        0.151  -0.159  -0.930  0.00  0.00    -0.350 A 
ATOM      8  C   LIG    1        0.076   1.293  -0.772  0.00  0.00    +0.580 A 
ATOM      9  O   LIG    1       -0.993   1.877  -0.801  0.00  0.00    -0.520 OA
ATOM     10  C   LIG    1       -0.795  -1.183  -1.124  0.00  0.00    +0.330 A 
ATOM     11  N   LIG    1       -0.160  -2.320  -1.199  0.00  0.00    -0.270 NA
ATOM     12  N   LIG    1        1.216  -2.097  -1.058  0.00  0.00    -0.350 N 
ATOM     13  C   LIG    1        2.259  -3.125  -1.087  0.00  0.00    +0.370 C 
ATOM     14  N   LIG    1        1.238   1.964  -0.599  0.00  0.00    -0.650 N 
ATOM     15  H   LIG    1        1.228   2.928  -0.492  0.00  0.00    +0.420 HD
ENDBRANCH   3   4
ENDBRANCH   2   3
BRANCH   2  16
ATOM     16  C   LIG    1        6.063   1.860   0.032  0.00  0.00    +0.220 C 
BRANCH  16  17
ATOM     17  C   LIG    1        7.161   0.850   0.250  0.00  0.00    +0.520 C 
ATOM     18  N   LIG    1        8.384   1.258   0.642  0.00  0.00    -0.680 N 
ATOM     19  H   LIG    1        8.580   2.206   0.710  0.00  0.00    +0.410 HD
ATOM     20  O   LIG    1        6.943  -0.330   0.072  0.00  0.00    -0.490 OA
BRANCH  18  21
ATOM     21  C   LIG    1        9.370   0.316   0.951  0.00  0.00    +0.180 A 
ATOM     22  C   LIG    1        9.017  -0.897   1.527  0.00  0.00    +0.010 A 
ATOM     23  C   LIG    1        9.992  -1.830   1.826  0.00  0.00    +0.070 A 
ATOM     24  C   LIG    1       11.320  -1.552   1.563  0.00  0.00    -0.030 A 
ATOM     25  C   LIG    1       11.678  -0.341   0.994  0.00  0.00    +0.120 A 
ATOM     26  F   LIG    1       12.976  -0.072   0.738  0.00  0.00    -0.140 F 
ATOM     27  C   LIG    1       10.705   0.594   0.687  0.00  0.00    -0.040 A 
ENDBRANCH  18  21
ENDBRANCH  16  17
ENDBRANCH   2  16
TORSDOF 5
