REMARK  Name = ZINCpe000000Uiks.0
REMARK                            x       y       z     vdW  Elec       q    Type
REMARK                         _______ _______ _______ _____ _____    ______ ____
ROOT
ATOM      1  C   LIG    1       -1.226   1.760   0.017  0.00  0.00    -0.060 A 
ATOM      2  C   LIG    1       -1.249   3.157   0.031  0.00  0.00    +0.020 A 
ATOM      3  C   LIG    1       -0.070   3.871   0.024  0.00  0.00    +0.130 A 
ATOM      4  C   LIG    1        1.147   3.194   0.008  0.00  0.00    -0.170 A 
ATOM      5  C   LIG    1        2.434   3.917  -0.001  0.00  0.00    +0.560 A 
ATOM      6  N   LIG    1        3.574   3.194  -0.016  0.00  0.00    -0.560 N 
ATOM      7  C   LIG    1        3.549   1.853  -0.023  0.00  0.00    +0.710 A 
ATOM      8  N   LIG    1        2.406   1.146  -0.015  0.00  0.00    -0.640 N 
ATOM      9  H   LIG    1        2.441   0.176  -0.021  0.00  0.00    +0.440 HD
ATOM     10  O   LIG    1        4.605   1.250  -0.037  0.00  0.00    -0.530 OA
ATOM     11  O   LIG    1        2.466   5.133   0.005  0.00  0.00    -0.480 OA
ATOM     12  C   LIG    1        1.175   1.788   0.000  0.00  0.00    +0.190 A 
ATOM     13  C   LIG    1       -0.013   1.076   0.008  0.00  0.00    +0.050 A 
ENDROOT
BRANCH   1  16
ATOM     14  N   LIG    1       -3.675   1.661   0.028  0.00  0.00    -0.720 N 
ATOM     15  H   LIG    1       -3.688   2.630   0.034  0.00  0.00    +0.400 HD
ATOM     16  C   LIG    1       -2.499   1.002   0.019  0.00  0.00    +0.550 C 
ATOM     17  O   LIG    1       -2.482  -0.213   0.012  0.00  0.00    -0.530 OA
BRANCH  14  18
ATOM     18  C   LIG    1       -4.934   0.911   0.029  0.00  0.00    +0.360 C 
BRANCH  18  21
ATOM     19  N   LIG    1       -7.692   3.208  -0.616  0.00  0.00    -0.370 N 
ATOM     20  C   LIG    1       -6.709   2.391  -1.048  0.00  0.00    +0.260 A 
ATOM     21  C   LIG    1       -6.092   1.875   0.040  0.00  0.00    -0.270 A 
ATOM     22  C   LIG    1       -6.723   2.390   1.177  0.00  0.00    +0.240 A 
ATOM     23  N   LIG    1       -7.678   3.194   0.785  0.00  0.00    -0.290 NA
BRANCH  19  25
ATOM     24  C   LIG    1      -10.054   3.637  -1.081  0.00  0.00    +0.040 C 
ATOM     25  C   LIG    1       -8.611   3.974  -1.461  0.00  0.00    +0.320 C 
ENDBRANCH  19  25
ENDBRANCH  18  21
ENDBRANCH  14  18
ENDBRANCH   1  16
BRANCH   6  26
ATOM     26  C   LIG    1        4.864   3.888  -0.025  0.00  0.00    +0.300 C 
ATOM     27  C   LIG    1        5.328   4.122   1.414  0.00  0.00    +0.030 C 
ENDBRANCH   6  26
TORSDOF 5
