REMARK  Name = ZINCqH0000000rhS.0
REMARK                            x       y       z     vdW  Elec       q    Type
REMARK                         _______ _______ _______ _____ _____    ______ ____
ROOT
ATOM      1  C   LIG    1        1.370   3.977  -1.293  0.00  0.00    +0.060 C 
ENDROOT
BRANCH   1   2
ATOM      2  C   LIG    1        2.759   4.562  -1.305  0.00  0.00    +0.510 C 
ATOM      3  N   LIG    1        3.329   4.920  -2.473  0.00  0.00    -0.730 N 
ATOM      4  H   LIG    1        2.846   4.800  -3.305  0.00  0.00    +0.400 HD
ATOM      5  O   LIG    1        3.363   4.712  -0.264  0.00  0.00    -0.520 OA
BRANCH   3   6
ATOM      6  C   LIG    1        4.679   5.490  -2.484  0.00  0.00    +0.310 C 
BRANCH   6   7
ATOM      7  C   LIG    1        5.132   5.698  -3.931  0.00  0.00    -0.110 C 
ATOM      8  C   LIG    1        5.773   7.041  -4.284  0.00  0.00    +0.050 C 
ATOM      9  C   LIG    1        4.360   6.716  -4.773  0.00  0.00    +0.030 C 
BRANCH   7  10
ATOM     10  C   LIG    1        5.657   4.471  -4.630  0.00  0.00    -0.050 A 
ATOM     11  C   LIG    1        4.976   3.949  -5.715  0.00  0.00    +0.010 A 
ATOM     12  C   LIG    1        5.460   2.826  -6.360  0.00  0.00    +0.000 A 
ATOM     13  C   LIG    1        6.619   2.219  -5.914  0.00  0.00    +0.000 A 
ATOM     14  C   LIG    1        7.296   2.737  -4.826  0.00  0.00    +0.000 A 
ATOM     15  C   LIG    1        6.815   3.863  -4.184  0.00  0.00    +0.010 A 
ENDBRANCH   7  10
ENDBRANCH   6   7
ENDBRANCH   3   6
ENDBRANCH   1   2
BRANCH   1  16
ATOM     16  C   LIG    1        0.963   3.660   0.148  0.00  0.00    +0.310 C 
BRANCH  16  17
ATOM     17  C   LIG    1       -0.373   2.963   0.150  0.00  0.00    -0.100 A 
ATOM     18  C   LIG    1       -0.443   1.605   0.403  0.00  0.00    +0.040 A 
ATOM     19  C   LIG    1       -1.668   0.965   0.405  0.00  0.00    +0.030 A 
ATOM     20  C   LIG    1       -2.824   1.681   0.148  0.00  0.00    -0.030 A 
ATOM     21  C   LIG    1       -2.753   3.041  -0.099  0.00  0.00    +0.020 A 
ATOM     22 CL   LIG    1       -4.362   0.876   0.144  0.00  0.00    -0.070 Cl
ATOM     23  C   LIG    1       -1.528   3.680  -0.101  0.00  0.00    +0.040 A 
ENDBRANCH  16  17
BRANCH  16  26
ATOM     24  C   LIG    1        0.731   6.142   3.051  0.00  0.00    +0.100 C 
ATOM     25  C   LIG    1        0.949   4.880   2.257  0.00  0.00    +0.520 C 
ATOM     26  N   LIG    1        0.864   4.906   0.912  0.00  0.00    -0.720 N 
ATOM     27  H   LIG    1        0.739   5.750   0.451  0.00  0.00    +0.400 HD
ATOM     28  O   LIG    1        1.199   3.840   2.829  0.00  0.00    -0.540 OA
ENDBRANCH  16  26
ENDBRANCH   1  16
TORSDOF 7
