REMARK  Name = ZINCrg00001JduUB.0
REMARK                            x       y       z     vdW  Elec       q    Type
REMARK                         _______ _______ _______ _____ _____    ______ ____
ROOT
ATOM      1  N   LIG    1        0.101  -0.570  -1.458  0.00  0.00    -0.530 NA
ATOM      2  C   LIG    1       -1.070  -0.153  -2.242  0.00  0.00    +0.180 C 
ATOM      3  C   LIG    1       -0.879  -0.571  -3.702  0.00  0.00    +0.190 C 
ATOM      4  N   LIG    1       -0.693  -2.028  -3.771  0.00  0.00    -0.520 NA
ATOM      5  C   LIG    1        0.478  -2.444  -2.987  0.00  0.00    +0.190 C 
ATOM      6  C   LIG    1        0.286  -2.026  -1.527  0.00  0.00    +0.180 C 
ENDROOT
BRANCH   1   7
ATOM      7  C   LIG    1       -0.011  -0.119  -0.065  0.00  0.00    +0.210 C 
BRANCH   7   9
ATOM      8  C   LIG    1        1.381   2.088   0.014  0.00  0.00    +0.080 C 
ATOM      9  C   LIG    1        0.047   1.386  -0.018  0.00  0.00    -0.100 C 
ATOM     10  C   LIG    1       -1.074   2.093  -0.009  0.00  0.00    -0.010 C 
BRANCH  10  11
ATOM     11  C   LIG    1       -1.021   3.565  -0.134  0.00  0.00    -0.050 A 
ATOM     12  C   LIG    1       -1.963   4.358   0.523  0.00  0.00    +0.010 A 
ATOM     13  C   LIG    1       -1.904   5.732   0.407  0.00  0.00    +0.000 A 
ATOM     14  C   LIG    1       -0.921   6.323  -0.366  0.00  0.00    +0.000 A 
ATOM     15  C   LIG    1        0.012   5.542  -1.025  0.00  0.00    +0.000 A 
ATOM     16  C   LIG    1       -0.033   4.167  -0.913  0.00  0.00    +0.020 A 
ENDBRANCH  10  11
ENDBRANCH   7   9
ENDBRANCH   1   7
BRANCH   4  17
ATOM     17  C   LIG    1       -0.582  -2.478  -5.165  0.00  0.00    +0.220 C 
BRANCH  17  18
ATOM     18  C   LIG    1       -1.893  -2.253  -5.872  0.00  0.00    +0.520 C 
ATOM     19  N   LIG    1       -2.026  -2.594  -7.169  0.00  0.00    -0.730 N 
ATOM     20  H   LIG    1       -1.278  -2.985  -7.647  0.00  0.00    +0.400 HD
ATOM     21  O   LIG    1       -2.829  -1.765  -5.274  0.00  0.00    -0.510 OA
BRANCH  19  22
ATOM     22  C   LIG    1       -3.301  -2.376  -7.857  0.00  0.00    +0.270 C 
ATOM     23  C   LIG    1       -3.351  -0.940  -8.410  0.00  0.00    +0.050 C 
ATOM     24  C   LIG    1       -4.551  -0.883  -9.388  0.00  0.00    -0.300 C 
ATOM     25  S   LIG    1       -4.391  -2.461 -10.305  0.00  0.00    +2.400 S 
ATOM     26  O   LIG    1       -5.673  -3.061 -10.439  0.00  0.00    -0.930 OA
ATOM     27  O   LIG    1       -3.579  -2.259 -11.454  0.00  0.00    -0.930 OA
ATOM     28  C   LIG    1       -3.430  -3.361  -9.035  0.00  0.00    -0.320 C 
ENDBRANCH  19  22
ENDBRANCH  17  18
ENDBRANCH   4  17
TORSDOF 6
