REMARK  Name = ZINCpe00000MJLoe.2
REMARK                            x       y       z     vdW  Elec       q    Type
REMARK                         _______ _______ _______ _____ _____    ______ ____
ROOT
ATOM      1  C   LIG    1       -4.231   0.935   2.981  0.00  0.00    -0.010 C 
ATOM      2  C   LIG    1       -3.583  -0.118   3.883  0.00  0.00    +0.020 C 
ATOM      3  C   LIG    1       -2.700  -1.035   3.032  0.00  0.00    +0.030 C 
ATOM      4  C   LIG    1       -1.650  -0.192   2.305  0.00  0.00    +0.170 C 
ATOM      5  N   LIG    1       -2.320   0.800   1.455  0.00  0.00    -0.510 NA
ATOM      6  C   LIG    1       -3.136   1.721   2.255  0.00  0.00    +0.230 C 
ENDROOT
BRANCH   6   7
ATOM      7  C   LIG    1       -3.770   2.746   1.351  0.00  0.00    +0.100 A 
ATOM      8  C   LIG    1       -3.578   4.085   1.404  0.00  0.00    -0.130 A 
ATOM      9  C   LIG    1       -4.346   4.670   0.392  0.00  0.00    +0.230 A 
ATOM     10  N   LIG    1       -4.982   3.718  -0.241  0.00  0.00    -0.290 NA
ATOM     11  N   LIG    1       -4.635   2.494   0.346  0.00  0.00    -0.350 N 
ATOM     12  C   LIG    1       -5.125   1.175  -0.059  0.00  0.00    +0.340 C 
ENDBRANCH   6   7
BRANCH   5  13
ATOM     13  C   LIG    1       -1.346   1.536   0.637  0.00  0.00    +0.100 C 
ATOM     14  C   LIG    1       -0.377   0.715  -0.217  0.00  0.00    +0.030 C 
ATOM     15  C   LIG    1       -1.519   1.486  -0.883  0.00  0.00    +0.030 C 
ENDBRANCH   5  13
BRANCH   1  16
ATOM     16  C   LIG    1       -5.068   1.892   3.832  0.00  0.00    +0.290 C 
BRANCH  16  18
ATOM     17  C   LIG    1       -7.061   1.803   5.231  0.00  0.00    +0.600 C 
ATOM     18  N   LIG    1       -6.185   1.160   4.435  0.00  0.00    -0.710 N 
ATOM     19  H   LIG    1       -6.293   0.212   4.261  0.00  0.00    +0.400 HD
ATOM     20  O   LIG    1       -6.977   3.008   5.380  0.00  0.00    -0.530 OA
BRANCH  17  26
ATOM     21  C   LIG    1       -9.370   2.976   6.975  0.00  0.00    +0.390 C 
ATOM     22  N   LIG    1       -9.136   1.559   6.688  0.00  0.00    -0.250 N 
ATOM     23  N   LIG    1       -9.849   0.573   7.107  0.00  0.00    -0.050 NA
ATOM     24  N   LIG    1       -9.373  -0.543   6.683  0.00  0.00    -0.270 NA
ATOM     25  C   LIG    1       -8.293  -0.310   5.937  0.00  0.00    +0.200 A 
ATOM     26  C   LIG    1       -8.120   1.049   5.921  0.00  0.00    -0.080 A 
ENDBRANCH  17  26
ENDBRANCH  16  18
ENDBRANCH   1  16
TORSDOF 5
