REMARK  Name = ZINCrD00000F5LDX.0
REMARK                            x       y       z     vdW  Elec       q    Type
REMARK                         _______ _______ _______ _____ _____    ______ ____
ROOT
ATOM      1  N   LIG    1       -2.750  -3.361   2.846  0.00  0.00    -0.600 N 
ATOM      2  C   LIG    1       -3.775  -2.712   3.434  0.00  0.00    +0.550 C 
ATOM      3  O   LIG    1       -4.907  -3.130   3.311  0.00  0.00    -0.530 OA
ENDROOT
BRANCH   2   4
ATOM      4  C   LIG    1       -3.514  -1.469   4.244  0.00  0.00    -0.080 C 
ATOM      5  C   LIG    1       -3.725  -1.554   5.757  0.00  0.00    +0.080 C 
ATOM      6  C   LIG    1       -4.719  -0.779   4.888  0.00  0.00    +0.200 C 
ATOM      7  F   LIG    1       -4.697   0.617   4.970  0.00  0.00    -0.180 F 
ENDBRANCH   2   4
BRANCH   1   8
ATOM      8  C   LIG    1       -3.003  -4.570   2.059  0.00  0.00    +0.360 C 
BRANCH   8  13
ATOM      9  C   LIG    1       -2.556  -9.180   5.439  0.00  0.00    +0.140 C 
ATOM     10  C   LIG    1       -2.699  -7.967   4.556  0.00  0.00    +0.150 A 
ATOM     11  N   LIG    1       -1.644  -7.494   3.923  0.00  0.00    -0.470 NA
ATOM     12  C   LIG    1       -1.723  -6.438   3.136  0.00  0.00    +0.280 A 
ATOM     13  C   LIG    1       -2.924  -5.779   2.955  0.00  0.00    -0.160 A 
ATOM     14  C   LIG    1       -4.057  -6.247   3.604  0.00  0.00    +0.110 A 
ATOM     15  C   LIG    1       -3.937  -7.364   4.419  0.00  0.00    -0.090 A 
ATOM     16 CL   LIG    1       -5.321  -7.995   5.255  0.00  0.00    -0.050 Cl
ENDBRANCH   8  13
ENDBRANCH   1   8
BRANCH   1  17
ATOM     17  C   LIG    1       -1.383  -2.857   2.995  0.00  0.00    +0.300 C 
BRANCH  17  18
ATOM     18  C   LIG    1       -1.075  -1.875   1.863  0.00  0.00    +0.040 C 
BRANCH  18  19
ATOM     19  C   LIG    1        0.332  -1.357   2.016  0.00  0.00    +0.520 C 
ATOM     20  N   LIG    1        0.824  -0.472   1.126  0.00  0.00    -0.610 N 
ATOM     21  C   LIG    1        0.002  -0.004   0.002  0.00  0.00    +0.260 C 
ATOM     22  C   LIG    1       -0.019   1.528   0.010  0.00  0.00    +0.010 C 
ATOM     23  C   LIG    1        1.419   2.053  -0.001  0.00  0.00    +0.020 C 
ATOM     24  C   LIG    1        2.149   1.573   1.256  0.00  0.00    -0.040 C 
ATOM     25  C   LIG    1        3.575   2.127   1.260  0.00  0.00    +0.030 C 
ATOM     26  C   LIG    1        2.194   0.042   1.262  0.00  0.00    +0.270 C 
ATOM     27  O   LIG    1        1.020  -1.735   2.939  0.00  0.00    -0.540 OA
ENDBRANCH  18  19
ENDBRANCH  17  18
ENDBRANCH   1  17
TORSDOF 6
