REMARK  Name = ZINCpk000005D6yl.0
REMARK                            x       y       z     vdW  Elec       q    Type
REMARK                         _______ _______ _______ _____ _____    ______ ____
ROOT
ATOM      1  N   LIG    1       -0.307   0.027  -0.069  0.00  0.00    -0.710 N 
ATOM      2  H   LIG    1       -1.085  -0.337   0.383  0.00  0.00    +0.410 HD
ATOM      3  C   LIG    1        0.508  -0.788  -0.768  0.00  0.00    +0.490 C 
ATOM      4  O   LIG    1        1.480  -0.333  -1.333  0.00  0.00    -0.530 OA
ENDROOT
BRANCH   1   6
ATOM      5  C   LIG    1       -0.605   2.167  -1.214  0.00  0.00    +0.030 C 
ATOM      6  C   LIG    1       -0.018   1.461   0.010  0.00  0.00    +0.240 C 
BRANCH   6   7
ATOM      7  C   LIG    1       -0.643   2.038   1.281  0.00  0.00    -0.020 C 
ATOM      8  C   LIG    1       -0.052   3.396   1.702  0.00  0.00    +0.230 C 
ATOM      9  N   LIG    1       -0.088   2.872   3.085  0.00  0.00    -0.420 N 
ATOM     10  C   LIG    1       -0.034   1.482   2.580  0.00  0.00    +0.240 C 
BRANCH   9  11
ATOM     11  C   LIG    1        1.071   3.197   3.769  0.00  0.00    +0.460 A 
ATOM     12  N   LIG    1        2.027   2.287   3.890  0.00  0.00    -0.550 NA
ATOM     13  C   LIG    1        3.149   2.567   4.533  0.00  0.00    +0.340 A 
ATOM     14  C   LIG    1        3.312   3.825   5.091  0.00  0.00    -0.100 A 
ATOM     15  C   LIG    1        2.289   4.750   4.951  0.00  0.00    +0.340 A 
ATOM     16  N   LIG    1        1.195   4.408   4.291  0.00  0.00    -0.510 NA
ENDBRANCH   9  11
ENDBRANCH   6   7
ENDBRANCH   1   6
BRANCH   3  17
ATOM     17  C   LIG    1        0.210  -2.263  -0.849  0.00  0.00    +0.130 C 
ATOM     18  C   LIG    1        0.797  -2.969   0.375  0.00  0.00    +0.090 C 
BRANCH  17  19
ATOM     19  O   LIG    1       -1.204  -2.462  -0.881  0.00  0.00    -0.540 OA
ATOM     20  H   LIG    1       -1.644  -2.041  -1.633  0.00  0.00    +0.380 HD
ENDBRANCH  17  19
BRANCH  17  21
ATOM     21  C   LIG    1        0.836  -2.840  -2.120  0.00  0.00    +0.080 C 
BRANCH  21  22
ATOM     22  C   LIG    1        0.538  -4.316  -2.201  0.00  0.00    -0.080 A 
ATOM     23  C   LIG    1        1.412  -5.228  -1.640  0.00  0.00    +0.000 A 
ATOM     24  C   LIG    1        1.136  -6.581  -1.710  0.00  0.00    +0.000 A 
ATOM     25  C   LIG    1       -0.007  -7.022  -2.350  0.00  0.00    +0.000 A 
ATOM     26  C   LIG    1       -0.878  -6.109  -2.915  0.00  0.00    +0.000 A 
ATOM     27  C   LIG    1       -0.605  -4.756  -2.841  0.00  0.00    +0.020 A 
ENDBRANCH  21  22
ENDBRANCH  17  21
ENDBRANCH   3  17
TORSDOF 7
