REMARK  Name = ZINCrD000000BalE.0
REMARK                            x       y       z     vdW  Elec       q    Type
REMARK                         _______ _______ _______ _____ _____    ______ ____
ROOT
ATOM      1  C   LIG    1        1.492   0.043  -4.945  0.00  0.00    +0.220 A 
ATOM      2  C   LIG    1        0.568  -0.766  -4.296  0.00  0.00    +0.010 A 
ATOM      3  C   LIG    1       -0.154  -0.268  -3.229  0.00  0.00    +0.150 A 
ATOM      4  C   LIG    1        0.043   1.034  -2.807  0.00  0.00    -0.680 A 
ATOM      5  C   LIG    1        0.958   1.843  -3.454  0.00  0.00    +0.150 A 
ATOM      6  C   LIG    1        1.687   1.350  -4.518  0.00  0.00    -0.030 A 
ENDROOT
BRANCH   1   9
ATOM      7  O   LIG    1        0.497  -1.664  -6.729  0.00  0.00    -0.560 OA
ATOM      8  C   LIG    1        1.667  -1.359  -6.859  0.00  0.00    +0.700 C 
ATOM      9  N   LIG    1        2.225  -0.459  -6.027  0.00  0.00    -0.690 N 
ATOM     10  H   LIG    1        3.135  -0.158  -6.177  0.00  0.00    +0.410 HD
ATOM     11  N   LIG    1        2.405  -1.922  -7.836  0.00  0.00    -0.740 N 
ATOM     12  H   LIG    1        3.338  -1.679  -7.940  0.00  0.00    +0.400 HD
BRANCH  11  13
ATOM     13  C   LIG    1        1.798  -2.901  -8.741  0.00  0.00    +0.280 C 
BRANCH  13  14
ATOM     14  C   LIG    1        2.844  -3.381  -9.749  0.00  0.00    +0.020 C 
ATOM     15  C   LIG    1        3.263  -2.224 -10.691  0.00  0.00    +0.020 C 
ATOM     16  C   LIG    1        3.781  -2.970 -11.945  0.00  0.00    +0.020 C 
ATOM     17  C   LIG    1        2.828  -4.176 -12.090  0.00  0.00    +0.050 C 
ATOM     18  C   LIG    1        2.239  -4.433 -10.696  0.00  0.00    -0.120 C 
ATOM     19  C   LIG    1        0.796  -4.899 -10.524  0.00  0.00    +0.030 C 
ATOM     20  C   LIG    1        1.954  -5.850 -10.210  0.00  0.00    +0.020 C 
ENDBRANCH  13  14
ENDBRANCH  11  13
ENDBRANCH   1   9
BRANCH   4  21
ATOM     21  S   LIG    1       -0.881   1.665  -1.445  0.00  0.00    +2.500 S 
ATOM     22  O   LIG    1       -0.920   3.068  -1.669  0.00  0.00    -0.940 OA
ATOM     23  O   LIG    1       -2.072   0.891  -1.440  0.00  0.00    -0.920 OA
BRANCH  21  24
ATOM     24  C   LIG    1        0.135   1.281   0.008  0.00  0.00    -0.330 C 
BRANCH  24  25
ATOM     25  C   LIG    1       -0.569   1.785   1.270  0.00  0.00    +0.190 C 
ATOM     26  C   LIG    1        0.340   1.566   2.499  0.00  0.00    +0.030 C 
ATOM     27  C   LIG    1       -0.678   1.125   3.586  0.00  0.00    +0.010 C 
ATOM     28  C   LIG    1       -1.698   0.332   2.730  0.00  0.00    +0.210 C 
ATOM     29  O   LIG    1       -1.774   1.042   1.484  0.00  0.00    -0.370 OA
ENDBRANCH  24  25
ENDBRANCH  21  24
ENDBRANCH   4  21
TORSDOF 6
