REMARK  Name = ZINCrD00000l4JzZ.0
REMARK                            x       y       z     vdW  Elec       q    Type
REMARK                         _______ _______ _______ _____ _____    ______ ____
ROOT
ATOM      1  C   LIG    1       -0.567   1.717   2.654  0.00  0.00    +0.540 C 
ATOM      2  N   LIG    1       -1.233   2.082   3.767  0.00  0.00    -0.630 N 
ATOM      3  H   LIG    1       -2.082   2.547   3.694  0.00  0.00    +0.430 HD
ATOM      4  O   LIG    1        0.494   1.137   2.745  0.00  0.00    -0.460 OA
ENDROOT
BRANCH   2   5
ATOM      5  C   LIG    1       -0.705   1.793   5.020  0.00  0.00    +0.260 A 
ATOM      6  N   LIG    1        0.414   1.173   5.229  0.00  0.00    -0.470 NA
ATOM      7  C   LIG    1        0.768   0.986   6.486  0.00  0.00    +0.250 A 
ATOM      8  C   LIG    1       -0.099   1.460   7.383  0.00  0.00    -0.230 A 
ATOM      9  S   LIG    1       -1.441   2.196   6.510  0.00  0.00    +0.140 S 
BRANCH   8  10
ATOM     10  C   LIG    1        0.045   1.382   8.881  0.00  0.00    +0.190 C 
BRANCH  10  11
ATOM     11  C   LIG    1        0.776   2.601   9.380  0.00  0.00    -0.070 A 
ATOM     12  C   LIG    1        0.067   3.732   9.740  0.00  0.00    +0.020 A 
ATOM     13  C   LIG    1        0.737   4.851  10.199  0.00  0.00    +0.030 A 
ATOM     14  C   LIG    1        2.115   4.840  10.299  0.00  0.00    +0.020 A 
ATOM     15  C   LIG    1        2.825   3.708   9.939  0.00  0.00    -0.030 A 
ATOM     16 CL   LIG    1        4.557   3.692  10.064  0.00  0.00    -0.070 Cl
ATOM     17  C   LIG    1        2.154   2.586   9.485  0.00  0.00    +0.030 A 
ENDBRANCH  10  11
ENDBRANCH   8  10
ENDBRANCH   2   5
BRANCH   1  18
ATOM     18  C   LIG    1       -1.139   2.031   1.296  0.00  0.00    -0.340 C 
BRANCH  18  19
ATOM     19  S   LIG    1       -0.017   1.417   0.010  0.00  0.00    +2.640 S 
ATOM     20  O   LIG    1        1.190   2.166   0.002  0.00  0.00    -0.930 OA
ATOM     21  O   LIG    1        0.002  -0.004   0.002  0.00  0.00    -0.930 OA
BRANCH  19  26
ATOM     22  C   LIG    1       -0.712   1.798  -5.669  0.00  0.00    +0.030 C 
ATOM     23  C   LIG    1       -1.122   2.023  -4.212  0.00  0.00    -0.020 C 
ATOM     24  C   LIG    1       -0.056   2.864  -3.506  0.00  0.00    +0.020 C 
ATOM     25  C   LIG    1       -0.487   3.115  -2.058  0.00  0.00    +0.280 C 
ATOM     26  N   LIG    1       -0.759   1.823  -1.414  0.00  0.00    -1.000 NA
ATOM     27  C   LIG    1       -1.696   0.895  -2.061  0.00  0.00    +0.280 C 
ATOM     28  C   LIG    1       -1.257   0.671  -3.507  0.00  0.00    +0.020 C 
ENDBRANCH  19  26
ENDBRANCH  18  19
ENDBRANCH   1  18
TORSDOF 6
