REMARK  Name = ZINCqH0000007Egj.0
REMARK                            x       y       z     vdW  Elec       q    Type
REMARK                         _______ _______ _______ _____ _____    ______ ____
ROOT
ATOM      1  C   LIG    1       -4.761  -3.658  -2.830  0.00  0.00    +0.520 C 
ATOM      2  N   LIG    1       -5.999  -4.113  -3.106  0.00  0.00    -0.730 N 
ATOM      3  H   LIG    1       -6.569  -4.437  -2.390  0.00  0.00    +0.410 HD
ATOM      4  O   LIG    1       -4.050  -3.254  -3.725  0.00  0.00    -0.510 OA
ENDROOT
BRANCH   2   5
ATOM      5  C   LIG    1       -6.485  -4.120  -4.488  0.00  0.00    +0.350 C 
ATOM      6  C   LIG    1       -7.072  -2.749  -4.829  0.00  0.00    +0.050 C 
BRANCH   5   7
ATOM      7  C   LIG    1       -7.551  -5.174  -4.641  0.00  0.00    +0.020 A 
ATOM      8  C   LIG    1       -7.688  -5.978  -5.705  0.00  0.00    -0.030 A 
ATOM      9  C   LIG    1       -8.844  -6.837  -5.422  0.00  0.00    -0.130 A 
ATOM     10  C   LIG    1       -9.489  -7.862  -6.113  0.00  0.00    +0.060 A 
ATOM     11  C   LIG    1      -10.584  -8.479  -5.549  0.00  0.00    +0.000 A 
ATOM     12  C   LIG    1      -11.044  -8.084  -4.301  0.00  0.00    +0.050 A 
ATOM     13  C   LIG    1      -10.415  -7.072  -3.607  0.00  0.00    +0.020 A 
ATOM     14  C   LIG    1       -9.309  -6.437  -4.158  0.00  0.00    +0.060 A 
ATOM     15  O   LIG    1       -8.505  -5.441  -3.732  0.00  0.00    -0.190 OA
ENDBRANCH   5   7
ENDBRANCH   2   5
BRANCH   1  16
ATOM     16  C   LIG    1       -4.261  -3.652  -1.408  0.00  0.00    +0.220 C 
BRANCH  16  17
ATOM     17  N   LIG    1       -2.895  -3.113  -1.372  0.00  0.00    -0.520 NA
ATOM     18  C   LIG    1       -1.959  -4.006  -2.068  0.00  0.00    +0.200 C 
BRANCH  17  19
ATOM     19  C   LIG    1       -2.462  -2.869   0.010  0.00  0.00    +0.230 C 
BRANCH  19  24
ATOM     20  C   LIG    1        0.002  -0.004   0.002  0.00  0.00    +0.130 A 
ATOM     21  C   LIG    1        1.212  -0.682  -0.019  0.00  0.00    -0.080 A 
ATOM     22  C   LIG    1        1.228  -2.064  -0.021  0.00  0.00    +0.040 A 
ATOM     23  C   LIG    1        0.040  -2.770  -0.014  0.00  0.00    -0.030 A 
ATOM     24  C   LIG    1       -1.168  -2.096   0.002  0.00  0.00    -0.040 A 
ATOM     25  C   LIG    1       -1.189  -0.715   0.010  0.00  0.00    +0.000 A 
BRANCH  20  27
ATOM     26  C   LIG    1        1.248   2.021   0.001  0.00  0.00    +0.250 C 
ATOM     27  O   LIG    1       -0.016   1.355   0.009  0.00  0.00    -0.320 OA
ENDBRANCH  20  27
ENDBRANCH  19  24
ENDBRANCH  17  19
ENDBRANCH  16  17
ENDBRANCH   1  16
TORSDOF 7
