REMARK  Name = ZINCvU0000000EIG.0
REMARK                            x       y       z     vdW  Elec       q    Type
REMARK                         _______ _______ _______ _____ _____    ______ ____
ROOT
ATOM      1  C   LIG    1        0.170  -5.383  -0.651  0.00  0.00    +0.290 C 
ATOM      2  N   LIG    1       -1.217  -5.025  -0.345  0.00  0.00    -0.600 N 
ATOM      3  C   LIG    1       -1.597  -3.732  -0.351  0.00  0.00    +0.540 C 
ATOM      4  O   LIG    1       -2.745  -3.436  -0.097  0.00  0.00    -0.510 OA
ENDROOT
BRANCH   2   5
ATOM      5  C   LIG    1       -2.192  -6.073  -0.033  0.00  0.00    +0.340 C 
BRANCH   5   6
ATOM      6  C   LIG    1       -2.672  -5.907   1.386  0.00  0.00    -0.090 A 
ATOM      7  C   LIG    1       -1.766  -5.640   2.395  0.00  0.00    +0.010 A 
ATOM      8  C   LIG    1       -2.206  -5.482   3.696  0.00  0.00    +0.000 A 
ATOM      9  C   LIG    1       -3.552  -5.602   3.989  0.00  0.00    +0.000 A 
ATOM     10  C   LIG    1       -4.457  -5.873   2.981  0.00  0.00    +0.000 A 
ATOM     11  C   LIG    1       -4.017  -6.026   1.679  0.00  0.00    +0.020 A 
ENDBRANCH   5   6
BRANCH   5  12
ATOM     12  C   LIG    1       -1.544  -7.425  -0.189  0.00  0.00    -0.100 A 
ATOM     13  C   LIG    1       -0.397  -7.727   0.521  0.00  0.00    +0.030 A 
ATOM     14  C   LIG    1        0.195  -8.968   0.382  0.00  0.00    +0.010 A 
ATOM     15  C   LIG    1       -0.354  -9.904  -0.475  0.00  0.00    +0.010 A 
ATOM     16  C   LIG    1       -1.498  -9.600  -1.188  0.00  0.00    +0.010 A 
ATOM     17  C   LIG    1       -2.093  -8.360  -1.045  0.00  0.00    +0.020 A 
ENDBRANCH   5  12
ENDBRANCH   2   5
BRANCH   3  18
ATOM     18  C   LIG    1       -0.594  -2.654  -0.672  0.00  0.00    +0.100 C 
BRANCH  18  19
ATOM     19  S   LIG    1       -1.403  -1.036  -0.599  0.00  0.00    +0.160 S 
BRANCH  19  20
ATOM     20  C   LIG    1       -0.041   0.006  -1.003  0.00  0.00    +0.120 A 
ATOM     21  N   LIG    1        1.184  -0.385  -1.267  0.00  0.00    -0.290 NA
ATOM     22  N   LIG    1        1.916   0.643  -1.519  0.00  0.00    -0.260 NA
ATOM     23  C   LIG    1        1.189   1.730  -1.426  0.00  0.00    +0.210 A 
ATOM     24  O   LIG    1       -0.066   1.349  -1.098  0.00  0.00    -0.200 OA
BRANCH  23  25
ATOM     25  C   LIG    1        1.655   3.115  -1.641  0.00  0.00    -0.040 A 
ATOM     26  C   LIG    1        0.763   4.182  -1.514  0.00  0.00    +0.090 A 
ATOM     27  C   LIG    1        1.204   5.473  -1.711  0.00  0.00    +0.000 A 
ATOM     28  C   LIG    1        2.528   5.713  -2.046  0.00  0.00    +0.130 A 
ATOM     29  C   LIG    1        3.416   4.657  -2.178  0.00  0.00    +0.000 A 
ATOM     30  F   LIG    1        2.954   6.979  -2.243  0.00  0.00    -0.130 F 
ATOM     31  C   LIG    1        2.987   3.362  -1.978  0.00  0.00    +0.110 A 
ENDBRANCH  23  25
ENDBRANCH  19  20
ENDBRANCH  18  19
ENDBRANCH   3  18
TORSDOF 7
