REMARK  Name = ZINCvU0000000B9p.0
REMARK                            x       y       z     vdW  Elec       q    Type
REMARK                         _______ _______ _______ _____ _____    ______ ____
ROOT
ATOM      1  C   LIG    1        6.152   5.872  -1.358  0.00  0.00    +0.520 C 
ATOM      2  O   LIG    1        6.945   6.707  -0.972  0.00  0.00    -0.490 OA
ENDROOT
BRANCH   1   3
ATOM      3  C   LIG    1        4.879   6.293  -1.981  0.00  0.00    -0.070 A 
ATOM      4  C   LIG    1        4.008   5.369  -2.537  0.00  0.00    +0.080 A 
ATOM      5  C   LIG    1        2.811   5.816  -3.124  0.00  0.00    +0.230 A 
ATOM      6  N   LIG    1        2.477   7.091  -3.157  0.00  0.00    -0.430 NA
ATOM      7  C   LIG    1        3.254   8.046  -2.641  0.00  0.00    +0.130 A 
ATOM      8  C   LIG    1        2.872   9.399  -2.691  0.00  0.00    +0.060 A 
ATOM      9  C   LIG    1        3.686  10.350  -2.157  0.00  0.00    +0.040 A 
ATOM     10  C   LIG    1        4.896  10.008  -1.559  0.00  0.00    +0.030 A 
ATOM     11  C   LIG    1        5.298   8.706  -1.492  0.00  0.00    +0.050 A 
ATOM     12  C   LIG    1        4.487   7.703  -2.030  0.00  0.00    -0.060 A 
BRANCH   5  13
ATOM     13  C   LIG    1        1.894   4.824  -3.717  0.00  0.00    -0.000 A 
ATOM     14  C   LIG    1        0.701   5.095  -4.314  0.00  0.00    +0.020 A 
ATOM     15  C   LIG    1        0.171   3.862  -4.738  0.00  0.00    -0.060 A 
ATOM     16  C   LIG    1        1.052   2.907  -4.374  0.00  0.00    +0.200 A 
ATOM     17  O   LIG    1        2.092   3.492  -3.762  0.00  0.00    -0.170 OA
ENDBRANCH   5  13
ENDBRANCH   1   3
BRANCH   1  18
ATOM     18  O   LIG    1        6.432   4.561  -1.220  0.00  0.00    -0.320 OA
BRANCH  18  19
ATOM     19  C   LIG    1        7.700   4.221  -0.599  0.00  0.00    +0.270 C 
BRANCH  19  21
ATOM     20  N   LIG    1        8.943   2.171   0.011  0.00  0.00    -0.570 N 
ATOM     21  C   LIG    1        7.838   2.721  -0.530  0.00  0.00    +0.520 C 
ATOM     22  O   LIG    1        6.955   2.010  -0.960  0.00  0.00    -0.500 OA
BRANCH  20  23
ATOM     23  C   LIG    1        9.119   0.783  -0.018  0.00  0.00    +0.140 A 
ATOM     24  C   LIG    1        8.396  -0.028   0.848  0.00  0.00    +0.020 A 
ATOM     25  C   LIG    1        8.569  -1.398   0.814  0.00  0.00    +0.020 A 
ATOM     26  C   LIG    1        9.468  -1.961  -0.073  0.00  0.00    +0.020 A 
ATOM     27  C   LIG    1       10.193  -1.156  -0.933  0.00  0.00    +0.020 A 
ATOM     28  C   LIG    1       10.021   0.215  -0.907  0.00  0.00    +0.010 A 
ENDBRANCH  20  23
BRANCH  20  30
ATOM     29  C   LIG    1       10.224   2.551   2.060  0.00  0.00    +0.040 C 
ATOM     30  C   LIG    1        9.960   3.026   0.629  0.00  0.00    +0.220 C 
ATOM     31  C   LIG    1       11.255   2.946  -0.182  0.00  0.00    +0.030 C 
ENDBRANCH  20  30
ENDBRANCH  19  21
ENDBRANCH  18  19
ENDBRANCH   1  18
TORSDOF 7
