REMARK  Name = ZINCrg000000sRPn.2
REMARK                            x       y       z     vdW  Elec       q    Type
REMARK                         _______ _______ _______ _____ _____    ______ ____
ROOT
ATOM      1  C   LIG    1        5.333  -1.637   2.939  0.00  0.00    +0.150 C 
ENDROOT
BRANCH   1   2
ATOM      2  N   LIG    1        5.439  -0.878   1.686  0.00  0.00    -0.510 NA
ATOM      3  C   LIG    1        6.595   0.027   1.716  0.00  0.00    +0.190 C 
ATOM      4  C   LIG    1        6.760   0.691   0.346  0.00  0.00    +0.020 C 
ATOM      5  C   LIG    1        5.486   1.469   0.005  0.00  0.00    +0.010 C 
ATOM      6  C   LIG    1        4.291   0.512   0.029  0.00  0.00    +0.040 C 
ATOM      7  C   LIG    1        4.197  -0.146   1.407  0.00  0.00    +0.130 C 
BRANCH   7   8
ATOM      8  C   LIG    1        3.034  -1.103   1.428  0.00  0.00    +0.520 C 
ATOM      9  N   LIG    1        1.790  -0.647   1.677  0.00  0.00    -0.620 N 
ATOM     10  C   LIG    1        0.625  -1.541   1.593  0.00  0.00    +0.260 C 
ATOM     11  C   LIG    1       -0.435  -0.872   0.710  0.00  0.00    +0.220 C 
ATOM     12  O   LIG    1       -0.683   0.450   1.194  0.00  0.00    -0.380 OA
ATOM     13  C   LIG    1        0.453   1.317   1.137  0.00  0.00    +0.220 C 
ATOM     14  C   LIG    1        1.558   0.759   2.041  0.00  0.00    +0.250 C 
ATOM     15  O   LIG    1        3.217  -2.284   1.222  0.00  0.00    -0.510 OA
ENDBRANCH   7   8
ENDBRANCH   1   2
BRANCH   1  16
ATOM     16  C   LIG    1        6.422  -2.710   2.980  0.00  0.00    +0.240 C 
BRANCH  16  17
ATOM     17  O   LIG    1        7.705  -2.084   3.058  0.00  0.00    -0.540 OA
ATOM     18  H   LIG    1        7.824  -1.527   3.838  0.00  0.00    +0.370 HD
ENDBRANCH  16  17
BRANCH  16  19
ATOM     19  C   LIG    1        6.215  -3.601   4.207  0.00  0.00    +0.180 C 
BRANCH  19  20
ATOM     20  O   LIG    1        7.160  -4.672   4.183  0.00  0.00    -0.290 OA
BRANCH  20  24
ATOM     21  C   LIG    1        7.011  -7.374   7.301  0.00  0.00    -0.070 A 
ATOM     22  C   LIG    1        7.957  -7.530   6.284  0.00  0.00    +0.110 A 
ATOM     23  C   LIG    1        8.003  -6.626   5.245  0.00  0.00    -0.010 A 
ATOM     24  C   LIG    1        7.112  -5.561   5.208  0.00  0.00    +0.160 A 
ATOM     25  C   LIG    1        6.173  -5.399   6.221  0.00  0.00    -0.070 A 
ATOM     26  C   LIG    1        6.117  -6.301   7.260  0.00  0.00    +0.110 A 
BRANCH  21  28
ATOM     27  N   LIG    1        6.919  -9.054   9.241  0.00  0.00    -0.420 NA
ATOM     28  C   LIG    1        6.960  -8.311   8.383  0.00  0.00    +0.260 C 
ENDBRANCH  21  28
ENDBRANCH  20  24
ENDBRANCH  19  20
ENDBRANCH  16  19
ENDBRANCH   1  16
TORSDOF 8
