REMARK  Name = ZINCc70000002Lr2.0
REMARK                            x       y       z     vdW  Elec       q    Type
REMARK                         _______ _______ _______ _____ _____    ______ ____
ROOT
ATOM      1  C   LIG    1       -3.120   4.516  -0.927  0.00  0.00    -0.190 A 
ATOM      2  C   LIG    1       -1.847   4.210  -1.270  0.00  0.00    +0.370 A 
ATOM      3  N   LIG    1       -1.666   2.892  -1.044  0.00  0.00    -0.350 N 
ATOM      4  N   LIG    1       -2.869   2.370  -0.551  0.00  0.00    -0.260 NA
ATOM      5  C   LIG    1       -3.738   3.345  -0.476  0.00  0.00    +0.330 A 
ENDROOT
BRANCH   1   7
ATOM      6  O   LIG    1       -3.104   6.803  -1.424  0.00  0.00    -0.170 OA
ATOM      7  N   LIG    1       -3.748   5.854  -1.013  0.00  0.00    +0.070 N 
ATOM      8  O   LIG    1       -4.908   6.005  -0.674  0.00  0.00    -0.160 OA
ENDBRANCH   1   7
BRANCH   3   9
ATOM      9  C   LIG    1       -0.431   2.139  -1.278  0.00  0.00    +0.380 C 
BRANCH   9  10
ATOM     10  C   LIG    1       -0.017   1.425   0.010  0.00  0.00    +0.100 C 
ATOM     11  C   LIG    1        1.286   0.623  -0.007  0.00  0.00    +0.220 C 
ATOM     12  O   LIG    1        0.002  -0.004   0.002  0.00  0.00    -0.340 OA
ENDBRANCH   9  10
ENDBRANCH   3   9
TORSDOF 3
