REMARK  Name = ZINCqH00000379F4.0
REMARK                            x       y       z     vdW  Elec       q    Type
REMARK                         _______ _______ _______ _____ _____    ______ ____
ROOT
ATOM      1  N   LIG    1       -1.125  -2.038   0.205  0.00  0.00    -0.620 N 
ATOM      2  C   LIG    1       -1.150  -0.694   0.111  0.00  0.00    +0.710 C 
ATOM      3  N   LIG    1        0.002  -0.004   0.002  0.00  0.00    -0.690 N 
ATOM      4  H   LIG    1        0.845  -0.477  -0.076  0.00  0.00    +0.410 HD
ATOM      5  O   LIG    1       -2.213  -0.104   0.124  0.00  0.00    -0.570 OA
ATOM      6  C   LIG    1        0.156  -2.749   0.189  0.00  0.00    +0.270 C 
ENDROOT
BRANCH   3   7
ATOM      7  C   LIG    1       -0.018   1.395   0.001  0.00  0.00    +0.170 A 
ATOM      8  C   LIG    1       -1.068   2.076  -0.600  0.00  0.00    +0.020 A 
ATOM      9  C   LIG    1       -1.087   3.457  -0.594  0.00  0.00    +0.040 A 
ATOM     10  C   LIG    1       -0.057   4.162   0.000  0.00  0.00    -0.140 A 
ATOM     11  C   LIG    1        0.994   3.487   0.595  0.00  0.00    +0.060 A 
ATOM     12  C   LIG    1        1.016   2.106   0.597  0.00  0.00    -0.020 A 
BRANCH  10  13
ATOM     13  C   LIG    1       -0.078   5.669  -0.001  0.00  0.00    +0.380 C 
BRANCH  13  14
ATOM     14  N   LIG    1        0.600   6.166  -1.200  0.00  0.00    -0.630 N 
ATOM     15  C   LIG    1       -0.044   6.442  -2.494  0.00  0.00    +0.240 C 
ATOM     16  C   LIG    1        1.115   6.935  -3.382  0.00  0.00    +0.260 C 
ATOM     17  O   LIG    1        2.277   6.887  -2.505  0.00  0.00    -0.330 OA
ATOM     18  C   LIG    1        1.906   6.450  -1.296  0.00  0.00    +0.640 C 
ATOM     19  O   LIG    1        2.683   6.319  -0.371  0.00  0.00    -0.520 OA
ENDBRANCH  13  14
ENDBRANCH  10  13
ENDBRANCH   3   7
BRANCH   1  21
ATOM     20  C   LIG    1       -2.377  -3.579   1.634  0.00  0.00    +0.030 C 
ATOM     21  C   LIG    1       -2.377  -2.789   0.324  0.00  0.00    +0.270 C 
BRANCH  21  22
ATOM     22  C   LIG    1       -2.506  -3.756  -0.855  0.00  0.00    +0.100 C 
BRANCH  22  23
ATOM     23  C   LIG    1       -2.630  -2.972  -2.136  0.00  0.00    -0.100 A 
ATOM     24  C   LIG    1       -3.809  -2.594  -2.635  0.00  0.00    -0.050 A 
ATOM     25  S   LIG    1       -3.558  -1.702  -4.130  0.00  0.00    +0.100 S 
ATOM     26  C   LIG    1       -1.816  -1.906  -3.994  0.00  0.00    -0.050 A 
ATOM     27  C   LIG    1       -1.531  -2.595  -2.888  0.00  0.00    +0.000 A 
ENDBRANCH  22  23
ENDBRANCH  21  22
ENDBRANCH   1  21
TORSDOF 6
