REMARK  Name = ZINCpk00000FdVbT.0
REMARK                            x       y       z     vdW  Elec       q    Type
REMARK                         _______ _______ _______ _____ _____    ______ ____
ROOT
ATOM      1  O   LIG    1       -2.705   4.866   0.146  0.00  0.00    -0.520 OA
ATOM      2  C   LIG    1       -2.613   3.659   0.046  0.00  0.00    +0.590 C 
ATOM      3  N   LIG    1       -3.725   2.903  -0.050  0.00  0.00    -0.590 N 
ATOM      4  C   LIG    1       -3.635   1.437  -0.066  0.00  0.00    +0.270 C 
ATOM      5  C   LIG    1       -4.552   0.878   1.033  0.00  0.00    +0.030 C 
ATOM      6  C   LIG    1       -5.968   1.423   0.833  0.00  0.00    +0.060 C 
ATOM      7  C   LIG    1       -5.951   2.949   0.949  0.00  0.00    +0.110 C 
ATOM      8  C   LIG    1       -5.050   3.530  -0.145  0.00  0.00    +0.270 C 
ENDROOT
BRANCH   2   9
ATOM      9  C   LIG    1       -1.280   3.018   0.028  0.00  0.00    +0.140 A 
ATOM     10  N   LIG    1       -0.771   2.574  -1.109  0.00  0.00    -0.460 NA
ATOM     11  C   LIG    1        0.411   1.990  -1.181  0.00  0.00    +0.240 A 
ATOM     12  C   LIG    1        1.200   1.812  -0.080  0.00  0.00    +0.020 A 
ATOM     13  C   LIG    1        0.734   2.260   1.168  0.00  0.00    -0.030 A 
ATOM     14  C   LIG    1        1.486   2.113   2.344  0.00  0.00    +0.030 A 
ATOM     15  C   LIG    1        0.979   2.568   3.523  0.00  0.00    +0.040 A 
ATOM     16  C   LIG    1       -0.273   3.178   3.580  0.00  0.00    +0.020 A 
ATOM     17  C   LIG    1       -1.029   3.337   2.457  0.00  0.00    +0.040 A 
ATOM     18  C   LIG    1       -0.541   2.881   1.226  0.00  0.00    -0.080 A 
ENDBRANCH   2   9
BRANCH   7  19
ATOM     19  O   LIG    1       -5.446   3.323   2.232  0.00  0.00    -0.540 OA
ATOM     20  H   LIG    1       -5.404   4.279   2.375  0.00  0.00    +0.390 HD
ENDBRANCH   7  19
BRANCH   7  21
ATOM     21  C   LIG    1       -7.372   3.490   0.781  0.00  0.00    +0.330 C 
BRANCH  21  22
ATOM     22  N   LIG    1       -7.339   4.954   0.770  0.00  0.00    -0.300 N 
ATOM     23  C   LIG    1       -7.845   5.751  -0.200  0.00  0.00    +0.140 A 
ATOM     24  C   LIG    1       -7.598   7.023   0.191  0.00  0.00    +0.140 A 
ATOM     25  N   LIG    1       -6.963   6.944   1.365  0.00  0.00    -0.260 NA
ATOM     26  N   LIG    1       -6.830   5.704   1.683  0.00  0.00    -0.090 NA
ENDBRANCH  21  22
ENDBRANCH   7  21
TORSDOF 4
