REMARK  Name = ZINCrH000004nusF.0
REMARK                            x       y       z     vdW  Elec       q    Type
REMARK                         _______ _______ _______ _____ _____    ______ ____
ROOT
ATOM      1  N   LIG    1       -5.928   2.070   0.169  0.00  0.00    -0.660 N 
ATOM      2  H   LIG    1       -5.547   1.346   0.689  0.00  0.00    +0.410 HD
ATOM      3  C   LIG    1       -5.133   2.837  -0.603  0.00  0.00    +0.600 C 
ATOM      4  O   LIG    1       -5.618   3.705  -1.305  0.00  0.00    -0.490 OA
ENDROOT
BRANCH   1  10
ATOM      5  C   LIG    1      -10.551   0.549  -0.138  0.00  0.00    +0.170 A 
ATOM      6  C   LIG    1      -10.112  -0.719  -0.395  0.00  0.00    -0.080 A 
ATOM      7  C   LIG    1       -8.752  -1.008  -0.454  0.00  0.00    +0.070 A 
ATOM      8  C   LIG    1       -7.820  -0.034  -0.257  0.00  0.00    -0.020 A 
ATOM      9  C   LIG    1       -8.233   1.280   0.009  0.00  0.00    -0.060 A 
ATOM     10  C   LIG    1       -7.295   2.318   0.219  0.00  0.00    +0.180 A 
ATOM     11  C   LIG    1       -7.782   3.588   0.482  0.00  0.00    -0.110 A 
ATOM     12  C   LIG    1       -9.154   3.805   0.520  0.00  0.00    +0.300 A 
ATOM     13  N   LIG    1      -10.014   2.833   0.324  0.00  0.00    -0.450 NA
ATOM     14  C   LIG    1       -6.828   4.730   0.719  0.00  0.00    +0.110 C 
ATOM     15  C   LIG    1       -9.614   1.582   0.071  0.00  0.00    +0.110 A 
BRANCH   5  17
ATOM     16  C   LIG    1      -12.771  -0.284  -0.306  0.00  0.00    +0.250 C 
ATOM     17  O   LIG    1      -11.883   0.813  -0.085  0.00  0.00    -0.290 OA
ENDBRANCH   5  17
ENDBRANCH   1  10
BRANCH   3  18
ATOM     18  C   LIG    1       -3.682   2.626  -0.597  0.00  0.00    -0.310 A 
ATOM     19  C   LIG    1       -2.760   3.328  -1.328  0.00  0.00    +0.340 A 
ATOM     20  N   LIG    1       -1.527   2.942  -1.141  0.00  0.00    -0.460 NA
ATOM     21  C   LIG    1       -1.327   1.962  -0.305  0.00  0.00    +0.090 A 
ATOM     22  S   LIG    1       -2.811   1.419   0.346  0.00  0.00    +0.260 S 
BRANCH  21  23
ATOM     23  C   LIG    1       -0.003   1.396   0.029  0.00  0.00    +0.120 A 
ATOM     24  C   LIG    1        1.149   1.908  -0.570  0.00  0.00    +0.290 A 
ATOM     25  N   LIG    1        2.328   1.395  -0.273  0.00  0.00    -0.430 NA
ATOM     26  C   LIG    1        2.419   0.399   0.592  0.00  0.00    +0.250 A 
ATOM     27  C   LIG    1        1.278  -0.113   1.189  0.00  0.00    +0.240 A 
ATOM     28  N   LIG    1        0.095   0.393   0.898  0.00  0.00    -0.430 NA
ENDBRANCH  21  23
ENDBRANCH   3  18
TORSDOF 4
