REMARK  Name = ZINCpk00000eaUVD.0
REMARK                            x       y       z     vdW  Elec       q    Type
REMARK                         _______ _______ _______ _____ _____    ______ ____
ROOT
ATOM      1  N   LIG    1       -4.602   1.855   1.396  0.00  0.00    -0.720 N 
ATOM      2  H   LIG    1       -5.087   1.272   0.790  0.00  0.00    +0.400 HD
ATOM      3  C   LIG    1       -3.293   2.100   1.190  0.00  0.00    +0.520 C 
ATOM      4  O   LIG    1       -2.687   2.829   1.947  0.00  0.00    -0.520 OA
ENDROOT
BRANCH   1   5
ATOM      5  C   LIG    1       -5.293   2.467   2.533  0.00  0.00    +0.350 C 
BRANCH   5  10
ATOM      6  C   LIG    1      -10.822   0.858   2.511  0.00  0.00    +0.140 C 
ATOM      7  C   LIG    1       -9.374   1.274   2.520  0.00  0.00    +0.180 A 
ATOM      8  C   LIG    1       -8.484   0.587   3.275  0.00  0.00    -0.090 A 
ATOM      9  C   LIG    1       -7.136   0.969   3.288  0.00  0.00    +0.050 A 
ATOM     10  C   LIG    1       -6.737   2.035   2.536  0.00  0.00    -0.250 A 
ATOM     11  C   LIG    1       -7.687   2.729   1.769  0.00  0.00    +0.530 A 
ATOM     12  O   LIG    1       -7.345   3.688   1.095  0.00  0.00    -0.540 OA
ATOM     13  C   LIG    1       -6.137   0.211   4.125  0.00  0.00    +0.120 C 
ATOM     14  N   LIG    1       -8.975   2.334   1.772  0.00  0.00    -0.610 N 
ATOM     15  H   LIG    1       -9.625   2.816   1.237  0.00  0.00    +0.420 HD
ENDBRANCH   5  10
ENDBRANCH   1   5
BRANCH   3  16
ATOM     16  C   LIG    1       -2.583   1.470   0.020  0.00  0.00    +0.180 C 
BRANCH  16  17
ATOM     17  C   LIG    1       -1.139   1.903   0.017  0.00  0.00    +0.020 A 
ATOM     18  N   LIG    1       -0.681   3.134   0.025  0.00  0.00    -0.250 NA
ATOM     19  N   LIG    1        0.604   3.097   0.013  0.00  0.00    -0.100 N 
ATOM     20  N   LIG    1        1.025   1.882   0.002  0.00  0.00    -0.290 NA
ATOM     21  C   LIG    1       -0.013   1.076   0.008  0.00  0.00    +0.190 A 
BRANCH  19  22
ATOM     22  C   LIG    1        1.434   4.227   0.011  0.00  0.00    +0.140 A 
ATOM     23  C   LIG    1        0.877   5.499   0.018  0.00  0.00    +0.040 A 
ATOM     24  C   LIG    1        1.697   6.611   0.021  0.00  0.00    +0.040 A 
ATOM     25  C   LIG    1        3.071   6.458   0.006  0.00  0.00    +0.020 A 
ATOM     26  C   LIG    1        3.629   5.192  -0.006  0.00  0.00    +0.040 A 
ATOM     27  C   LIG    1        2.814   4.077  -0.003  0.00  0.00    +0.040 A 
ENDBRANCH  19  22
ENDBRANCH  16  17
ENDBRANCH   3  16
TORSDOF 5
