REMARK  Name = ZINCrg000000soKi.0
REMARK                            x       y       z     vdW  Elec       q    Type
REMARK                         _______ _______ _______ _____ _____    ______ ____
ROOT
ATOM      1  C   LIG    1        1.046   7.797  -0.029  0.00  0.00    +0.150 C 
ATOM      2  C   LIG    1        0.506   6.390  -0.016  0.00  0.00    +0.210 A 
ATOM      3  C   LIG    1       -0.856   6.186   0.050  0.00  0.00    -0.170 A 
ATOM      4  C   LIG    1       -1.366   4.877   0.057  0.00  0.00    +0.190 A 
ATOM      5  C   LIG    1       -0.474   3.810   0.009  0.00  0.00    -0.260 A 
ATOM      6  C   LIG    1        0.918   4.080  -0.058  0.00  0.00    +0.540 A 
ATOM      7  O   LIG    1        1.714   3.158  -0.105  0.00  0.00    -0.530 OA
ATOM      8  N   LIG    1        1.361   5.350  -0.068  0.00  0.00    -0.590 N 
ATOM      9  H   LIG    1        2.315   5.521  -0.113  0.00  0.00    +0.420 HD
ENDROOT
BRANCH   5  10
ATOM     10  C   LIG    1       -0.966   2.424   0.020  0.00  0.00    +0.620 C 
ATOM     11  N   LIG    1       -1.460   1.875  -1.107  0.00  0.00    -0.640 N 
ATOM     12  C   LIG    1       -1.758   2.342  -2.470  0.00  0.00    +0.280 C 
ATOM     13  C   LIG    1       -2.833   1.249  -2.551  0.00  0.00    +0.010 C 
ATOM     14  C   LIG    1       -1.943   0.547  -1.515  0.00  0.00    +0.290 C 
ATOM     15  O   LIG    1       -0.928   1.773   1.047  0.00  0.00    -0.520 OA
BRANCH  13  16
ATOM     16  C   LIG    1       -2.903   0.537  -3.903  0.00  0.00    +0.020 C 
ATOM     17  C   LIG    1       -3.570  -0.846  -3.754  0.00  0.00    +0.100 C 
ATOM     18  C   LIG    1       -4.799  -0.743  -4.630  0.00  0.00    +0.530 C 
ATOM     19  N   LIG    1       -4.843   0.474  -5.187  0.00  0.00    -0.680 N 
ATOM     20  H   LIG    1       -5.552   0.751  -5.787  0.00  0.00    +0.420 HD
ATOM     21  O   LIG    1       -5.615  -1.623  -4.801  0.00  0.00    -0.480 OA
ATOM     22  C   LIG    1       -3.826   1.276  -4.847  0.00  0.00    +0.530 C 
ATOM     23  O   LIG    1       -3.669   2.413  -5.235  0.00  0.00    -0.470 OA
ENDBRANCH  13  16
ENDBRANCH   5  10
BRANCH   3  24
ATOM     24  C   LIG    1       -1.781   7.346   0.106  0.00  0.00    -0.030 A 
ATOM     25  C   LIG    1       -1.769   8.197   1.210  0.00  0.00    +0.010 A 
ATOM     26  C   LIG    1       -2.627   9.277   1.255  0.00  0.00    +0.010 A 
ATOM     27  C   LIG    1       -3.505   9.509   0.212  0.00  0.00    +0.000 A 
ATOM     28  C   LIG    1       -3.526   8.664  -0.883  0.00  0.00    +0.010 A 
ATOM     29  C   LIG    1       -2.668   7.585  -0.941  0.00  0.00    +0.020 A 
ENDBRANCH   3  24
TORSDOF 3
