REMARK  Name = ZINCvU0000000HEn.0
REMARK                            x       y       z     vdW  Elec       q    Type
REMARK                         _______ _______ _______ _____ _____    ______ ____
ROOT
ATOM      1  C   LIG    1        4.554   6.942  -0.164  0.00  0.00    +0.600 C 
ATOM      2  N   LIG    1        5.841   6.874  -0.558  0.00  0.00    -0.670 N 
ATOM      3  H   LIG    1        6.338   6.048  -0.452  0.00  0.00    +0.410 HD
ATOM      4  O   LIG    1        3.960   8.002  -0.208  0.00  0.00    -0.520 OA
ENDROOT
BRANCH   1   7
ATOM      5  C   LIG    1        1.563   6.780   0.805  0.00  0.00    +0.170 C 
ATOM      6  C   LIG    1        2.556   5.648   0.746  0.00  0.00    +0.170 A 
ATOM      7  C   LIG    1        3.866   5.731   0.318  0.00  0.00    -0.300 A 
ATOM      8  C   LIG    1        4.423   4.436   0.424  0.00  0.00    +0.290 A 
ATOM      9  N   LIG    1        3.503   3.637   0.890  0.00  0.00    -0.280 NA
ATOM     10  N   LIG    1        2.330   4.370   1.102  0.00  0.00    -0.310 N 
BRANCH  10  11
ATOM     11  C   LIG    1        1.122   3.859   1.597  0.00  0.00    +0.160 A 
ATOM     12  C   LIG    1        0.725   2.571   1.266  0.00  0.00    +0.050 A 
ATOM     13  C   LIG    1       -0.466   2.069   1.754  0.00  0.00    +0.080 A 
ATOM     14  C   LIG    1       -1.266   2.852   2.568  0.00  0.00    -0.090 A 
ATOM     15  C   LIG    1       -0.869   4.135   2.904  0.00  0.00    +0.080 A 
ATOM     16 BR   LIG    1       -2.899   2.166   3.228  0.00  0.00    -0.030 Br
ATOM     17  C   LIG    1        0.321   4.641   2.418  0.00  0.00    +0.020 A 
ENDBRANCH  10  11
ENDBRANCH   1   7
BRANCH   2  18
ATOM     18  C   LIG    1        6.461   7.996  -1.119  0.00  0.00    +0.150 A 
ATOM     19  C   LIG    1        5.726   8.882  -1.895  0.00  0.00    +0.030 A 
ATOM     20  C   LIG    1        6.339   9.991  -2.443  0.00  0.00    +0.030 A 
ATOM     21  C   LIG    1        7.687  10.214  -2.228  0.00  0.00    +0.020 A 
ATOM     22  C   LIG    1        8.423   9.331  -1.460  0.00  0.00    -0.090 A 
ATOM     23  C   LIG    1        7.814   8.223  -0.905  0.00  0.00    +0.010 A 
BRANCH  22  24
ATOM     24  C   LIG    1        9.892   9.578  -1.229  0.00  0.00    +0.340 C 
BRANCH  24  25
ATOM     25  N   LIG    1       10.669   8.926  -2.286  0.00  0.00    -0.710 N 
ATOM     26  H   LIG    1       10.215   8.432  -2.986  0.00  0.00    +0.410 HD
ATOM     27  C   LIG    1       12.014   9.012  -2.284  0.00  0.00    +0.650 C 
ATOM     28  O   LIG    1       12.582   9.632  -1.407  0.00  0.00    -0.570 OA
BRANCH  27  29
ATOM     29  O   LIG    1       12.728   8.413  -3.256  0.00  0.00    -0.360 OA
BRANCH  29  30
ATOM     30  C   LIG    1       14.172   8.548  -3.191  0.00  0.00    +0.140 C 
ATOM     31  C   LIG    1       14.550  10.029  -3.258  0.00  0.00    +0.040 C 
ATOM     32  C   LIG    1       14.807   7.806  -4.369  0.00  0.00    +0.080 C 
ATOM     33  C   LIG    1       14.682   7.951  -1.877  0.00  0.00    +0.040 C 
ENDBRANCH  29  30
ENDBRANCH  27  29
ENDBRANCH  24  25
ENDBRANCH  22  24
ENDBRANCH   2  18
TORSDOF 7
