REMARK  Name = ZINCrD0000074bDl.0
REMARK                            x       y       z     vdW  Elec       q    Type
REMARK                         _______ _______ _______ _____ _____    ______ ____
ROOT
ATOM      1  O   LIG    1        6.150   1.068  -2.656  0.00  0.00    -0.330 OA
ENDROOT
BRANCH   1   3
ATOM      2  C   LIG    1        8.217  -0.218  -2.580  0.00  0.00    +0.070 C 
ATOM      3  C   LIG    1        7.596   1.181  -2.593  0.00  0.00    +0.180 C 
BRANCH   3   4
ATOM      4  C   LIG    1        8.094   1.939  -3.796  0.00  0.00    +0.520 C 
ATOM      5  N   LIG    1        9.413   2.167  -3.951  0.00  0.00    -0.720 N 
ATOM      6  H   LIG    1       10.043   1.843  -3.289  0.00  0.00    +0.400 HD
ATOM      7  O   LIG    1        7.307   2.345  -4.625  0.00  0.00    -0.510 OA
BRANCH   5   8
ATOM      8  C   LIG    1        9.897   2.905  -5.121  0.00  0.00    +0.260 C 
BRANCH   8   9
ATOM      9  C   LIG    1       11.421   3.024  -5.055  0.00  0.00    -0.020 C 
ATOM     10  C   LIG    1       11.814   3.877  -3.847  0.00  0.00    +0.010 C 
ATOM     11  C   LIG    1       13.338   3.996  -3.781  0.00  0.00    +0.000 C 
ATOM     12  C   LIG    1       13.854   4.656  -5.062  0.00  0.00    +0.000 C 
ATOM     13  C   LIG    1       13.461   3.802  -6.269  0.00  0.00    +0.000 C 
ATOM     14  C   LIG    1       11.937   3.683  -6.335  0.00  0.00    +0.030 C 
ENDBRANCH   8   9
ENDBRANCH   5   8
ENDBRANCH   3   4
ENDBRANCH   1   3
BRANCH   1  15
ATOM     15  C   LIG    1        5.492   1.009  -1.488  0.00  0.00    +0.470 C 
ATOM     16  O   LIG    1        6.104   1.051  -0.447  0.00  0.00    -0.500 OA
BRANCH  15  17
ATOM     17  C   LIG    1        3.990   0.891  -1.474  0.00  0.00    +0.130 C 
BRANCH  17  18
ATOM     18  C   LIG    1        3.495   0.844  -0.027  0.00  0.00    +0.220 C 
BRANCH  18  19
ATOM     19  C   LIG    1        1.993   0.726  -0.013  0.00  0.00    +0.180 A 
ATOM     20  N   LIG    1        1.300  -0.385  -0.012  0.00  0.00    -0.470 NA
ATOM     21  C   LIG    1        0.002  -0.004   0.002  0.00  0.00    +0.240 A 
ATOM     22  N   LIG    1       -0.016   1.304   0.009  0.00  0.00    -0.370 NA
ATOM     23  O   LIG    1        1.118   1.736   0.001  0.00  0.00    +0.090 OA
BRANCH  21  24
ATOM     24  C   LIG    1       -1.179  -0.900   0.009  0.00  0.00    -0.050 A 
ATOM     25  C   LIG    1       -1.076  -2.241   0.002  0.00  0.00    -0.020 A 
ATOM     26  S   LIG    1       -2.624  -2.959   0.013  0.00  0.00    +0.200 S 
ATOM     27  C   LIG    1       -3.410  -1.387   0.028  0.00  0.00    -0.060 A 
ATOM     28  C   LIG    1       -2.490  -0.424   0.030  0.00  0.00    +0.040 A 
ENDBRANCH  21  24
ENDBRANCH  18  19
ENDBRANCH  17  18
ENDBRANCH  15  17
ENDBRANCH   1  15
TORSDOF 9
