REMARK  Name = ZINCAx0000000cc5.0
REMARK                            x       y       z     vdW  Elec       q    Type
REMARK                         _______ _______ _______ _____ _____    ______ ____
ROOT
ATOM      1  N   LIG    1        0.002  -0.004   0.002  0.00  0.00    -0.390 N 
ATOM      2  C   LIG    1        1.296  -0.380  -0.012  0.00  0.00    +0.280 A 
ATOM      3  N   LIG    1        2.064   0.680  -0.014  0.00  0.00    -0.470 NA
ATOM      4  C   LIG    1        1.312   1.783  -0.001  0.00  0.00    +0.320 A 
ATOM      5  N   LIG    1        1.596   3.139   0.004  0.00  0.00    -0.500 N 
ATOM      6  C   LIG    1        0.594   4.039   0.019  0.00  0.00    +0.710 A 
ATOM      7  O   LIG    1        0.863   5.225   0.024  0.00  0.00    -0.530 OA
ATOM      8  N   LIG    1       -0.695   3.659   0.030  0.00  0.00    -0.650 N 
ATOM      9  H   LIG    1       -1.392   4.334   0.040  0.00  0.00    +0.440 HD
ATOM     10  C   LIG    1       -1.035   2.353   0.030  0.00  0.00    +0.600 A 
ATOM     11  O   LIG    1       -2.207   2.022   0.045  0.00  0.00    -0.510 OA
ATOM     12  C   LIG    1       -0.017   1.376   0.010  0.00  0.00    -0.140 A 
ENDROOT
BRANCH   1  13
ATOM     13  C   LIG    1       -1.163  -0.891   0.008  0.00  0.00    +0.300 C 
BRANCH  13  14
ATOM     14  C   LIG    1       -1.582  -1.193  -1.433  0.00  0.00    +0.010 C 
BRANCH  14  16
ATOM     15  C   LIG    1       -3.218  -2.421  -2.867  0.00  0.00    +0.030 C 
ATOM     16  C   LIG    1       -2.800  -2.119  -1.427  0.00  0.00    +0.020 C 
ENDBRANCH  14  16
ENDBRANCH  13  14
ENDBRANCH   1  13
BRANCH   5  17
ATOM     17  C   LIG    1        2.988   3.595  -0.007  0.00  0.00    +0.380 C 
BRANCH  17  18
ATOM     18  C   LIG    1        3.452   3.759  -1.431  0.00  0.00    -0.120 A 
ATOM     19  C   LIG    1        4.042   2.698  -2.093  0.00  0.00    +0.040 A 
ATOM     20  C   LIG    1        4.463   2.848  -3.401  0.00  0.00    -0.010 A 
ATOM     21  C   LIG    1        4.303   4.061  -4.044  0.00  0.00    +0.010 A 
ATOM     22  C   LIG    1        3.718   5.123  -3.381  0.00  0.00    -0.010 A 
ATOM     23  C   LIG    1        3.292   4.972  -2.075  0.00  0.00    +0.040 A 
ENDBRANCH  17  18
ENDBRANCH   5  17
BRANCH   2  24
ATOM     24  C   LIG    1        1.785  -1.806  -0.024  0.00  0.00    +0.370 C 
BRANCH  24  25
ATOM     25  O   LIG    1        1.928  -2.257  -1.397  0.00  0.00    -0.350 OA
BRANCH  25  26
ATOM     26  C   LIG    1        2.358  -3.514  -1.583  0.00  0.00    +0.470 C 
ATOM     27  O   LIG    1        2.606  -4.215  -0.631  0.00  0.00    -0.500 OA
BRANCH  26  28
ATOM     28  C   LIG    1        2.532  -4.052  -2.980  0.00  0.00    +0.130 C 
BRANCH  28  29
ATOM     29  C   LIG    1        3.028  -5.498  -2.912  0.00  0.00    +0.220 C 
BRANCH  29  30
ATOM     30  C   LIG    1        3.202  -6.036  -4.309  0.00  0.00    +0.180 A 
ATOM     31  N   LIG    1        4.286  -5.968  -5.043  0.00  0.00    -0.470 NA
ATOM     32  C   LIG    1        3.978  -6.576  -6.202  0.00  0.00    +0.170 A 
ATOM     33  N   LIG    1        2.742  -6.968  -6.119  0.00  0.00    -0.380 NA
ATOM     34  O   LIG    1        2.278  -6.668  -5.039  0.00  0.00    +0.080 OA
BRANCH  32  35
ATOM     35  C   LIG    1        4.895  -6.763  -7.383  0.00  0.00    +0.160 C 
BRANCH  35  36
ATOM     36  C   LIG    1        4.767  -5.563  -8.323  0.00  0.00    +0.010 C 
ATOM     37  C   LIG    1        5.698  -5.753  -9.522  0.00  0.00    +0.030 C 
ENDBRANCH  35  36
ENDBRANCH  32  35
ENDBRANCH  29  30
ENDBRANCH  28  29
ENDBRANCH  26  28
ENDBRANCH  25  26
ENDBRANCH  24  25
ENDBRANCH   2  24
TORSDOF 13
