REMARK  Name = ZINCrD000000fcV7.0
REMARK                            x       y       z     vdW  Elec       q    Type
REMARK                         _______ _______ _______ _____ _____    ______ ____
ROOT
ATOM      1  N   LIG    1        6.200  -1.175   0.995  0.00  0.00    -0.540 NA
ATOM      2  C   LIG    1        6.059  -0.250  -0.138  0.00  0.00    +0.190 C 
ATOM      3  C   LIG    1        4.712   0.470  -0.041  0.00  0.00    +0.220 C 
ATOM      4  N   LIG    1        3.628  -0.522  -0.036  0.00  0.00    -0.470 N 
ATOM      5  C   LIG    1        3.769  -1.447   1.098  0.00  0.00    +0.210 C 
ATOM      6  C   LIG    1        5.116  -2.167   1.000  0.00  0.00    +0.190 C 
ENDROOT
BRANCH   4   7
ATOM      7  C   LIG    1        2.388   0.097  -0.020  0.00  0.00    +0.360 A 
ATOM      8  C   LIG    1        1.216  -0.664  -0.013  0.00  0.00    -0.100 A 
ATOM      9  C   LIG    1        0.002  -0.004   0.002  0.00  0.00    +0.340 A 
ATOM     10  N   LIG    1       -0.016   1.320   0.009  0.00  0.00    -0.530 NA
ATOM     11  C   LIG    1        1.112   2.017   0.002  0.00  0.00    +0.390 A 
ATOM     12  N   LIG    1        2.297   1.422  -0.012  0.00  0.00    -0.550 NA
BRANCH  11  13
ATOM     13  C   LIG    1        1.047   3.498   0.011  0.00  0.00    -0.050 A 
ATOM     14  C   LIG    1        2.220   4.250   0.009  0.00  0.00    +0.060 A 
ATOM     15  C   LIG    1        2.153   5.629   0.011  0.00  0.00    +0.000 A 
ATOM     16  C   LIG    1        0.925   6.264   0.026  0.00  0.00    +0.030 A 
ATOM     17  C   LIG    1       -0.243   5.523   0.034  0.00  0.00    +0.000 A 
ATOM     18  C   LIG    1       -0.188   4.144   0.026  0.00  0.00    +0.070 A 
ENDBRANCH  11  13
ENDBRANCH   4   7
BRANCH   1  19
ATOM     19  C   LIG    1        7.514  -1.831   0.979  0.00  0.00    +0.340 C 
BRANCH  19  20
ATOM     20  C   LIG    1        7.534  -2.915   1.974  0.00  0.00    -0.150 C 
ATOM     21  C   LIG    1        7.550  -3.780   2.768  0.00  0.00    -0.130 C 
BRANCH  21  22
ATOM     22  C   LIG    1        7.569  -4.835   3.736  0.00  0.00    +0.010 A 
ATOM     23  C   LIG    1        6.441  -5.090   4.517  0.00  0.00    +0.030 A 
ATOM     24  C   LIG    1        6.464  -6.110   5.445  0.00  0.00    +0.010 A 
ATOM     25  C   LIG    1        7.606  -6.874   5.609  0.00  0.00    +0.020 A 
ATOM     26  C   LIG    1        8.730  -6.623   4.842  0.00  0.00    +0.010 A 
ATOM     27  C   LIG    1        8.718  -5.608   3.907  0.00  0.00    +0.040 A 
ENDBRANCH  21  22
ENDBRANCH  19  20
ENDBRANCH   1  19
TORSDOF 5
