REMARK  Name = ZINCvU00000006N1.0
REMARK                            x       y       z     vdW  Elec       q    Type
REMARK                         _______ _______ _______ _____ _____    ______ ____
ROOT
ATOM      1  O   LIG    1       -2.852   2.003  -0.359  0.00  0.00    -0.520 OA
ATOM      2  C   LIG    1       -2.964   1.213   0.555  0.00  0.00    +0.530 C 
ATOM      3  N   LIG    1       -1.923   0.984   1.380  0.00  0.00    -0.610 N 
ATOM      4  C   LIG    1       -1.954   0.140   2.588  0.00  0.00    +0.250 C 
ATOM      5  C   LIG    1       -0.803   0.676   3.476  0.00  0.00    +0.040 C 
ATOM      6  C   LIG    1        0.274   1.029   2.414  0.00  0.00    +0.040 C 
ATOM      7  C   LIG    1       -0.570   1.536   1.225  0.00  0.00    +0.210 C 
ENDROOT
BRANCH   2   8
ATOM      8  C   LIG    1       -4.268   0.487   0.767  0.00  0.00    -0.010 C 
ATOM      9  C   LIG    1       -4.034  -1.021   0.662  0.00  0.00    +0.030 C 
ATOM     10  C   LIG    1       -5.350  -1.760   0.922  0.00  0.00    +0.050 C 
ATOM     11  C   LIG    1       -6.398  -1.288  -0.083  0.00  0.00    -0.080 C 
ATOM     12  C   LIG    1       -6.613   0.224  -0.055  0.00  0.00    +0.030 C 
ATOM     13  C   LIG    1       -6.187  -1.850  -1.495  0.00  0.00    +0.010 C 
ATOM     14  C   LIG    1       -7.065  -3.038  -1.066  0.00  0.00    +0.010 C 
ATOM     15  C   LIG    1       -7.703  -2.094  -0.032  0.00  0.00    +0.020 C 
ATOM     16  C   LIG    1       -5.275   0.928  -0.297  0.00  0.00    +0.040 C 
ENDBRANCH   2   8
BRANCH   7  17
ATOM     17  C   LIG    1        0.042   1.051  -0.091  0.00  0.00    +0.280 C 
BRANCH  17  18
ATOM     18  N   LIG    1       -0.781   1.514  -1.212  0.00  0.00    -0.680 N 
ATOM     19  H   LIG    1       -1.453   0.929  -1.594  0.00  0.00    +0.410 HD
BRANCH  18  20
ATOM     20  C   LIG    1       -0.598   2.786  -1.724  0.00  0.00    +0.510 A 
ATOM     21  C   LIG    1       -1.332   3.219  -2.859  0.00  0.00    -0.210 A 
ATOM     22  C   LIG    1       -1.103   4.513  -3.322  0.00  0.00    +0.110 A 
ATOM     23  S   LIG    1       -2.120   4.827  -4.719  0.00  0.00    +0.150 S 
ATOM     24  C   LIG    1       -2.840   3.227  -4.650  0.00  0.00    -0.190 A 
ATOM     25  C   LIG    1       -3.898   2.722  -5.615  0.00  0.00    +0.120 C 
ATOM     26  C   LIG    1       -3.975   1.197  -5.511  0.00  0.00    +0.020 C 
ATOM     27  C   LIG    1       -4.099   0.805  -4.035  0.00  0.00    +0.020 C 
ATOM     28  C   LIG    1       -2.771   1.084  -3.330  0.00  0.00    +0.090 C 
ATOM     29  N   LIG    1       -0.205   5.283  -2.693  0.00  0.00    -0.540 NA
ATOM     30  C   LIG    1        0.453   4.836  -1.648  0.00  0.00    +0.550 A 
ATOM     31  C   LIG    1       -2.340   2.512  -3.641  0.00  0.00    -0.040 A 
ATOM     32  N   LIG    1        0.269   3.619  -1.168  0.00  0.00    -0.590 NA
ENDBRANCH  18  20
ENDBRANCH  17  18
ENDBRANCH   7  17
TORSDOF 4
