REMARK  Name = ZINCrD000006EQFP.0
REMARK                            x       y       z     vdW  Elec       q    Type
REMARK                         _______ _______ _______ _____ _____    ______ ____
ROOT
ATOM      1  C   LIG    1        2.377   0.487   0.111  0.00  0.00    -0.140 C 
ATOM      2  C   LIG    1        2.476   0.017   1.564  0.00  0.00    +0.040 C 
ATOM      3  C   LIG    1        3.744   0.383   0.790  0.00  0.00    +0.040 C 
ENDROOT
BRANCH   1   4
ATOM      4  C   LIG    1        1.818   1.889  -0.141  0.00  0.00    +0.300 C 
BRANCH   4   7
ATOM      5  O   LIG    1        1.367   4.382  -1.060  0.00  0.00    -0.540 OA
ATOM      6  C   LIG    1        2.362   3.841  -1.493  0.00  0.00    +0.510 C 
ATOM      7  N   LIG    1        2.676   2.591  -1.098  0.00  0.00    -0.730 N 
ATOM      8  H   LIG    1        3.472   2.159  -1.445  0.00  0.00    +0.400 HD
BRANCH   6   9
ATOM      9  C   LIG    1        3.248   4.567  -2.473  0.00  0.00    +0.070 C 
BRANCH   9  10
ATOM     10  C   LIG    1        2.671   5.956  -2.751  0.00  0.00    +0.170 C 
BRANCH  10  11
ATOM     11  C   LIG    1        3.557   6.681  -3.731  0.00  0.00    +0.210 A 
ATOM     12  N   LIG    1        4.836   6.894  -3.587  0.00  0.00    -0.490 NA
ATOM     13  C   LIG    1        5.296   7.566  -4.652  0.00  0.00    +0.140 A 
ATOM     14  C   LIG    1        4.260   7.785  -5.486  0.00  0.00    +0.120 A 
ATOM     15  N   LIG    1        3.157   7.223  -4.902  0.00  0.00    -0.570 N 
ATOM     16  H   LIG    1        2.256   7.216  -5.261  0.00  0.00    +0.420 HD
ENDBRANCH  10  11
ENDBRANCH   9  10
ENDBRANCH   6   9
ENDBRANCH   4   7
ENDBRANCH   1   4
BRANCH   1  17
ATOM     17  C   LIG    1        2.034  -0.561  -0.949  0.00  0.00    +0.070 C 
BRANCH  17  18
ATOM     18  C   LIG    1        0.524  -0.811  -0.949  0.00  0.00    +0.270 C 
BRANCH  18  19
ATOM     19  N   LIG    1        0.210  -1.901  -1.876  0.00  0.00    -0.730 N 
ATOM     20  H   LIG    1        0.921  -2.337  -2.371  0.00  0.00    +0.400 HD
ATOM     21  C   LIG    1       -1.068  -2.298  -2.041  0.00  0.00    +0.560 C 
ATOM     22  O   LIG    1       -1.959  -1.751  -1.421  0.00  0.00    -0.520 OA
BRANCH  21  23
ATOM     23  C   LIG    1       -1.385  -3.397  -2.977  0.00  0.00    -0.120 A 
ATOM     24  C   LIG    1       -2.707  -3.810  -3.150  0.00  0.00    +0.110 A 
ATOM     25  C   LIG    1       -2.998  -4.837  -4.024  0.00  0.00    +0.050 A 
ATOM     26  C   LIG    1       -1.981  -5.459  -4.729  0.00  0.00    -0.010 A 
ATOM     27  C   LIG    1       -0.666  -5.053  -4.561  0.00  0.00    -0.040 A 
ATOM     28 CL   LIG    1        0.602  -5.839  -5.449  0.00  0.00    -0.040 Cl
ATOM     29 CL   LIG    1       -2.355  -6.751  -5.826  0.00  0.00    -0.040 Cl
ATOM     30  C   LIG    1       -0.364  -4.023  -3.694  0.00  0.00    +0.070 A 
ENDBRANCH  21  23
ENDBRANCH  18  19
ENDBRANCH  17  18
ENDBRANCH   1  17
TORSDOF 9
