REMARK  Name = ZINCrD000000C5X0.0
REMARK                            x       y       z     vdW  Elec       q    Type
REMARK                         _______ _______ _______ _____ _____    ______ ____
ROOT
ATOM      1  O   UNK A  0       -2.684   3.298   0.019  0.00  0.00    -0.530 OA
ATOM      2  C   UNK A  0       -3.040   2.274   0.569  0.00  0.00    +0.690 C 
ATOM      3  N   TRP A  1       -2.141   1.514   1.225  0.00  0.00    -0.720 N 
ATOM      4  H   TRP A  1       -2.425   0.697   1.664  0.00  0.00    +0.400 HD
ATOM      5  N   UNK A  0       -4.334   1.899   0.524  0.00  0.00    -0.670 N 
ATOM      6  H   UNK A  0       -4.605   1.046   0.898  0.00  0.00    +0.420 HD
ENDROOT
BRANCH   5   7
ATOM      7  C   UNK A  0       -5.282   2.737  -0.061  0.00  0.00    +0.390 A 
ATOM      8  C   UNK A  0       -6.628   2.394  -0.011  0.00  0.00    -0.030 A 
ATOM      9  C   UNK A  0       -7.560   3.238  -0.591  0.00  0.00    +0.110 A 
ATOM     10  C   UNK A  0       -7.109   4.394  -1.214  0.00  0.00    -0.010 A 
ATOM     11  C   UNK A  0       -5.756   4.668  -1.231  0.00  0.00    +0.070 A 
ATOM     12  N   UNK A  0       -4.892   3.848  -0.665  0.00  0.00    -0.440 NA
BRANCH  11  13
ATOM     13  C   UNK A  0       -5.260   5.921  -1.906  0.00  0.00    +0.520 C 
ATOM     14  F   UNK A  0       -5.739   7.042  -1.218  0.00  0.00    -0.170 F 
ATOM     15  F   UNK A  0       -5.720   5.953  -3.227  0.00  0.00    -0.170 F 
ATOM     16  F   UNK A  0       -3.861   5.933  -1.899  0.00  0.00    -0.150 F 
ENDBRANCH  11  13
ENDBRANCH   5   7
BRANCH   3  17
ATOM     17  CA  TRP A  1       -0.735   1.921   1.274  0.00  0.00    +0.270 C 
BRANCH  17  18
ATOM     18  CB  TRP A  1       -0.071   1.314   2.512  0.00  0.00    +0.130 C 
BRANCH  18  19
ATOM     19  CG  TRP A  1       -0.698   1.894   3.754  0.00  0.00    -0.170 A 
ATOM     20  CD1 TRP A  1       -0.246   2.941   4.463  0.00  0.00    +0.230 A 
ATOM     21  NE1 TRP A  1       -1.076   3.179   5.524  0.00  0.00    -0.590 N 
ATOM     22  HE1 TRP A  1       -0.954   3.884   6.179  0.00  0.00    +0.420 HD
ATOM     23  CE2 TRP A  1       -2.108   2.268   5.525  0.00  0.00    +0.090 A 
ATOM     24  CZ2 TRP A  1       -3.204   2.063   6.357  0.00  0.00    -0.010 A 
ATOM     25  CH2 TRP A  1       -4.086   1.039   6.087  0.00  0.00    +0.020 A 
ATOM     26  CZ3 TRP A  1       -3.893   0.209   4.992  0.00  0.00    -0.020 A 
ATOM     27  CE3 TRP A  1       -2.823   0.392   4.161  0.00  0.00    +0.040 A 
ATOM     28  CD2 TRP A  1       -1.921   1.427   4.412  0.00  0.00    -0.090 A 
ENDBRANCH  18  19
ENDBRANCH  17  18
BRANCH  17  29
ATOM     29  C   TRP A  1       -0.016   1.428   0.017  0.00  0.00    +0.170 C 
BRANCH  29  30
ATOM     30  O   TRP A  1        0.004  -0.001   0.010  0.00  0.00    -0.570 OA
ATOM     31  H   TRP A  1        0.446  -0.384  -0.761  0.00  0.00    +0.380 HD
ENDBRANCH  29  30
ENDBRANCH  17  29
ENDBRANCH   3  17
TORSDOF 7
