REMARK  Name = ZINCrD00000F5Ljs.0
REMARK                            x       y       z     vdW  Elec       q    Type
REMARK                         _______ _______ _______ _____ _____    ______ ____
ROOT
ATOM      1  N   LIG    1       -0.011   0.966   0.007  0.00  0.00    -0.720 N 
ATOM      2  H   LIG    1        0.002  -0.004   0.002  0.00  0.00    +0.400 HD
ATOM      3  C   LIG    1        1.147   1.655   0.000  0.00  0.00    +0.520 C 
ATOM      4  O   LIG    1        1.130   2.868   0.007  0.00  0.00    -0.510 OA
ENDROOT
BRANCH   1   5
ATOM      5  C   LIG    1       -1.290   1.681   0.017  0.00  0.00    +0.330 C 
BRANCH   5   9
ATOM      6  C   LIG    1       -4.503  -1.141   0.011  0.00  0.00    +0.110 A 
ATOM      7  C   LIG    1       -3.985  -0.674  -1.186  0.00  0.00    -0.040 A 
ATOM      8  C   LIG    1       -2.949   0.242  -1.181  0.00  0.00    +0.040 A 
ATOM      9  C   LIG    1       -2.422   0.686   0.017  0.00  0.00    -0.110 A 
ATOM     10  C   LIG    1       -2.934   0.224   1.216  0.00  0.00    -0.010 A 
ATOM     11  C   LIG    1       -3.975  -0.690   1.217  0.00  0.00    +0.100 A 
BRANCH   6  13
ATOM     12  C   LIG    1       -6.016  -2.457  -1.267  0.00  0.00    +0.240 C 
ATOM     13  O   LIG    1       -5.525  -2.038   0.008  0.00  0.00    -0.310 OA
ENDBRANCH   6  13
BRANCH  11  14
ATOM     14  O   LIG    1       -4.480  -1.145   2.395  0.00  0.00    -0.310 OA
ATOM     15  C   LIG    1       -3.889  -0.639   3.594  0.00  0.00    +0.240 C 
ENDBRANCH  11  14
ENDBRANCH   5   9
ENDBRANCH   1   5
BRANCH   3  16
ATOM     16  C   LIG    1        2.462   0.920  -0.017  0.00  0.00    +0.250 C 
BRANCH  16  17
ATOM     17  O   LIG    1        3.535   1.863  -0.022  0.00  0.00    -0.320 OA
BRANCH  17  18
ATOM     18  C   LIG    1        4.789   1.365  -0.036  0.00  0.00    +0.500 C 
ATOM     19  O   LIG    1        4.965   0.161  -0.044  0.00  0.00    -0.510 OA
BRANCH  18  20
ATOM     20  C   LIG    1        5.936   2.271  -0.042  0.00  0.00    -0.040 C 
ATOM     21  C   LIG    1        7.190   1.772  -0.057  0.00  0.00    +0.140 C 
BRANCH  21  22
ATOM     22  C   LIG    1        8.345   2.685  -0.063  0.00  0.00    -0.080 A 
ATOM     23  C   LIG    1        9.646   2.172  -0.078  0.00  0.00    +0.070 A 
ATOM     24  C   LIG    1       10.723   3.033  -0.085  0.00  0.00    +0.020 A 
ATOM     25  C   LIG    1       10.520   4.401  -0.076  0.00  0.00    +0.070 A 
ATOM     26  C   LIG    1        9.234   4.918  -0.061  0.00  0.00    -0.090 A 
ATOM     27 BR   LIG    1        8.970   6.790  -0.048  0.00  0.00    -0.040 Br
ATOM     28  C   LIG    1        8.147   4.069  -0.060  0.00  0.00    +0.070 A 
ENDBRANCH  21  22
ENDBRANCH  18  20
ENDBRANCH  17  18
ENDBRANCH  16  17
ENDBRANCH   3  16
TORSDOF 9
