REMARK  Name = ZINCrg00000J10Fy.0
REMARK                            x       y       z     vdW  Elec       q    Type
REMARK                         _______ _______ _______ _____ _____    ______ ____
ROOT
ATOM      1  C   LIG    1        1.262   1.835  -0.238  0.00  0.00    +0.330 C 
ATOM      2  N   LIG    1        0.082   0.963  -0.113  0.00  0.00    -0.650 N 
ATOM      3  H   LIG    1        0.160   0.003  -0.227  0.00  0.00    +0.450 HD
ATOM      4  C   LIG    1       -1.110   1.531   0.158  0.00  0.00    +0.560 C 
ATOM      5  N   LIG    1       -1.247   2.852   0.326  0.00  0.00    -0.600 N 
ATOM      6  H   LIG    1       -2.131   3.199   0.523  0.00  0.00    +0.440 HD
ATOM      7  C   LIG    1       -0.214   3.739   0.231  0.00  0.00    +0.170 C 
ATOM      8  C   LIG    1       -0.478   5.209   0.432  0.00  0.00    +0.150 C 
ATOM      9  S   LIG    1       -2.491   0.529   0.298  0.00  0.00    -0.590 S 
ATOM     10  C   LIG    1        1.040   3.321  -0.042  0.00  0.00    -0.240 C 
ENDROOT
BRANCH   1  13
ATOM     11  C   LIG    1        2.835   0.703   3.007  0.00  0.00    +0.160 A 
ATOM     12  C   LIG    1        1.897   1.120   2.074  0.00  0.00    -0.030 A 
ATOM     13  C   LIG    1        2.284   1.382   0.773  0.00  0.00    -0.060 A 
ATOM     14  C   LIG    1        3.604   1.223   0.395  0.00  0.00    +0.030 A 
ATOM     15  C   LIG    1        4.549   0.811   1.322  0.00  0.00    +0.080 A 
ATOM     16  O   LIG    1        5.891   0.587   1.207  0.00  0.00    -0.300 OA
ATOM     17  C   LIG    1        6.247  -0.208   2.354  0.00  0.00    +0.440 C 
ATOM     18  O   LIG    1        5.265   0.156   3.341  0.00  0.00    -0.300 OA
ATOM     19  C   LIG    1        4.164   0.547   2.632  0.00  0.00    +0.010 A 
BRANCH  11  21
ATOM     20  C   LIG    1        1.071   0.626   4.601  0.00  0.00    +0.260 C 
ATOM     21  O   LIG    1        2.454   0.446   4.287  0.00  0.00    -0.310 OA
ENDBRANCH  11  21
ENDBRANCH   1  13
BRANCH  10  22
ATOM     22  C   LIG    1        2.113   4.241  -0.142  0.00  0.00    +0.590 C 
ATOM     23  N   LIG    1        2.305   4.932  -1.283  0.00  0.00    -0.610 N 
ATOM     24  C   LIG    1        1.491   4.661  -2.478  0.00  0.00    +0.240 C 
ATOM     25  C   LIG    1        0.934   5.998  -2.993  0.00  0.00    +0.220 C 
ATOM     26  O   LIG    1        2.013   6.923  -3.156  0.00  0.00    -0.370 OA
ATOM     27  C   LIG    1        2.696   7.245  -1.942  0.00  0.00    +0.220 C 
ATOM     28  C   LIG    1        3.339   5.975  -1.373  0.00  0.00    +0.260 C 
ATOM     29  O   LIG    1        2.862   4.407   0.804  0.00  0.00    -0.510 OA
ENDBRANCH  10  22
TORSDOF 3
