REMARK  Name = ZINCqH0000006pBk.0
REMARK                            x       y       z     vdW  Elec       q    Type
REMARK                         _______ _______ _______ _____ _____    ______ ____
ROOT
ATOM      1  C   LIG    1        4.864   1.058  -0.255  0.00  0.00    +0.060 C 
ENDROOT
BRANCH   1   2
ATOM      2  C   LIG    1        6.009   2.067  -0.362  0.00  0.00    +0.320 C 
ATOM      3  C   LIG    1        7.327   1.334  -0.369  0.00  0.00    -0.100 A 
ATOM      4  C   LIG    1        7.962   1.018   0.812  0.00  0.00    +0.030 A 
ATOM      5  C   LIG    1        9.166   0.334   0.787  0.00  0.00    +0.010 A 
ATOM      6  C   LIG    1        9.737  -0.036  -0.417  0.00  0.00    +0.020 A 
ATOM      7  C   LIG    1        9.113   0.279  -1.608  0.00  0.00    +0.020 A 
ATOM      8  C   LIG    1        7.904   0.974  -1.590  0.00  0.00    -0.030 A 
ATOM      9  C   LIG    1        7.228   1.344  -2.848  0.00  0.00    -0.040 C 
ATOM     10  C   LIG    1        6.235   2.241  -2.817  0.00  0.00    +0.240 C 
ATOM     11  N   LIG    1        5.878   2.828  -1.609  0.00  0.00    -0.560 N 
ATOM     12  C   LIG    1        5.412   4.092  -1.584  0.00  0.00    +0.520 C 
ATOM     13  O   LIG    1        5.101   4.603  -0.529  0.00  0.00    -0.480 OA
ATOM     14  C   LIG    1        5.279   4.872  -2.866  0.00  0.00    +0.100 C 
ENDBRANCH   1   2
BRANCH   1  17
ATOM     15  N   LIG    1        2.402   1.106  -0.015  0.00  0.00    -0.680 N 
ATOM     16  H   LIG    1        2.419   0.138   0.047  0.00  0.00    +0.410 HD
ATOM     17  C   LIG    1        3.556   1.795  -0.124  0.00  0.00    +0.500 C 
ATOM     18  O   LIG    1        3.541   3.008  -0.118  0.00  0.00    -0.480 OA
BRANCH  15  23
ATOM     19  C   LIG    1       -1.145   1.903  -0.566  0.00  0.00    -0.080 A 
ATOM     20  C   LIG    1       -1.236   3.135   0.055  0.00  0.00    +0.010 A 
ATOM     21  C   LIG    1       -0.120   3.698   0.647  0.00  0.00    +0.030 A 
ATOM     22  C   LIG    1        1.087   3.028   0.626  0.00  0.00    +0.030 A 
ATOM     23  C   LIG    1        1.180   1.788   0.008  0.00  0.00    +0.140 A 
ATOM     24  C   LIG    1        0.059   1.225  -0.586  0.00  0.00    -0.010 A 
BRANCH  19  25
ATOM     25  C   LIG    1       -2.361   1.296  -1.216  0.00  0.00    +0.220 C 
BRANCH  25  27
ATOM     26  C   LIG    1       -4.243  -0.122  -0.778  0.00  0.00    +0.200 C 
ATOM     27  O   LIG    1       -3.066   0.502  -0.261  0.00  0.00    -0.390 OA
ENDBRANCH  25  27
ENDBRANCH  19  25
ENDBRANCH  15  23
ENDBRANCH   1  17
TORSDOF 5
