REMARK  Name = ZINCqH0000033Kl6.0
REMARK                            x       y       z     vdW  Elec       q    Type
REMARK                         _______ _______ _______ _____ _____    ______ ____
ROOT
ATOM      1  N   LIG    1        7.082  -1.576   3.368  0.00  0.00    -0.720 N 
ATOM      2  H   LIG    1        7.633  -0.784   3.261  0.00  0.00    +0.400 HD
ATOM      3  C   LIG    1        5.820  -1.588   2.896  0.00  0.00    +0.560 C 
ATOM      4  O   LIG    1        5.130  -2.580   3.030  0.00  0.00    -0.520 OA
ENDROOT
BRANCH   3   5
ATOM      5  C   LIG    1        5.274  -0.395   2.214  0.00  0.00    -0.110 A 
ATOM      6  C   LIG    1        6.064   0.745   2.058  0.00  0.00    +0.020 A 
ATOM      7  C   LIG    1        5.553   1.858   1.422  0.00  0.00    +0.040 A 
ATOM      8  C   LIG    1        4.261   1.846   0.931  0.00  0.00    +0.000 A 
ATOM      9  C   LIG    1        3.464   0.717   1.086  0.00  0.00    +0.160 A 
ATOM     10  C   LIG    1        3.968  -0.405   1.724  0.00  0.00    +0.070 A 
BRANCH   9  11
ATOM     11  N   LIG    1        2.154   0.712   0.592  0.00  0.00    -0.560 N 
ATOM     12  C   LIG    1        1.484   1.882   0.012  0.00  0.00    +0.260 C 
ATOM     13  C   LIG    1       -0.023   1.539   0.021  0.00  0.00    +0.060 C 
ATOM     14  C   LIG    1        0.005  -0.007  -0.007  0.00  0.00    +0.070 C 
ATOM     15  C   LIG    1        1.349  -0.364   0.589  0.00  0.00    +0.510 C 
ATOM     16  O   LIG    1        1.656  -1.462   1.003  0.00  0.00    -0.500 OA
ENDBRANCH   9  11
ENDBRANCH   3   5
BRANCH   1  17
ATOM     17  C   LIG    1        7.623  -2.758   4.043  0.00  0.00    +0.290 C 
ATOM     18  C   LIG    1        7.226  -2.728   5.521  0.00  0.00    +0.040 C 
BRANCH  17  22
ATOM     19  C   LIG    1       11.884  -2.763   3.715  0.00  0.00    +0.130 A 
ATOM     20  C   LIG    1       11.175  -3.949   3.584  0.00  0.00    -0.020 A 
ATOM     21  C   LIG    1        9.798  -3.945   3.691  0.00  0.00    +0.070 A 
ATOM     22  C   LIG    1        9.126  -2.760   3.927  0.00  0.00    -0.130 A 
ATOM     23  C   LIG    1        9.829  -1.576   4.052  0.00  0.00    +0.050 A 
ATOM     24  C   LIG    1       11.206  -1.575   3.952  0.00  0.00    -0.070 A 
BRANCH  19  25
ATOM     25  O   LIG    1       13.239  -2.764   3.610  0.00  0.00    -0.320 OA
BRANCH  25  27
ATOM     26  C   LIG    1       15.412  -1.706   3.608  0.00  0.00    +0.070 C 
ATOM     27  C   LIG    1       13.902  -1.507   3.755  0.00  0.00    +0.170 C 
ENDBRANCH  25  27
ENDBRANCH  19  25
ENDBRANCH  17  22
ENDBRANCH   1  17
TORSDOF 6
