REMARK  Name = ZINCtV00000L6kcS.0
REMARK                            x       y       z     vdW  Elec       q    Type
REMARK                         _______ _______ _______ _____ _____    ______ ____
ROOT
ATOM      1  S   LIG    1        5.191   4.169  -0.024  0.00  0.00    +2.590 S 
ATOM      2  O   LIG    1        4.959   5.464  -0.560  0.00  0.00    -0.940 OA
ATOM      3  O   LIG    1        6.124   3.253  -0.582  0.00  0.00    -0.940 OA
ENDROOT
BRANCH   1   7
ATOM      4  C   LIG    1        1.185   2.058   0.002  0.00  0.00    +0.190 A 
ATOM      5  C   LIG    1        2.359   1.320  -0.008  0.00  0.00    -0.090 A 
ATOM      6  C   LIG    1        3.580   1.966  -0.022  0.00  0.00    +0.170 A 
ATOM      7  C   LIG    1        3.633   3.348  -0.014  0.00  0.00    -0.700 A 
ATOM      8  C   LIG    1        2.464   4.086   0.000  0.00  0.00    +0.170 A 
ATOM      9  C   LIG    1        1.240   3.444   0.009  0.00  0.00    -0.030 A 
BRANCH   4  10
ATOM     10  O   LIG    1       -0.017   1.425   0.010  0.00  0.00    -0.310 OA
BRANCH  10  11
ATOM     11  C   LIG    1        0.002  -0.004   0.002  0.00  0.00    +0.190 C 
BRANCH  11  12
ATOM     12  C   LIG    1       -1.433  -0.534   0.013  0.00  0.00    +0.040 C 
BRANCH  12  13
ATOM     13  C   LIG    1       -1.413  -2.063   0.004  0.00  0.00    +0.020 C 
BRANCH  13  14
ATOM     14  C   LIG    1       -2.848  -2.593   0.015  0.00  0.00    +0.000 C 
BRANCH  14  16
ATOM     15  C   LIG    1       -4.263  -4.652   0.018  0.00  0.00    +0.000 C 
ATOM     16  C   LIG    1       -2.827  -4.123   0.007  0.00  0.00    -0.010 C 
ENDBRANCH  14  16
ENDBRANCH  13  14
ENDBRANCH  12  13
ENDBRANCH  11  12
ENDBRANCH  10  11
ENDBRANCH   4  10
ENDBRANCH   1   7
BRANCH   1  17
ATOM     17  C   LIG    1        5.668   4.403   1.656  0.00  0.00    -0.700 A 
ATOM     18  C   LIG    1        5.302   5.557   2.323  0.00  0.00    +0.170 A 
ATOM     19  C   LIG    1        5.670   5.741   3.642  0.00  0.00    -0.090 A 
ATOM     20  C   LIG    1        6.418   4.771   4.293  0.00  0.00    +0.190 A 
ATOM     21  C   LIG    1        6.790   3.616   3.620  0.00  0.00    -0.030 A 
ATOM     22  C   LIG    1        6.414   3.434   2.303  0.00  0.00    +0.170 A 
BRANCH  20  23
ATOM     23  O   LIG    1        6.787   4.952   5.588  0.00  0.00    -0.310 OA
BRANCH  23  24
ATOM     24  C   LIG    1        6.370   6.165   6.218  0.00  0.00    +0.190 C 
BRANCH  24  25
ATOM     25  C   LIG    1        6.875   6.190   7.662  0.00  0.00    +0.040 C 
BRANCH  25  26
ATOM     26  C   LIG    1        6.428   7.488   8.337  0.00  0.00    +0.020 C 
BRANCH  26  27
ATOM     27  C   LIG    1        6.934   7.513   9.781  0.00  0.00    +0.000 C 
BRANCH  27  28
ATOM     28  C   LIG    1        6.487   8.812  10.455  0.00  0.00    -0.010 C 
ATOM     29  C   LIG    1        6.992   8.837  11.899  0.00  0.00    +0.000 C 
ENDBRANCH  27  28
ENDBRANCH  26  27
ENDBRANCH  25  26
ENDBRANCH  24  25
ENDBRANCH  23  24
ENDBRANCH  20  23
ENDBRANCH   1  17
TORSDOF 14
