REMARK  Name = ZINCpe000000YliA.0
REMARK                            x       y       z     vdW  Elec       q    Type
REMARK                         _______ _______ _______ _____ _____    ______ ____
ROOT
ATOM      1  N   LIG    1        1.079   3.408   0.011  0.00  0.00    -0.640 N 
ATOM      2  H   LIG    1        1.909   3.909   0.005  0.00  0.00    +0.420 HD
ATOM      3  C   LIG    1       -0.101   4.059   0.026  0.00  0.00    +0.700 C 
ATOM      4  N   LIG    1       -0.127   5.407   0.034  0.00  0.00    -0.730 N 
ATOM      5  H   LIG    1        0.704   5.908   0.028  0.00  0.00    +0.400 HD
ATOM      6  O   LIG    1       -1.142   3.432   0.032  0.00  0.00    -0.510 OA
ENDROOT
BRANCH   1  12
ATOM      7  C   LIG    1        3.612  -0.817  -0.036  0.00  0.00    +0.330 C 
ATOM      8  N   LIG    1        2.361  -0.055  -0.020  0.00  0.00    -0.480 N 
ATOM      9  C   LIG    1        1.161  -0.699  -0.012  0.00  0.00    +0.210 A 
ATOM     10  C   LIG    1        0.002  -0.004   0.002  0.00  0.00    +0.180 A 
ATOM     11  N   LIG    1       -0.016   1.328   0.009  0.00  0.00    -0.410 NA
ATOM     12  C   LIG    1        1.105   2.016   0.002  0.00  0.00    +0.310 A 
ATOM     13  C   LIG    1        2.383   1.297  -0.014  0.00  0.00    +0.490 A 
ATOM     14  O   LIG    1        3.441   1.904  -0.021  0.00  0.00    -0.530 OA
ENDBRANCH   1  12
BRANCH   4  15
ATOM     15  C   LIG    1       -1.409   6.115   0.050  0.00  0.00    +0.270 C 
ATOM     16  C   LIG    1       -1.244   7.546  -0.513  0.00  0.00    +0.080 C 
ATOM     17  C   LIG    1       -1.011   8.365   0.780  0.00  0.00    +0.270 C 
ATOM     18  N   LIG    1       -1.649   7.593   1.853  0.00  0.00    -0.580 N 
ATOM     19  C   LIG    1       -1.879   6.325   1.472  0.00  0.00    +0.510 C 
ATOM     20  O   LIG    1       -2.389   5.473   2.168  0.00  0.00    -0.490 OA
BRANCH  18  21
ATOM     21  C   LIG    1       -1.977   8.113   3.112  0.00  0.00    +0.110 A 
ATOM     22  C   LIG    1       -1.060   8.046   4.152  0.00  0.00    +0.050 A 
ATOM     23  C   LIG    1       -1.384   8.564   5.391  0.00  0.00    +0.020 A 
ATOM     24  C   LIG    1       -2.624   9.138   5.601  0.00  0.00    +0.060 A 
ATOM     25  C   LIG    1       -3.543   9.202   4.569  0.00  0.00    -0.010 A 
ATOM     26  C   LIG    1       -3.224   8.691   3.325  0.00  0.00    +0.110 A 
ATOM     27  F   LIG    1       -4.121   8.754   2.317  0.00  0.00    -0.130 F 
ENDBRANCH  18  21
ENDBRANCH   4  15
TORSDOF 3
