REMARK  Name = ZINCtV000002sroP.0
REMARK                            x       y       z     vdW  Elec       q    Type
REMARK                         _______ _______ _______ _____ _____    ______ ____
ROOT
ATOM      1  C   LIG    1       -4.499   1.306   1.740  0.00  0.00    +0.080 C 
ATOM      2  C   LIG    1       -5.017   0.787   0.398  0.00  0.00    +0.080 C 
ENDROOT
BRANCH   1   3
ATOM      3  C   LIG    1       -5.610   2.019   2.466  0.00  0.00    -0.090 A 
ATOM      4  C   LIG    1       -6.210   3.126   1.893  0.00  0.00    +0.060 A 
ATOM      5  C   LIG    1       -7.235   3.784   2.551  0.00  0.00    +0.000 A 
ATOM      6  C   LIG    1       -7.658   3.346   3.788  0.00  0.00    +0.060 A 
ATOM      7  C   LIG    1       -7.053   2.232   4.375  0.00  0.00    -0.160 A 
ATOM      8  C   LIG    1       -6.023   1.570   3.703  0.00  0.00    +0.080 A 
BRANCH   7   9
ATOM      9  C   LIG    1       -7.501   1.756   5.700  0.00  0.00    +0.440 C 
ATOM     10  O   LIG    1       -7.530   0.565   5.940  0.00  0.00    -0.440 OA
BRANCH   9  11
ATOM     11  C   LIG    1       -7.913   2.729   6.733  0.00  0.00    -0.160 A 
ATOM     12  C   LIG    1       -7.726   4.097   6.524  0.00  0.00    +0.060 A 
ATOM     13  C   LIG    1       -8.118   4.999   7.491  0.00  0.00    +0.000 A 
ATOM     14  C   LIG    1       -8.686   4.551   8.670  0.00  0.00    +0.040 A 
ATOM     15  C   LIG    1       -8.870   3.197   8.887  0.00  0.00    +0.000 A 
ATOM     16  C   LIG    1       -8.487   2.284   7.926  0.00  0.00    +0.070 A 
ENDBRANCH   9  11
ENDBRANCH   7   9
ENDBRANCH   1   3
BRANCH   1  17
ATOM     17  C   LIG    1       -3.359   2.264   1.502  0.00  0.00    +0.460 C 
ATOM     18  O   LIG    1       -3.441   3.407   1.883  0.00  0.00    -0.500 OA
BRANCH  17  19
ATOM     19  O   LIG    1       -2.253   1.846   0.867  0.00  0.00    -0.350 OA
BRANCH  19  26
ATOM     20  C   LIG    1       -0.424   2.490  -0.607  0.00  0.00    +0.000 C 
ATOM     21  C   LIG    1        0.690   3.518  -0.811  0.00  0.00    +0.020 C 
ATOM     22  C   LIG    1        1.644   3.482   0.384  0.00  0.00    +0.010 C 
ATOM     23  C   LIG    1        0.872   3.814   1.663  0.00  0.00    -0.010 C 
ATOM     24  C   LIG    1       -0.242   2.785   1.868  0.00  0.00    +0.010 C 
ATOM     25  C   LIG    1        0.260   5.211   1.541  0.00  0.00    +0.030 C 
ATOM     26  C   LIG    1       -1.196   2.822   0.672  0.00  0.00    +0.180 C 
BRANCH  20  28
ATOM     27  C   LIG    1       -1.886   3.954  -2.006  0.00  0.00    +0.020 C 
ATOM     28  C   LIG    1       -1.378   2.526  -1.802  0.00  0.00    -0.010 C 
ATOM     29  C   LIG    1       -0.638   2.064  -3.059  0.00  0.00    +0.020 C 
ENDBRANCH  20  28
ENDBRANCH  19  26
ENDBRANCH  17  19
ENDBRANCH   1  17
TORSDOF 7
