REMARK  Name = ZINCqH0000036kEN.0
REMARK                            x       y       z     vdW  Elec       q    Type
REMARK                         _______ _______ _______ _____ _____    ______ ____
ROOT
ATOM      1  C   LIG    1        9.628   5.700  -0.118  0.00  0.00    +0.100 A 
ATOM      2  C   LIG    1       10.810   6.415  -0.021  0.00  0.00    -0.060 A 
ATOM      3  C   LIG    1       11.977   5.768   0.343  0.00  0.00    +0.030 A 
ATOM      4  C   LIG    1       11.967   4.412   0.607  0.00  0.00    +0.000 A 
ATOM      5  C   LIG    1       10.789   3.688   0.512  0.00  0.00    -0.080 A 
ATOM      6  C   LIG    1       10.817   2.211   0.805  0.00  0.00    +0.090 C 
ATOM      7  C   LIG    1        9.415   1.706   1.144  0.00  0.00    +0.020 C 
ATOM      8  C   LIG    1        8.445   2.156   0.043  0.00  0.00    +0.270 C 
ATOM      9  N   LIG    1        8.410   3.625   0.051  0.00  0.00    -0.550 N 
ATOM     10  C   LIG    1        7.237   4.282  -0.038  0.00  0.00    +0.540 C 
ATOM     11  O   LIG    1        7.154   5.433   0.347  0.00  0.00    -0.430 OA
ATOM     12  C   LIG    1        9.618   4.332   0.145  0.00  0.00    +0.130 A 
ENDROOT
BRANCH  10  13
ATOM     13  C   LIG    1        6.052   3.606  -0.602  0.00  0.00    -0.240 A 
ATOM     14  C   LIG    1        4.759   3.962  -0.196  0.00  0.00    +0.390 A 
ATOM     15  N   LIG    1        3.726   3.333  -0.724  0.00  0.00    -0.510 NA
ATOM     16  C   LIG    1        3.900   2.376  -1.626  0.00  0.00    +0.380 A 
ATOM     17  N   LIG    1        5.108   2.006  -2.033  0.00  0.00    -0.510 NA
ATOM     18  C   LIG    1        6.191   2.590  -1.557  0.00  0.00    +0.370 A 
BRANCH  16  19
ATOM     19  C   LIG    1        2.711   1.696  -2.192  0.00  0.00    -0.060 A 
ATOM     20  C   LIG    1        1.431   2.062  -1.776  0.00  0.00    +0.070 A 
ATOM     21  C   LIG    1        0.328   1.425  -2.306  0.00  0.00    +0.000 A 
ATOM     22  C   LIG    1        0.489   0.425  -3.247  0.00  0.00    +0.040 A 
ATOM     23  C   LIG    1        1.756   0.057  -3.664  0.00  0.00    +0.000 A 
ATOM     24  C   LIG    1        2.867   0.687  -3.141  0.00  0.00    +0.070 A 
ENDBRANCH  16  19
ENDBRANCH  10  13
BRANCH   1  26
ATOM     25  C   LIG    1        8.563   7.735  -0.736  0.00  0.00    +0.200 C 
ATOM     26  O   LIG    1        8.478   6.332  -0.475  0.00  0.00    -0.250 OA
ENDBRANCH   1  26
TORSDOF 3
