REMARK  Name = ZINCpe000000X0q6.0
REMARK                            x       y       z     vdW  Elec       q    Type
REMARK                         _______ _______ _______ _____ _____    ______ ____
ROOT
ATOM      1  N   LIG    1       -2.557   4.146   0.037  0.00  0.00    -0.560 N 
ATOM      2  C   LIG    1       -3.277   4.413  -1.068  0.00  0.00    +0.580 C 
ATOM      3  C   LIG    1       -4.615   4.885  -0.654  0.00  0.00    -0.080 A 
ATOM      4  C   LIG    1       -5.750   5.293  -1.336  0.00  0.00    +0.130 A 
ATOM      5  C   LIG    1       -6.872   5.692  -0.625  0.00  0.00    +0.160 A 
ATOM      6  C   LIG    1       -6.866   5.684   0.757  0.00  0.00    -0.030 A 
ATOM      7  C   LIG    1       -5.737   5.278   1.452  0.00  0.00    +0.190 A 
ATOM      8  C   LIG    1       -4.609   4.877   0.755  0.00  0.00    -0.130 A 
ATOM      9  O   LIG    1       -2.892   4.286  -2.212  0.00  0.00    -0.440 OA
ATOM     10  C   LIG    1       -3.268   4.396   1.151  0.00  0.00    +0.590 C 
ATOM     11  O   LIG    1       -2.875   4.251   2.291  0.00  0.00    -0.440 OA
ENDROOT
BRANCH   6  12
ATOM     12  N   LIG    1       -8.072   6.112   1.500  0.00  0.00    +0.020 N 
ATOM     13  O   LIG    1       -8.071   6.107   2.718  0.00  0.00    -0.140 OA
ATOM     14  O   LIG    1       -9.066   6.469   0.893  0.00  0.00    -0.140 OA
ENDBRANCH   6  12
BRANCH   1  15
ATOM     15  C   LIG    1       -1.177   3.652   0.028  0.00  0.00    +0.350 C 
BRANCH  15  23
ATOM     16  C   LIG    1        1.136  -1.995   1.006  0.00  0.00    +0.070 C 
ATOM     17  C   LIG    1        0.944  -0.481   1.114  0.00  0.00    +0.140 C 
ATOM     18  C   LIG    1        0.002  -0.004   0.002  0.00  0.00    +0.260 C 
ATOM     19  N   LIG    1       -0.018   1.467   0.010  0.00  0.00    -0.610 N 
ATOM     20  C   LIG    1        1.271   2.176   0.002  0.00  0.00    +0.250 C 
ATOM     21  C   LIG    1        2.151   1.593   1.113  0.00  0.00    +0.190 C 
ATOM     22  C   LIG    1        1.554   1.948   2.477  0.00  0.00    +0.010 C 
ATOM     23  C   LIG    1       -1.183   2.145   0.019  0.00  0.00    +0.510 C 
ATOM     24  O   LIG    1       -2.235   1.543   0.021  0.00  0.00    -0.520 OA
ATOM     25  O   LIG    1        2.208   0.172   0.972  0.00  0.00    -0.370 OA
ENDBRANCH  15  23
ENDBRANCH   1  15
TORSDOF 3
