REMARK  Name = ZINCvU00000009vF.0
REMARK                            x       y       z     vdW  Elec       q    Type
REMARK                         _______ _______ _______ _____ _____    ______ ____
ROOT
ATOM      1  C   LIG    1       -1.391   6.158   0.359  0.00  0.00    +0.370 C 
ENDROOT
BRANCH   1   2
ATOM      2  C   LIG    1       -2.222   6.021  -0.890  0.00  0.00    -0.160 A 
ATOM      3  C   LIG    1       -2.740   4.850  -1.290  0.00  0.00    +0.060 A 
ATOM      4  S   LIG    1       -3.646   5.086  -2.779  0.00  0.00    +0.220 S 
ATOM      5  C   LIG    1       -3.256   6.800  -2.782  0.00  0.00    -0.230 A 
ATOM      6  C   LIG    1       -3.699   7.789  -3.829  0.00  0.00    +0.140 C 
ATOM      7  C   LIG    1       -2.507   7.093  -1.719  0.00  0.00    -0.080 A 
ATOM      8  C   LIG    1       -2.008   8.488  -1.439  0.00  0.00    +0.100 C 
BRANCH   3   9
ATOM      9  N   LIG    1       -2.585   3.632  -0.626  0.00  0.00    -0.620 N 
ATOM     10  H   LIG    1       -2.030   3.579   0.168  0.00  0.00    +0.410 HD
ATOM     11  C   LIG    1       -3.206   2.529  -1.087  0.00  0.00    +0.600 C 
ATOM     12  O   LIG    1       -3.828   2.572  -2.133  0.00  0.00    -0.490 OA
BRANCH  11  13
ATOM     13  C   LIG    1       -3.134   1.275  -0.330  0.00  0.00    -0.090 A 
ATOM     14  C   LIG    1       -3.630   0.067  -0.728  0.00  0.00    +0.060 A 
ATOM     15  C   LIG    1       -3.340  -0.847   0.297  0.00  0.00    -0.060 A 
ATOM     16  C   LIG    1       -2.688  -0.165   1.265  0.00  0.00    +0.230 A 
ATOM     17  O   LIG    1       -2.561   1.113   0.881  0.00  0.00    -0.170 OA
ENDBRANCH  11  13
ENDBRANCH   3   9
ENDBRANCH   1   2
BRANCH   1  21
ATOM     18  C   LIG    1       -3.943   6.068   3.785  0.00  0.00    +0.130 A 
ATOM     19  C   LIG    1       -3.580   7.282   3.221  0.00  0.00    +0.000 A 
ATOM     20  C   LIG    1       -2.755   7.308   2.114  0.00  0.00    +0.070 A 
ATOM     21  C   LIG    1       -2.291   6.126   1.567  0.00  0.00    -0.120 A 
ATOM     22  C   LIG    1       -2.656   4.914   2.124  0.00  0.00    +0.030 A 
ATOM     23  C   LIG    1       -3.477   4.883   3.235  0.00  0.00    -0.070 A 
BRANCH  18  25
ATOM     24  C   LIG    1       -5.088   4.754   5.403  0.00  0.00    +0.250 C 
ATOM     25  O   LIG    1       -4.755   6.039   4.875  0.00  0.00    -0.310 OA
ENDBRANCH  18  25
ENDBRANCH   1  21
BRANCH   1  26
ATOM     26  N   LIG    1       -0.435   5.050   0.433  0.00  0.00    -0.730 N 
ATOM     27  H   LIG    1       -0.614   4.293   1.013  0.00  0.00    +0.400 HD
BRANCH  26  28
ATOM     28  C   LIG    1        0.728   5.083  -0.327  0.00  0.00    +0.400 A 
ATOM     29  C   LIG    1        0.945   6.138  -1.209  0.00  0.00    -0.100 A 
ATOM     30  C   LIG    1        2.109   6.161  -1.956  0.00  0.00    +0.090 A 
ATOM     31  C   LIG    1        3.015   5.120  -1.803  0.00  0.00    -0.100 A 
ATOM     32  C   LIG    1        2.736   4.105  -0.910  0.00  0.00    +0.290 A 
ATOM     33  N   LIG    1        1.619   4.112  -0.207  0.00  0.00    -0.540 NA
ENDBRANCH  26  28
ENDBRANCH   1  26
TORSDOF 7
