REMARK  Name = ZINCkj000005kd7c.0
REMARK                            x       y       z     vdW  Elec       q    Type
REMARK                         _______ _______ _______ _____ _____    ______ ____
ROOT
ATOM      1  C   LIG    1       -0.880  -1.934  -1.195  0.00  0.00    +0.530 C 
ATOM      2  N   LIG    1       -0.394  -0.678  -1.237  0.00  0.00    -0.710 N 
ATOM      3  H   LIG    1       -0.306  -0.220  -2.088  0.00  0.00    +0.410 HD
ATOM      4  O   LIG    1       -0.990  -2.507  -0.132  0.00  0.00    -0.500 OA
ENDROOT
BRANCH   2   5
ATOM      5  C   LIG    1        0.002  -0.004   0.002  0.00  0.00    +0.310 C 
ATOM      6  C   LIG    1        1.324   0.766  -0.006  0.00  0.00    -0.050 C 
ATOM      7  C   LIG    1        1.986   1.091   1.350  0.00  0.00    +0.320 C 
ATOM      8  N   LIG    1        1.372   2.378   1.767  0.00  0.00    -0.520 N 
ATOM      9  C   LIG    1       -0.055   2.246   1.376  0.00  0.00    +0.320 C 
ATOM     10  H   LIG    1        1.803   3.149   1.280  0.00  0.00    +0.430 HD
ATOM     11  H   LIG    1        1.454   2.501   2.765  0.00  0.00    +0.440 HD
ATOM     12  C   LIG    1       -0.019   1.526   0.010  0.00  0.00    -0.050 C 
ENDBRANCH   2   5
BRANCH   1  13
ATOM     13  C   LIG    1       -1.287  -2.627  -2.470  0.00  0.00    +0.230 C 
BRANCH  13  14
ATOM     14  O   LIG    1       -1.767  -3.939  -2.167  0.00  0.00    -0.300 OA
BRANCH  14  19
ATOM     15  C   LIG    1       -3.468  -7.105  -6.503  0.00  0.00    +0.100 C 
ATOM     16  C   LIG    1       -3.013  -6.258  -5.343  0.00  0.00    -0.070 A 
ATOM     17  C   LIG    1       -1.694  -6.304  -4.931  0.00  0.00    +0.010 A 
ATOM     18  C   LIG    1       -1.274  -5.528  -3.867  0.00  0.00    -0.090 A 
ATOM     19  C   LIG    1       -2.177  -4.703  -3.213  0.00  0.00    +0.070 A 
ATOM     20  C   LIG    1       -3.501  -4.663  -3.625  0.00  0.00    -0.090 A 
ATOM     21  C   LIG    1       -4.486  -3.772  -2.913  0.00  0.00    +0.090 C 
ATOM     22  C   LIG    1        0.164  -5.578  -3.418  0.00  0.00    +0.100 C 
ATOM     23  C   LIG    1       -3.915  -5.437  -4.692  0.00  0.00    +0.010 A 
ENDBRANCH  14  19
ENDBRANCH  13  14
ENDBRANCH   1  13
TORSDOF 4
