REMARK  Name = ZINCpe00000z45eX.0
REMARK                            x       y       z     vdW  Elec       q    Type
REMARK                         _______ _______ _______ _____ _____    ______ ____
ROOT
ATOM      1  C   LIG    1        2.808   3.527   2.355  0.00  0.00    +0.600 C 
ATOM      2  N   LIG    1        2.491   3.197   3.623  0.00  0.00    -0.600 N 
ATOM      3  C   LIG    1        1.442   3.927   4.351  0.00  0.00    +0.300 C 
ATOM      4  C   LIG    1        0.282   2.963   4.652  0.00  0.00    +0.110 C 
ATOM      5  C   LIG    1        0.850   1.668   5.177  0.00  0.00    +0.110 A 
ATOM      6  C   LIG    1        2.142   1.278   5.025  0.00  0.00    -0.250 A 
ATOM      7  C   LIG    1        2.292   0.032   5.627  0.00  0.00    +0.250 A 
ATOM      8  N   LIG    1        1.132  -0.319   6.128  0.00  0.00    -0.290 NA
ATOM      9  N   LIG    1        0.209   0.702   5.856  0.00  0.00    -0.360 N 
ATOM     10  C   LIG    1       -1.204   0.713   6.243  0.00  0.00    +0.360 C 
ATOM     11  C   LIG    1        3.191   2.100   4.315  0.00  0.00    +0.310 C 
ATOM     12  O   LIG    1        3.646   2.885   1.751  0.00  0.00    -0.500 OA
ENDROOT
BRANCH   1  15
ATOM     13  C   LIG    1        4.207   5.712   0.572  0.00  0.00    +0.160 C 
ATOM     14  C   LIG    1        2.742   5.630   0.916  0.00  0.00    +0.150 A 
ATOM     15  C   LIG    1        2.139   4.666   1.700  0.00  0.00    -0.290 A 
ATOM     16  C   LIG    1        0.762   4.976   1.757  0.00  0.00    +0.260 A 
ATOM     17  N   LIG    1        0.562   6.054   1.052  0.00  0.00    -0.290 NA
ATOM     18  N   LIG    1        1.784   6.484   0.522  0.00  0.00    -0.350 N 
BRANCH  18  19
ATOM     19  C   LIG    1        1.984   7.664  -0.322  0.00  0.00    +0.330 C 
BRANCH  19  20
ATOM     20  C   LIG    1        1.822   7.273  -1.792  0.00  0.00    -0.030 C 
ATOM     21  C   LIG    1        2.153   8.476  -2.679  0.00  0.00    +0.030 C 
ATOM     22  C   LIG    1        0.379   6.833  -2.047  0.00  0.00    +0.030 C 
ENDBRANCH  19  20
ENDBRANCH  18  19
ENDBRANCH   1  15
BRANCH  11  23
ATOM     23  C   LIG    1        3.922   1.245   3.313  0.00  0.00    +0.540 C 
ATOM     24  O   LIG    1        3.325   0.771   2.370  0.00  0.00    -0.510 OA
ATOM     25  N   LIG    1        5.239   1.006   3.466  0.00  0.00    -0.860 N 
ATOM     26  H   LIG    1        5.710   0.455   2.821  0.00  0.00    +0.400 HD
ATOM     27  H   LIG    1        5.717   1.384   4.220  0.00  0.00    +0.400 HD
ENDBRANCH  11  23
TORSDOF 4
