REMARK  Name = ZINCqH0000008u42.0
REMARK                            x       y       z     vdW  Elec       q    Type
REMARK                         _______ _______ _______ _____ _____    ______ ____
ROOT
ATOM      1  C   LIG    1       -1.263   0.687  -7.218  0.00  0.00    -0.130 A 
ATOM      2  C   LIG    1        0.074   0.450  -7.548  0.00  0.00    +0.090 A 
ATOM      3  C   LIG    1        0.409   0.071  -8.829  0.00  0.00    +0.010 A 
ATOM      4  C   LIG    1       -0.572  -0.064  -9.799  0.00  0.00    +0.070 A 
ATOM      5  C   LIG    1       -1.896   0.172  -9.491  0.00  0.00    +0.010 A 
ATOM      6  C   LIG    1       -2.255   0.549  -8.203  0.00  0.00    +0.210 A 
ENDROOT
BRANCH   1   7
ATOM      7  C   LIG    1       -1.629   1.086  -5.848  0.00  0.00    +0.510 C 
ATOM      8  O   LIG    1       -2.800   1.194  -5.539  0.00  0.00    -0.480 OA
BRANCH   7   9
ATOM      9  O   LIG    1       -0.666   1.332  -4.938  0.00  0.00    -0.330 OA
BRANCH   9  11
ATOM     10  C   LIG    1       -1.230   3.243  -3.538  0.00  0.00    +0.060 C 
ATOM     11  C   LIG    1       -1.100   1.720  -3.608  0.00  0.00    +0.190 C 
BRANCH  11  12
ATOM     12  C   LIG    1       -0.087   1.256  -2.593  0.00  0.00    +0.530 C 
ATOM     13  N   LIG    1       -0.329   1.416  -1.277  0.00  0.00    -0.620 N 
ATOM     14  C   LIG    1        0.568   1.011  -0.185  0.00  0.00    +0.250 C 
ATOM     15  C   LIG    1       -0.131   1.369   1.143  0.00  0.00    +0.040 C 
ATOM     16  C   LIG    1       -1.630   1.438   0.735  0.00  0.00    +0.040 C 
ATOM     17  C   LIG    1       -1.537   2.029  -0.694  0.00  0.00    +0.250 C 
ATOM     18  O   LIG    1        0.945   0.737  -2.961  0.00  0.00    -0.510 OA
ENDBRANCH  11  12
ENDBRANCH   9  11
ENDBRANCH   7   9
ENDBRANCH   1   7
BRANCH   6  19
ATOM     19  N   LIG    1       -3.587   0.787  -7.891  0.00  0.00    -0.690 N 
ATOM     20  H   LIG    1       -4.182   0.045  -7.702  0.00  0.00    +0.410 HD
BRANCH  19  21
ATOM     21  C   LIG    1       -4.071   2.099  -7.848  0.00  0.00    +0.220 A 
ATOM     22  C   LIG    1       -3.231   3.161  -8.158  0.00  0.00    -0.050 A 
ATOM     23  C   LIG    1       -3.713   4.455  -8.121  0.00  0.00    +0.020 A 
ATOM     24  C   LIG    1       -5.029   4.694  -7.764  0.00  0.00    +0.040 A 
ATOM     25  C   LIG    1       -5.867   3.638  -7.450  0.00  0.00    +0.030 A 
ATOM     26  F   LIG    1       -5.497   5.961  -7.723  0.00  0.00    -0.150 F 
ATOM     27  C   LIG    1       -5.391   2.342  -7.491  0.00  0.00    -0.020 A 
ENDBRANCH  19  21
ENDBRANCH   6  19
TORSDOF 6
