REMARK  Name = ZINCrH000004mRiS.0
REMARK                            x       y       z     vdW  Elec       q    Type
REMARK                         _______ _______ _______ _____ _____    ______ ____
ROOT
ATOM      1  C   LIG    1        1.188   2.087   0.021  0.00  0.00    +0.220 A 
ATOM      2  C   LIG    1        2.397   1.407   0.008  0.00  0.00    -0.070 A 
ATOM      3  C   LIG    1        2.413   0.026  -0.005  0.00  0.00    +0.130 A 
ATOM      4  C   LIG    1        1.219  -0.682  -0.007  0.00  0.00    +0.090 A 
ATOM      5  C   LIG    1        0.009  -0.000   0.006  0.00  0.00    +0.140 A 
ATOM      6  C   LIG    1       -0.006   1.380   0.019  0.00  0.00    -0.690 A 
ENDROOT
BRANCH   4   7
ATOM      7  N   LIG    1        1.234  -2.082  -0.020  0.00  0.00    -0.670 N 
ATOM      8  H   LIG    1        0.554  -2.579   0.461  0.00  0.00    +0.410 HD
ATOM      9  C   LIG    1        2.193  -2.739  -0.703  0.00  0.00    +0.560 C 
ATOM     10  O   LIG    1        3.093  -2.119  -1.236  0.00  0.00    -0.500 OA
BRANCH   9  11
ATOM     11  C   LIG    1        2.151  -4.212  -0.802  0.00  0.00    -0.140 A 
ATOM     12  C   LIG    1        1.120  -4.927  -0.191  0.00  0.00    +0.070 A 
ATOM     13  C   LIG    1        1.086  -6.303  -0.289  0.00  0.00    +0.020 A 
ATOM     14  C   LIG    1        2.071  -6.975  -0.990  0.00  0.00    +0.060 A 
ATOM     15  C   LIG    1        3.097  -6.274  -1.598  0.00  0.00    +0.020 A 
ATOM     16  C   LIG    1        3.141  -4.896  -1.514  0.00  0.00    +0.020 A 
ATOM     17 CL   LIG    1        4.424  -4.017  -2.284  0.00  0.00    -0.030 Cl
ENDBRANCH   9  11
ENDBRANCH   4   7
BRANCH   6  18
ATOM     18  S   LIG    1       -1.541   2.245   0.028  0.00  0.00    +2.700 S 
ATOM     19  O   LIG    1       -2.559   1.255   0.053  0.00  0.00    -0.960 OA
ATOM     20  O   LIG    1       -1.447   3.239  -0.984  0.00  0.00    -0.940 OA
BRANCH  18  21
ATOM     21  N   LIG    1       -1.640   3.054   1.470  0.00  0.00    -0.990 NA
ATOM     22  C   LIG    1       -2.253   2.418   2.644  0.00  0.00    +0.290 C 
ATOM     23  C   LIG    1       -1.258   2.488   3.812  0.00  0.00    +0.000 C 
ATOM     24  C   LIG    1       -0.840   3.944   4.033  0.00  0.00    +0.010 C 
ATOM     25  C   LIG    1       -0.145   4.473   2.776  0.00  0.00    +0.010 C 
ATOM     26  C   LIG    1       -1.122   4.423   1.597  0.00  0.00    +0.290 C 
ENDBRANCH  18  21
ENDBRANCH   6  18
BRANCH   1  28
ATOM     27  C   LIG    1        2.440   4.109   0.035  0.00  0.00    +0.250 C 
ATOM     28  O   LIG    1        1.174   3.446   0.034  0.00  0.00    -0.310 OA
ENDBRANCH   1  28
TORSDOF 5
