REMARK  Name = ZINCrD00000F5Lnc.0
REMARK                            x       y       z     vdW  Elec       q    Type
REMARK                         _______ _______ _______ _____ _____    ______ ____
ROOT
ATOM      1  N   LIG    1       -1.422   3.186   3.402  0.00  0.00    -0.970 NA
ENDROOT
BRANCH   1   2
ATOM      2  S   LIG    1       -1.163   3.691   4.958  0.00  0.00    +2.660 S 
ATOM      3  O   LIG    1        0.239   3.624   5.173  0.00  0.00    -0.950 OA
ATOM      4  O   LIG    1       -2.108   3.002   5.765  0.00  0.00    -0.930 OA
BRANCH   2   6
ATOM      5  C   LIG    1       -0.708   6.284   5.404  0.00  0.00    +0.220 C 
ATOM      6  C   LIG    1       -1.597   5.397   5.031  0.00  0.00    -0.580 C 
ENDBRANCH   2   6
ENDBRANCH   1   2
BRANCH   1   7
ATOM      7  C   LIG    1       -0.367   3.341   2.397  0.00  0.00    +0.270 C 
ATOM      8  C   LIG    1       -0.924   4.092   1.185  0.00  0.00    +0.050 C 
BRANCH   7   9
ATOM      9  C   LIG    1        0.127   1.961   1.958  0.00  0.00    +0.210 C 
BRANCH   9  10
ATOM     10  C   LIG    1        0.608   1.194   3.163  0.00  0.00    -0.100 A 
ATOM     11  C   LIG    1       -0.282   0.436   3.901  0.00  0.00    +0.030 A 
ATOM     12  C   LIG    1        0.160  -0.272   5.002  0.00  0.00    +0.040 A 
ATOM     13  C   LIG    1        1.491  -0.213   5.373  0.00  0.00    -0.080 A 
ATOM     14  C   LIG    1        2.380   0.550   4.638  0.00  0.00    +0.040 A 
ATOM     15 BR   LIG    1        2.095  -1.175   6.885  0.00  0.00    -0.050 Br
ATOM     16  C   LIG    1        1.938   1.253   3.534  0.00  0.00    +0.040 A 
ENDBRANCH   9  10
BRANCH   9  17
ATOM     17  O   LIG    1       -0.943   1.248   1.336  0.00  0.00    -0.370 OA
ATOM     18  C   LIG    1       -0.515   0.275   0.380  0.00  0.00    +0.200 C 
ENDBRANCH   9  17
ENDBRANCH   7   9
ENDBRANCH   1   7
BRANCH   1  19
ATOM     19  C   LIG    1       -2.705   2.584   3.030  0.00  0.00    +0.420 C 
BRANCH  19  20
ATOM     20  C   LIG    1       -3.787   3.631   3.091  0.00  0.00    +0.060 A 
ATOM     21  C   LIG    1       -3.696   4.900   2.630  0.00  0.00    -0.110 A 
ATOM     22  C   LIG    1       -4.917   5.537   2.878  0.00  0.00    +0.240 A 
ATOM     23  N   LIG    1       -5.709   4.683   3.474  0.00  0.00    -0.280 NA
ATOM     24  N   LIG    1       -5.018   3.473   3.620  0.00  0.00    -0.360 N 
BRANCH  24  25
ATOM     25  C   LIG    1       -5.541   2.251   4.237  0.00  0.00    +0.470 C 
BRANCH  25  26
ATOM     26  O   LIG    1       -5.121   2.190   5.602  0.00  0.00    -0.390 OA
ATOM     27  C   LIG    1       -5.569   1.024   6.295  0.00  0.00    +0.230 C 
ENDBRANCH  25  26
ENDBRANCH  24  25
ENDBRANCH  19  20
ENDBRANCH   1  19
TORSDOF 10
