REMARK  Name = ZINCrD0000075LNc.0
REMARK                            x       y       z     vdW  Elec       q    Type
REMARK                         _______ _______ _______ _____ _____    ______ ____
ROOT
ATOM      1  C   LIG    1        3.880   6.261   3.070  0.00  0.00    +0.150 A 
ATOM      2  C   LIG    1        4.425   5.989   1.822  0.00  0.00    +0.000 A 
ATOM      3  C   LIG    1        3.602   5.670   0.757  0.00  0.00    +0.040 A 
ATOM      4  C   LIG    1        2.234   5.615   0.930  0.00  0.00    +0.020 A 
ATOM      5  C   LIG    1        1.676   5.894   2.179  0.00  0.00    -0.100 A 
ATOM      6  C   LIG    1        2.507   6.215   3.252  0.00  0.00    +0.070 A 
ENDROOT
BRANCH   5   7
ATOM      7  C   LIG    1        0.210   5.841   2.365  0.00  0.00    +0.560 C 
ATOM      8  N   LIG    1       -0.476   4.740   2.001  0.00  0.00    -0.600 N 
ATOM      9  C   LIG    1        0.222   3.637   1.351  0.00  0.00    +0.260 C 
ATOM     10  C   LIG    1       -0.262   3.414  -0.076  0.00  0.00    +0.020 C 
ATOM     11  C   LIG    1       -1.738   3.006  -0.078  0.00  0.00    +0.080 C 
ATOM     12  C   LIG    1       -2.587   4.254  -0.103  0.00  0.00    -0.070 A 
ATOM     13  C   LIG    1       -3.289   4.588  -1.247  0.00  0.00    +0.000 A 
ATOM     14  C   LIG    1       -4.040   5.749  -1.279  0.00  0.00    +0.010 A 
ATOM     15  C   LIG    1       -4.101   6.568  -0.167  0.00  0.00    -0.010 A 
ATOM     16  C   LIG    1       -3.411   6.224   0.982  0.00  0.00    +0.040 A 
ATOM     17  C   LIG    1       -2.660   5.067   1.008  0.00  0.00    -0.110 A 
ATOM     18  C   LIG    1       -1.918   4.664   2.264  0.00  0.00    +0.340 C 
ATOM     19  O   LIG    1       -0.375   6.792   2.846  0.00  0.00    -0.520 OA
ENDBRANCH   5   7
BRANCH   1  22
ATOM     20  O   LIG    1        3.239   8.023   4.959  0.00  0.00    -0.490 OA
ATOM     21  C   LIG    1        4.300   7.449   5.089  0.00  0.00    +0.510 C 
ATOM     22  N   LIG    1        4.718   6.583   4.144  0.00  0.00    -0.670 N 
ATOM     23  H   LIG    1        5.599   6.183   4.209  0.00  0.00    +0.410 HD
BRANCH  21  24
ATOM     24  C   LIG    1        5.150   7.704   6.306  0.00  0.00    +0.170 C 
ATOM     25  C   LIG    1        6.451   8.446   5.908  0.00  0.00    +0.030 C 
ATOM     26  C   LIG    1        6.810   9.150   7.245  0.00  0.00    +0.020 C 
ATOM     27  C   LIG    1        5.418   9.473   7.830  0.00  0.00    +0.210 C 
ATOM     28  O   LIG    1        4.474   8.592   7.210  0.00  0.00    -0.350 OA
ENDBRANCH  21  24
ENDBRANCH   1  22
TORSDOF 3
