REMARK  Name = ZINCrD00000lbsUO.0
REMARK                            x       y       z     vdW  Elec       q    Type
REMARK                         _______ _______ _______ _____ _____    ______ ____
ROOT
ATOM      1  N   LIG    1        2.407   1.044  -0.012  0.00  0.00    -0.590 N 
ATOM      2  C   LIG    1        3.305   1.049   0.992  0.00  0.00    +0.560 C 
ATOM      3  O   LIG    1        3.181   1.832   1.916  0.00  0.00    -0.550 OA
ENDROOT
BRANCH   1   4
ATOM      4  C   LIG    1        1.280   1.980   0.007  0.00  0.00    +0.250 C 
ATOM      5  C   LIG    1        1.340   2.876  -1.232  0.00  0.00    +0.060 C 
BRANCH   4   6
ATOM      6  C   LIG    1       -0.014   1.209   0.007  0.00  0.00    +0.510 C 
ATOM      7  N   LIG    1       -1.191   1.867   0.018  0.00  0.00    -0.670 N 
ATOM      8  H   LIG    1       -1.205   2.833   0.098  0.00  0.00    +0.410 HD
ATOM      9  O   LIG    1        0.002  -0.004  -0.008  0.00  0.00    -0.510 OA
BRANCH   7  10
ATOM     10  C   LIG    1       -2.391   1.155  -0.086  0.00  0.00    +0.140 A 
ATOM     11  C   LIG    1       -3.468   1.704  -0.769  0.00  0.00    -0.010 A 
ATOM     12  C   LIG    1       -4.650   0.997  -0.875  0.00  0.00    +0.030 A 
ATOM     13  C   LIG    1       -4.765  -0.251  -0.291  0.00  0.00    -0.010 A 
ATOM     14  C   LIG    1       -3.696  -0.798   0.395  0.00  0.00    +0.030 A 
ATOM     15  C   LIG    1       -2.510  -0.099   0.499  0.00  0.00    +0.020 A 
ENDBRANCH   7  10
ENDBRANCH   4   6
ENDBRANCH   1   4
BRANCH   2  16
ATOM     16  C   LIG    1        4.396   0.142   0.973  0.00  0.00    -0.100 C 
ATOM     17  C   LIG    1        5.296   0.148   1.980  0.00  0.00    +0.180 C 
BRANCH  17  18
ATOM     18  C   LIG    1        6.426  -0.791   1.960  0.00  0.00    -0.240 A 
ATOM     19  C   LIG    1        7.760  -0.476   2.142  0.00  0.00    +0.110 A 
ATOM     20  N   LIG    1        8.459  -1.620   2.052  0.00  0.00    -0.360 N 
ATOM     21  N   LIG    1        7.566  -2.668   1.802  0.00  0.00    -0.300 NA
ATOM     22  C   LIG    1        9.912  -1.748   2.186  0.00  0.00    +0.360 C 
ATOM     23  C   LIG    1        8.325   0.897   2.398  0.00  0.00    +0.160 C 
ATOM     24  C   LIG    1        6.354  -2.188   1.746  0.00  0.00    +0.100 A 
ATOM     25  C   LIG    1        5.098  -2.981   1.495  0.00  0.00    +0.160 C 
ENDBRANCH  17  18
ENDBRANCH   2  16
BRANCH   1  26
ATOM     26  C   LIG    1        2.556   0.101  -1.124  0.00  0.00    +0.280 C 
BRANCH  26  28
ATOM     27  C   LIG    1        3.558  -0.242  -3.387  0.00  0.00    +0.030 C 
ATOM     28  C   LIG    1        3.402   0.742  -2.226  0.00  0.00    -0.010 C 
ENDBRANCH  26  28
ENDBRANCH   1  26
TORSDOF 7
