REMARK  Name = ZINCc70000005PBN.0
REMARK                            x       y       z     vdW  Elec       q    Type
REMARK                         _______ _______ _______ _____ _____    ______ ____
ROOT
ATOM      1  C   LIG    1       -0.019   1.526   0.010  0.00  0.00    +0.250 C 
ENDROOT
BRANCH   1   2
ATOM      2  C   LIG    1        0.002  -0.004   0.002  0.00  0.00    -0.020 C 
ATOM      3  C   LIG    1        1.136  -0.609   0.846  0.00  0.00    +0.050 C 
ATOM      4  C   LIG    1        1.310  -1.647  -0.276  0.00  0.00    +0.260 C 
ATOM      5  F   LIG    1        2.646  -1.952  -0.557  0.00  0.00    -0.190 F 
ATOM      6  F   LIG    1        0.515  -2.787  -0.113  0.00  0.00    -0.180 F 
ATOM      7  C   LIG    1        0.703  -0.604  -1.228  0.00  0.00    +0.070 C 
ENDBRANCH   1   2
BRANCH   1  11
ATOM      8  C   LIG    1       -2.721   2.225   2.631  0.00  0.00    +0.280 C 
ATOM      9  N   LIG    1       -2.035   1.753   1.425  0.00  0.00    -0.730 N 
ATOM     10  H   LIG    1       -2.525   1.253   0.753  0.00  0.00    +0.400 HD
ATOM     11  C   LIG    1       -0.724   2.012   1.250  0.00  0.00    +0.480 C 
ATOM     12  O   LIG    1       -0.112   2.636   2.091  0.00  0.00    -0.530 OA
ENDBRANCH   1  11
BRANCH   1  13
ATOM     13  O   LIG    1        1.322   2.020   0.000  0.00  0.00    -0.530 OA
ATOM     14  H   LIG    1        1.851   1.738   0.759  0.00  0.00    +0.380 HD
ENDBRANCH   1  13
TORSDOF 3
