REMARK  Name = ZINCb70000004SI1.0
REMARK                            x       y       z     vdW  Elec       q    Type
REMARK                         _______ _______ _______ _____ _____    ______ ____
ROOT
ATOM      1  N   LIG    1        2.927   1.164  -2.419  0.00  0.00    -0.500 N 
ATOM      2  H   LIG    1        3.564   1.933  -2.272  0.00  0.00    +0.430 HD
ATOM      3  H   LIG    1        2.489   1.259  -3.322  0.00  0.00    +0.430 HD
ENDROOT
BRANCH   1   4
ATOM      4  C   LIG    1        1.898   1.174  -1.371  0.00  0.00    +0.150 C 
ATOM      5  C   LIG    1        0.790   0.146  -1.690  0.00  0.00    +0.250 C 
ATOM      6  O   LIG    1       -0.435   0.778  -1.263  0.00  0.00    -0.340 OA
ATOM      7  C   LIG    1       -0.310   2.160  -1.663  0.00  0.00    +0.220 C 
ATOM      8  C   LIG    1        1.157   2.530  -1.353  0.00  0.00    +0.150 C 
BRANCH   8   9
ATOM      9  O   LIG    1        1.258   3.138  -0.064  0.00  0.00    -0.550 OA
ATOM     10  H   LIG    1        0.761   3.963   0.022  0.00  0.00    +0.410 HD
ENDBRANCH   8   9
ENDBRANCH   1   4
BRANCH   1  12
ATOM     11  C   LIG    1        2.738  -1.255  -2.750  0.00  0.00    +0.090 C 
ATOM     12  C   LIG    1        3.668  -0.103  -2.365  0.00  0.00    +0.060 C 
ATOM     13  C   LIG    1        4.195  -0.326  -0.946  0.00  0.00    +0.090 C 
ATOM     14  C   LIG    1        4.844  -0.049  -3.342  0.00  0.00    +0.090 C 
ENDBRANCH   1  12
TORSDOF 3
