REMARK  Name = ZINCpk00000j8yFd.0
REMARK                            x       y       z     vdW  Elec       q    Type
REMARK                         _______ _______ _______ _____ _____    ______ ____
ROOT
ATOM      1  C   LIG    1        5.949  -7.333   1.099  0.00  0.00    +0.100 C 
ATOM      2  C   LIG    1        5.189  -6.057   1.359  0.00  0.00    +0.520 C 
ATOM      3  N   LIG    1        5.332  -5.007   0.527  0.00  0.00    -0.620 N 
ATOM      4  C   LIG    1        6.137  -5.110  -0.701  0.00  0.00    +0.250 C 
ATOM      5  C   LIG    1        7.129  -3.943  -0.737  0.00  0.00    +0.220 C 
ATOM      6  O   LIG    1        6.427  -2.714  -0.532  0.00  0.00    -0.370 OA
ATOM      7  C   LIG    1        5.768  -2.629   0.731  0.00  0.00    +0.140 C 
ATOM      8  C   LIG    1        5.157  -1.245   0.926  0.00  0.00    +0.060 C 
ATOM      9  C   LIG    1        4.112  -0.981  -0.168  0.00  0.00    +0.280 C 
ATOM     10  N   LIG    1        3.136  -2.080  -0.145  0.00  0.00    -0.610 N 
ATOM     11  C   LIG    1        3.629  -3.458  -0.266  0.00  0.00    +0.280 C 
ATOM     12  C   LIG    1        1.818  -1.828  -0.023  0.00  0.00    +0.600 C 
ATOM     13  O   LIG    1        1.031  -2.749   0.086  0.00  0.00    -0.530 OA
ATOM     14  C   LIG    1        4.687  -3.711   0.814  0.00  0.00    +0.210 C 
ATOM     15  O   LIG    1        4.450  -5.976   2.317  0.00  0.00    -0.540 OA
ENDROOT
BRANCH  12  16
ATOM     16  C   LIG    1        1.331  -0.437  -0.020  0.00  0.00    -0.290 A 
ATOM     17  C   LIG    1        1.764   0.585  -0.841  0.00  0.00    +0.280 A 
ATOM     18  N   LIG    1        1.067   1.685  -0.515  0.00  0.00    -0.350 N 
ATOM     19  N   LIG    1        0.184   1.360   0.521  0.00  0.00    -0.290 NA
ATOM     20  C   LIG    1        0.332   0.100   0.823  0.00  0.00    +0.120 A 
ATOM     21  C   LIG    1       -0.428  -0.651   1.885  0.00  0.00    +0.160 C 
BRANCH  18  22
ATOM     22  C   LIG    1        1.207   3.003  -1.139  0.00  0.00    +0.180 C 
ATOM     23  C   LIG    1        2.692   3.341  -1.288  0.00  0.00    +0.070 C 
ATOM     24  C   LIG    1        0.530   4.058  -0.261  0.00  0.00    +0.080 C 
ATOM     25  C   LIG    1        0.546   2.987  -2.519  0.00  0.00    +0.050 C 
ENDBRANCH  18  22
ENDBRANCH  12  16
TORSDOF 2
