REMARK  Name = ZINCrD000000Ar53.0
REMARK                            x       y       z     vdW  Elec       q    Type
REMARK                         _______ _______ _______ _____ _____    ______ ____
ROOT
ATOM      1  O   LIG    1       -4.360   7.961  -2.633  0.00  0.00    -0.470 OA
ATOM      2  C   LIG    1       -4.428   8.093  -1.429  0.00  0.00    +0.500 C 
ATOM      3  N   LIG    1       -5.030   9.178  -0.903  0.00  0.00    -0.730 N 
ATOM      4  H   LIG    1       -5.084   9.284   0.059  0.00  0.00    +0.400 HD
ENDROOT
BRANCH   3   5
ATOM      5  C   LIG    1       -5.602  10.198  -1.786  0.00  0.00    +0.310 C 
BRANCH   5   6
ATOM      6  C   LIG    1       -5.647  11.520  -1.063  0.00  0.00    -0.100 A 
ATOM      7  C   LIG    1       -6.007  11.566   0.271  0.00  0.00    +0.000 A 
ATOM      8  C   LIG    1       -6.044  12.777   0.935  0.00  0.00    +0.000 A 
ATOM      9  C   LIG    1       -5.730  13.944   0.263  0.00  0.00    +0.000 A 
ATOM     10  C   LIG    1       -5.376  13.898  -1.072  0.00  0.00    +0.020 A 
ATOM     11  C   LIG    1       -5.334  12.686  -1.735  0.00  0.00    +0.030 A 
ENDBRANCH   5   6
BRANCH   5  12
ATOM     12  C   LIG    1       -7.020   9.787  -2.187  0.00  0.00    +0.140 C 
BRANCH  12  13
ATOM     13  C   LIG    1       -6.963   8.530  -3.015  0.00  0.00    +0.200 A 
ATOM     14  N   LIG    1       -6.267   8.369  -4.108  0.00  0.00    -0.450 NA
ATOM     15  C   LIG    1       -6.455   7.125  -4.573  0.00  0.00    +0.150 A 
ATOM     16  C   LIG    1       -7.306   6.494  -3.742  0.00  0.00    +0.110 A 
ATOM     17  N   LIG    1       -7.629   7.384  -2.754  0.00  0.00    -0.570 N 
ATOM     18  H   LIG    1       -8.225   7.223  -2.006  0.00  0.00    +0.410 HD
ENDBRANCH  12  13
ENDBRANCH   5  12
ENDBRANCH   3   5
BRANCH   2  19
ATOM     19  C   LIG    1       -3.839   7.044  -0.521  0.00  0.00    +0.220 C 
BRANCH  19  20
ATOM     20  O   LIG    1       -3.262   6.001  -1.310  0.00  0.00    -0.290 OA
BRANCH  20  21
ATOM     21  C   LIG    1       -2.684   4.969  -0.641  0.00  0.00    +0.130 A 
ATOM     22  C   LIG    1       -2.672   4.959   0.746  0.00  0.00    -0.080 A 
ATOM     23  C   LIG    1       -2.083   3.909   1.422  0.00  0.00    +0.050 A 
ATOM     24  C   LIG    1       -1.504   2.865   0.721  0.00  0.00    -0.130 A 
ATOM     25  C   LIG    1       -0.803   1.617   1.223  0.00  0.00    +0.070 C 
ATOM     26  C   LIG    1       -0.013   1.086   0.008  0.00  0.00    +0.030 C 
ATOM     27  C   LIG    1       -0.826   1.630  -1.186  0.00  0.00    +0.080 C 
ATOM     28  C   LIG    1       -1.515   2.872  -0.662  0.00  0.00    -0.060 A 
ATOM     29  C   LIG    1       -2.104   3.923  -1.342  0.00  0.00    -0.010 A 
ENDBRANCH  20  21
ENDBRANCH  19  20
ENDBRANCH   2  19
TORSDOF 7
