REMARK  Name = ZINCvU0000000HXb.0
REMARK                            x       y       z     vdW  Elec       q    Type
REMARK                         _______ _______ _______ _____ _____    ______ ____
ROOT
ATOM      1  N   LIG    1       -2.116   7.529   3.612  0.00  0.00    -0.620 N 
ATOM      2  H   LIG    1       -1.745   8.128   2.945  0.00  0.00    +0.430 HD
ATOM      3  C   LIG    1       -2.011   6.194   3.451  0.00  0.00    +0.520 C 
ATOM      4  O   LIG    1       -2.474   5.445   4.284  0.00  0.00    -0.480 OA
ENDROOT
BRANCH   1   8
ATOM      5  C   LIG    1       -3.550   9.615   6.111  0.00  0.00    +0.130 A 
ATOM      6  C   LIG    1       -3.956   8.568   6.852  0.00  0.00    -0.110 A 
ATOM      7  S   LIG    1       -3.473   7.089   6.025  0.00  0.00    +0.210 S 
ATOM      8  C   LIG    1       -2.754   8.045   4.733  0.00  0.00    +0.270 A 
ATOM      9  N   LIG    1       -2.908   9.306   4.993  0.00  0.00    -0.490 NA
BRANCH   5  14
ATOM     10  C   LIG    1       -4.506  15.067   7.702  0.00  0.00    +0.090 C 
ATOM     11  C   LIG    1       -4.256  13.640   7.286  0.00  0.00    -0.080 A 
ATOM     12  C   LIG    1       -3.586  13.374   6.105  0.00  0.00    +0.010 A 
ATOM     13  C   LIG    1       -3.354  12.070   5.719  0.00  0.00    +0.050 A 
ATOM     14  C   LIG    1       -3.796  11.019   6.521  0.00  0.00    -0.030 A 
ATOM     15  C   LIG    1       -4.475  11.293   7.707  0.00  0.00    +0.030 A 
ATOM     16  C   LIG    1       -4.696  12.601   8.086  0.00  0.00    +0.010 A 
ENDBRANCH   5  14
ENDBRANCH   1   8
BRANCH   3  17
ATOM     17  C   LIG    1       -1.318   5.635   2.235  0.00  0.00    +0.300 C 
BRANCH  17  18
ATOM     18  O   LIG    1       -1.336   4.184   2.293  0.00  0.00    -0.330 OA
BRANCH  18  19
ATOM     19  C   LIG    1       -0.755   3.526   1.278  0.00  0.00    +0.470 C 
ATOM     20  O   LIG    1       -0.249   4.142   0.370  0.00  0.00    -0.500 OA
BRANCH  19  21
ATOM     21  C   LIG    1       -0.735   2.019   1.269  0.00  0.00    +0.130 C 
BRANCH  21  22
ATOM     22  C   LIG    1       -0.019   1.526   0.010  0.00  0.00    +0.070 C 
BRANCH  22  23
ATOM     23  C   LIG    1        0.002  -0.004   0.002  0.00  0.00    +0.200 C 
BRANCH  23  24
ATOM     24  O   LIG    1        0.671  -0.465  -1.174  0.00  0.00    -0.310 OA
BRANCH  24  25
ATOM     25  C   LIG    1        0.777  -1.810  -1.336  0.00  0.00    +0.130 A 
ATOM     26  C   LIG    1        0.248  -2.668  -0.384  0.00  0.00    -0.050 A 
ATOM     27  C   LIG    1        0.356  -4.036  -0.551  0.00  0.00    +0.060 A 
ATOM     28  C   LIG    1        0.991  -4.549  -1.667  0.00  0.00    -0.070 A 
ATOM     29  C   LIG    1        1.520  -3.694  -2.619  0.00  0.00    +0.070 A 
ATOM     30 CL   LIG    1        1.127  -6.267  -1.875  0.00  0.00    -0.070 Cl
ATOM     31  C   LIG    1        1.409  -2.327  -2.458  0.00  0.00    -0.100 A 
ATOM     32  C   LIG    1        1.979  -1.397  -3.498  0.00  0.00    +0.100 C 
ENDBRANCH  24  25
ENDBRANCH  23  24
ENDBRANCH  22  23
ENDBRANCH  21  22
ENDBRANCH  19  21
ENDBRANCH  18  19
ENDBRANCH  17  18
ENDBRANCH   3  17
TORSDOF 10
