REMARK  Name = ZINCqH0000008tT0.0
REMARK                            x       y       z     vdW  Elec       q    Type
REMARK                         _______ _______ _______ _____ _____    ______ ____
ROOT
ATOM      1  O   LIG    1       -5.318   7.492   0.206  0.00  0.00    -0.330 OA
ENDROOT
BRANCH   1   3
ATOM      2  C   LIG    1       -6.316   9.170   1.661  0.00  0.00    +0.060 C 
ATOM      3  C   LIG    1       -6.143   8.687   0.219  0.00  0.00    +0.250 C 
BRANCH   3   4
ATOM      4  C   LIG    1       -7.493   8.371  -0.370  0.00  0.00    +0.160 A 
ATOM      5  N   LIG    1       -8.123   7.274  -0.021  0.00  0.00    -0.460 NA
ATOM      6  C   LIG    1       -9.314   6.946  -0.503  0.00  0.00    +0.240 A 
ATOM      7  C   LIG    1       -9.965   7.728  -1.408  0.00  0.00    -0.010 A 
ATOM      8  C   LIG    1       -9.350   8.919  -1.835  0.00  0.00    -0.030 A 
ATOM      9  C   LIG    1       -9.953   9.780  -2.764  0.00  0.00    +0.030 A 
ATOM     10  C   LIG    1       -9.307  10.919  -3.139  0.00  0.00    +0.030 A 
ATOM     11  C   LIG    1       -8.058  11.243  -2.613  0.00  0.00    +0.020 A 
ATOM     12  C   LIG    1       -7.443  10.430  -1.709  0.00  0.00    +0.030 A 
ATOM     13  C   LIG    1       -8.078   9.248  -1.299  0.00  0.00    -0.100 A 
ENDBRANCH   3   4
ENDBRANCH   1   3
BRANCH   1  14
ATOM     14  C   LIG    1       -3.987   7.669   0.090  0.00  0.00    +0.520 C 
ATOM     15  O   LIG    1       -3.529   8.791   0.003  0.00  0.00    -0.500 OA
BRANCH  14  16
ATOM     16  C   LIG    1       -3.087   6.500   0.069  0.00  0.00    -0.190 A 
ATOM     17  C   LIG    1       -1.700   6.672  -0.050  0.00  0.00    +0.180 A 
ATOM     18  C   LIG    1       -0.898   5.549  -0.059  0.00  0.00    -0.030 A 
ATOM     19  C   LIG    1       -1.488   4.292   0.039  0.00  0.00    +0.380 A 
ATOM     20  N   LIG    1       -2.801   4.162   0.151  0.00  0.00    -0.500 NA
ATOM     21  C   LIG    1       -3.602   5.206   0.169  0.00  0.00    +0.390 A 
BRANCH  19  22
ATOM     22  N   LIG    1       -0.683   3.153   0.025  0.00  0.00    -0.420 N 
ATOM     23  C   LIG    1       -1.114   1.850   0.017  0.00  0.00    +0.170 A 
ATOM     24  C   LIG    1       -0.013   1.076   0.008  0.00  0.00    +0.160 A 
ATOM     25  N   LIG    1        1.064   1.877   0.002  0.00  0.00    -0.470 NA
ATOM     26  C   LIG    1        0.676   3.123   0.012  0.00  0.00    +0.420 A 
ENDBRANCH  19  22
ENDBRANCH  14  16
ENDBRANCH   1  14
TORSDOF 5
