REMARK  Name = ZINCrg00001JduOZ.0
REMARK                            x       y       z     vdW  Elec       q    Type
REMARK                         _______ _______ _______ _____ _____    ______ ____
ROOT
ATOM      1  C   LIG    1        1.591  -1.857  -0.562  0.00  0.00    +0.600 C 
ATOM      2  N   LIG    1        0.527  -2.678  -0.660  0.00  0.00    -0.610 N 
ATOM      3  C   LIG    1        0.680  -4.085  -1.065  0.00  0.00    +0.290 C 
ATOM      4  C   LIG    1        0.252  -4.958   0.120  0.00  0.00    +0.090 C 
ATOM      5  C   LIG    1       -1.063  -4.488   0.685  0.00  0.00    -0.110 A 
ATOM      6  C   LIG    1       -1.556  -3.221   0.475  0.00  0.00    -0.050 A 
ATOM      7  C   LIG    1       -2.765  -2.837   1.050  0.00  0.00    -0.010 A 
ATOM      8  C   LIG    1       -3.489  -3.711   1.825  0.00  0.00    +0.100 A 
ATOM      9  C   LIG    1       -3.006  -5.007   2.040  0.00  0.00    -0.210 A 
ATOM     10  C   LIG    1       -1.787  -5.390   1.464  0.00  0.00    +0.160 A 
ATOM     11  C   LIG    1       -0.831  -2.205  -0.372  0.00  0.00    +0.340 C 
ATOM     12  O   LIG    1        2.716  -2.297  -0.718  0.00  0.00    -0.520 OA
ENDROOT
BRANCH   1  15
ATOM     13  C   LIG    1        0.696  -0.279  -2.619  0.00  0.00    +0.150 C 
ATOM     14  C   LIG    1        0.959   0.316  -1.260  0.00  0.00    +0.210 C 
ATOM     15  C   LIG    1        1.401  -0.484  -0.279  0.00  0.00    -0.290 C 
ATOM     16  C   LIG    1        1.706   0.010   1.111  0.00  0.00    +0.340 C 
ATOM     17  N   LIG    1        1.184   1.362   1.270  0.00  0.00    -0.390 N 
ATOM     18  N   LIG    1        1.028   2.148   2.410  0.00  0.00    -0.060 NA
ATOM     19  N   LIG    1        0.525   3.273   2.014  0.00  0.00    -0.020 NA
ATOM     20  N   LIG    1        0.355   3.265   0.737  0.00  0.00    -0.340 NA
ATOM     21  C   LIG    1        0.738   2.125   0.237  0.00  0.00    +0.470 A 
ATOM     22  C   LIG    1        1.049  -0.914   2.138  0.00  0.00    +0.070 C 
ATOM     23  N   LIG    1        0.737   1.658  -1.069  0.00  0.00    -0.500 N 
ATOM     24  C   LIG    1        0.509   2.561  -2.200  0.00  0.00    +0.350 C 
ENDBRANCH   1  15
BRANCH   9  25
ATOM     25  C   LIG    1       -3.768  -5.955   2.861  0.00  0.00    +0.490 C 
ATOM     26  O   LIG    1       -4.822  -5.617   3.357  0.00  0.00    -0.460 OA
ENDBRANCH   9  25
BRANCH  10  27
ATOM     27  O   LIG    1       -1.310  -6.644   1.664  0.00  0.00    -0.490 OA
ATOM     28  H   LIG    1       -1.600  -7.285   1.002  0.00  0.00    +0.400 HD
ENDBRANCH  10  27
TORSDOF 3
