REMARK  Name = ZINCrD00000hQ6rw.0
REMARK                            x       y       z     vdW  Elec       q    Type
REMARK                         _______ _______ _______ _____ _____    ______ ____
ROOT
ATOM      1  C   LIG    1       -4.596   9.246   0.123  0.00  0.00    +0.240 C 
ENDROOT
BRANCH   1   4
ATOM      2  N   LIG    1       -5.842  11.383   0.121  0.00  0.00    -0.730 N 
ATOM      3  H   LIG    1       -6.663  10.868   0.176  0.00  0.00    +0.410 HD
ATOM      4  C   LIG    1       -4.652  10.751   0.082  0.00  0.00    +0.520 C 
ATOM      5  O   LIG    1       -3.626  11.395   0.013  0.00  0.00    -0.510 OA
BRANCH   2   6
ATOM      6  C   LIG    1       -5.897  12.846   0.080  0.00  0.00    +0.270 C 
BRANCH   6   7
ATOM      7  C   LIG    1       -7.355  13.304   0.138  0.00  0.00    +0.100 C 
BRANCH   7   8
ATOM      8  C   LIG    1       -7.412  14.833   0.096  0.00  0.00    +0.030 C 
ATOM      9  N   LIG    1       -6.343  15.555  -0.599  0.00  0.00    -0.120 NA
ATOM     10  N   LIG    1       -6.283  15.591   0.640  0.00  0.00    -0.120 NA
BRANCH   8  11
ATOM     11  C   LIG    1       -8.807  15.459   0.145  0.00  0.00    +0.120 C 
BRANCH  11  12
ATOM     12  C   LIG    1       -8.684  16.983   0.094  0.00  0.00    +0.160 C 
BRANCH  12  14
ATOM     13  C   LIG    1      -11.097  18.066   0.179  0.00  0.00    +0.030 C 
ATOM     14  C   LIG    1      -10.026  17.586   0.141  0.00  0.00    -0.190 C 
ENDBRANCH  12  14
ENDBRANCH  11  12
ENDBRANCH   8  11
ENDBRANCH   7   8
ENDBRANCH   6   7
ENDBRANCH   2   6
ENDBRANCH   1   4
BRANCH   1  15
ATOM     15  O   LIG    1       -3.234   8.818   0.070  0.00  0.00    -0.290 OA
BRANCH  15  16
ATOM     16  C   LIG    1       -3.006   7.479   0.098  0.00  0.00    +0.140 A 
ATOM     17  C   LIG    1       -4.073   6.595   0.175  0.00  0.00    -0.080 A 
ATOM     18  C   LIG    1       -3.842   5.232   0.204  0.00  0.00    +0.070 A 
ATOM     19  C   LIG    1       -2.550   4.747   0.150  0.00  0.00    -0.020 A 
ATOM     20  C   LIG    1       -1.479   5.627   0.078  0.00  0.00    +0.140 A 
ATOM     21  C   LIG    1       -1.708   6.994   0.049  0.00  0.00    +0.000 A 
BRANCH  20  22
ATOM     22  O   LIG    1       -0.208   5.150   0.030  0.00  0.00    -0.250 OA
BRANCH  22  23
ATOM     23  C   LIG    1        0.540   5.213   1.160  0.00  0.00    +0.310 A 
ATOM     24  C   LIG    1        1.807   4.645   1.180  0.00  0.00    -0.040 A 
ATOM     25  C   LIG    1        2.559   4.717   2.340  0.00  0.00    +0.100 A 
ATOM     26  C   LIG    1        2.014   5.358   3.443  0.00  0.00    -0.070 A 
ATOM     27  C   LIG    1        0.746   5.896   3.354  0.00  0.00    +0.300 A 
ATOM     28  N   LIG    1        0.055   5.816   2.233  0.00  0.00    -0.530 NA
ENDBRANCH  22  23
ENDBRANCH  20  22
ENDBRANCH  15  16
ENDBRANCH   1  15
TORSDOF 11
