REMARK  Name = ZINCzw00000007QX.2
REMARK                            x       y       z     vdW  Elec       q    Type
REMARK                         _______ _______ _______ _____ _____    ______ ____
ROOT
ATOM      1  N   LIG    1       -2.415   3.750   0.097  0.00  0.00    -0.500 N 
ATOM      2  C   LIG    1       -2.443   5.097   0.025  0.00  0.00    +0.510 C 
ATOM      3  O   LIG    1       -1.418   5.715  -0.176  0.00  0.00    -0.500 OA
ENDROOT
BRANCH   1   4
ATOM      4  C   LIG    1       -1.182   3.066   0.051  0.00  0.00    -0.170 A 
ATOM      5  C   LIG    1       -0.876   2.241  -1.011  0.00  0.00    +0.510 A 
ATOM      6  N   LIG    1        0.335   1.588  -1.027  0.00  0.00    -0.530 N 
ATOM      7  C   LIG    1        1.210   1.751  -0.018  0.00  0.00    +0.710 A 
ATOM      8  N   LIG    1        0.928   2.551   1.026  0.00  0.00    -0.660 N 
ATOM      9  H   LIG    1        1.576   2.653   1.741  0.00  0.00    +0.440 HD
ATOM     10  O   LIG    1        2.275   1.165  -0.051  0.00  0.00    -0.520 OA
ATOM     11  C   LIG    1       -0.245   3.210   1.092  0.00  0.00    +0.580 A 
ATOM     12  O   LIG    1       -0.492   3.929   2.045  0.00  0.00    -0.520 OA
BRANCH   5  13
ATOM     13  N   LIG    1       -1.770   2.073  -2.041  0.00  0.00    -0.830 N 
ATOM     14  H   LIG    1       -2.649   2.479  -1.991  0.00  0.00    +0.420 HD
ATOM     15  H   LIG    1       -1.521   1.549  -2.819  0.00  0.00    +0.410 HD
ENDBRANCH   5  13
BRANCH   6  16
ATOM     16  C   LIG    1        0.673   0.709  -2.149  0.00  0.00    +0.380 C 
BRANCH  16  17
ATOM     17  C   LIG    1        0.204  -0.692  -1.848  0.00  0.00    -0.130 A 
ATOM     18  C   LIG    1        1.047  -1.580  -1.206  0.00  0.00    +0.050 A 
ATOM     19  C   LIG    1        0.616  -2.863  -0.927  0.00  0.00    +0.010 A 
ATOM     20  C   LIG    1       -0.655  -3.261  -1.298  0.00  0.00    +0.030 A 
ATOM     21  C   LIG    1       -1.496  -2.375  -1.944  0.00  0.00    +0.010 A 
ATOM     22  C   LIG    1       -1.066  -1.090  -2.220  0.00  0.00    +0.010 A 
ENDBRANCH  16  17
ENDBRANCH   6  16
ENDBRANCH   1   4
BRANCH   1  23
ATOM     23  C   LIG    1       -3.666   2.997   0.222  0.00  0.00    +0.270 C 
BRANCH  23  24
ATOM     24  C   LIG    1       -3.944   2.712   1.699  0.00  0.00    +0.020 C 
BRANCH  24  26
ATOM     25  C   LIG    1       -5.465   1.534   3.293  0.00  0.00    +0.030 C 
ATOM     26  C   LIG    1       -5.250   1.926   1.830  0.00  0.00    -0.020 C 
ATOM     27  C   LIG    1       -6.418   2.795   1.358  0.00  0.00    +0.010 C 
ENDBRANCH  24  26
ENDBRANCH  23  24
ENDBRANCH   1  23
BRANCH   2  28
ATOM     28  C   LIG    1       -3.747   5.834   0.193  0.00  0.00    +0.290 C 
BRANCH  28  29
ATOM     29  N   LIG    1       -3.511   7.279   0.073  0.00  0.00    -0.370 N 
ATOM     30  C   LIG    1       -4.796   7.993   0.122  0.00  0.00    +0.280 C 
ATOM     31  C   LIG    1       -4.566   9.443  -0.306  0.00  0.00    +0.130 C 
ATOM     32  C   LIG    1       -3.423  10.033   0.479  0.00  0.00    -0.100 A 
ATOM     33  C   LIG    1       -3.269  11.410   0.496  0.00  0.00    +0.030 A 
ATOM     34  C   LIG    1       -2.230  11.986   1.200  0.00  0.00    +0.040 A 
ATOM     35  C   LIG    1       -1.340  11.185   1.891  0.00  0.00    +0.040 A 
ATOM     36  C   LIG    1       -1.494   9.813   1.876  0.00  0.00    +0.040 A 
ATOM     37  C   LIG    1       -2.537   9.233   1.171  0.00  0.00    -0.120 A 
ATOM     38  C   LIG    1       -2.669   7.733   1.184  0.00  0.00    +0.330 C 
ATOM     39  H   LIG    1       -3.050   7.475  -0.802  0.00  0.00    +0.430 HD
ENDBRANCH  28  29
ENDBRANCH   2  28
TORSDOF 9
