REMARK  Name = ZINCzw00000007QX.1
REMARK                            x       y       z     vdW  Elec       q    Type
REMARK                         _______ _______ _______ _____ _____    ______ ____
ROOT
ATOM      1  N   LIG    1        7.382  -2.714   0.964  0.00  0.00    -0.480 N 
ATOM      2  C   LIG    1        6.062  -2.439   1.000  0.00  0.00    +0.490 C 
ATOM      3  O   LIG    1        5.606  -1.770   1.905  0.00  0.00    -0.510 OA
ENDROOT
BRANCH   1   4
ATOM      4  C   LIG    1        8.248  -2.145   1.921  0.00  0.00    -0.180 A 
ATOM      5  C   LIG    1        8.436  -0.779   1.974  0.00  0.00    +0.520 A 
ATOM      6  N   LIG    1        9.287  -0.254   2.919  0.00  0.00    -0.530 N 
ATOM      7  C   LIG    1        9.928  -1.063   3.781  0.00  0.00    +0.710 A 
ATOM      8  N   LIG    1        9.757  -2.396   3.745  0.00  0.00    -0.660 N 
ATOM      9  H   LIG    1       10.232  -2.958   4.378  0.00  0.00    +0.440 HD
ATOM     10  O   LIG    1       10.676  -0.579   4.609  0.00  0.00    -0.510 OA
ATOM     11  C   LIG    1        8.931  -2.961   2.843  0.00  0.00    +0.570 A 
ATOM     12  O   LIG    1        8.780  -4.171   2.822  0.00  0.00    -0.520 OA
BRANCH   5  13
ATOM     13  N   LIG    1        7.781   0.047   1.093  0.00  0.00    -0.820 N 
ATOM     14  H   LIG    1        7.939   1.004   1.116  0.00  0.00    +0.410 HD
ATOM     15  H   LIG    1        7.160  -0.326   0.447  0.00  0.00    +0.410 HD
ENDBRANCH   5  13
BRANCH   6  16
ATOM     16  C   LIG    1        9.495   1.194   2.986  0.00  0.00    +0.380 C 
BRANCH  16  17
ATOM     17  C   LIG    1        8.483   1.805   3.921  0.00  0.00    -0.130 A 
ATOM     18  C   LIG    1        7.266   2.241   3.433  0.00  0.00    +0.010 A 
ATOM     19  C   LIG    1        6.336   2.797   4.291  0.00  0.00    +0.000 A 
ATOM     20  C   LIG    1        6.627   2.925   5.636  0.00  0.00    +0.030 A 
ATOM     21  C   LIG    1        7.846   2.493   6.124  0.00  0.00    +0.010 A 
ATOM     22  C   LIG    1        8.774   1.933   5.266  0.00  0.00    +0.050 A 
ENDBRANCH  16  17
ENDBRANCH   6  16
ENDBRANCH   1   4
BRANCH   1  23
ATOM     23  C   LIG    1        7.917  -3.604  -0.071  0.00  0.00    +0.290 C 
BRANCH  23  24
ATOM     24  C   LIG    1        8.307  -2.780  -1.300  0.00  0.00    +0.010 C 
BRANCH  24  26
ATOM     25  C   LIG    1        7.761  -4.654  -2.859  0.00  0.00    +0.020 C 
ATOM     26  C   LIG    1        8.865  -3.709  -2.380  0.00  0.00    -0.020 C 
ATOM     27  C   LIG    1        9.370  -2.875  -3.559  0.00  0.00    +0.020 C 
ENDBRANCH  24  26
ENDBRANCH  23  24
ENDBRANCH   1  23
BRANCH   2  28
ATOM     28  C   LIG    1        5.153  -2.962  -0.082  0.00  0.00    +0.300 C 
BRANCH  28  29
ATOM     29  N   LIG    1        3.775  -2.528   0.184  0.00  0.00    -0.370 N 
ATOM     30  C   LIG    1        2.870  -3.127  -0.809  0.00  0.00    +0.280 C 
ATOM     31  C   LIG    1        1.428  -2.921  -0.342  0.00  0.00    +0.130 C 
ATOM     32  C   LIG    1        1.205  -1.470   0.001  0.00  0.00    -0.090 A 
ATOM     33  C   LIG    1       -0.095  -1.005   0.112  0.00  0.00    +0.040 A 
ATOM     34  C   LIG    1       -0.338   0.317   0.431  0.00  0.00    +0.050 A 
ATOM     35  C   LIG    1        0.721   1.179   0.640  0.00  0.00    +0.040 A 
ATOM     36  C   LIG    1        2.018   0.717   0.528  0.00  0.00    +0.040 A 
ATOM     37  C   LIG    1        2.263  -0.609   0.206  0.00  0.00    -0.130 A 
ATOM     38  C   LIG    1        3.692  -1.068   0.087  0.00  0.00    +0.310 C 
ATOM     39  H   LIG    1        3.500  -2.821   1.110  0.00  0.00    +0.430 HD
ENDBRANCH  28  29
ENDBRANCH   2  28
TORSDOF 9
