REMARK  Name = ZINCtV00001bB3Qw.0
REMARK                            x       y       z     vdW  Elec       q    Type
REMARK                         _______ _______ _______ _____ _____    ______ ____
ROOT
ATOM      1  C   LIG    1       -4.551  -3.362   0.100  0.00  0.00    +0.110 A 
ATOM      2  N   LIG    1       -3.565  -2.523  -0.039  0.00  0.00    -0.450 NA
ATOM      3  C   LIG    1       -2.353  -2.971   0.233  0.00  0.00    +0.120 A 
ATOM      4  C   LIG    1       -2.286  -4.263   0.620  0.00  0.00    -0.020 A 
ATOM      5  S   LIG    1       -3.923  -4.917   0.636  0.00  0.00    +0.140 S 
ENDROOT
BRANCH   3   6
ATOM      6  C   LIG    1       -1.148  -2.117   0.114  0.00  0.00    -0.150 A 
ATOM      7  C   LIG    1       -1.236  -0.805  -0.287  0.00  0.00    +0.190 A 
ATOM      8  C   LIG    1        0.014  -0.044  -0.372  0.00  0.00    -0.150 A 
ATOM      9  C   LIG    1       -0.001   1.349  -0.505  0.00  0.00    +0.090 A 
ATOM     10  C   LIG    1        1.178   2.035  -0.577  0.00  0.00    +0.000 A 
ATOM     11  C   LIG    1        2.390   1.362  -0.519  0.00  0.00    +0.080 A 
ATOM     12  C   LIG    1        2.427  -0.011  -0.390  0.00  0.00    +0.020 A 
ATOM     13  C   LIG    1        1.242  -0.729  -0.318  0.00  0.00    +0.130 A 
ATOM     14  O   LIG    1        1.257  -2.078  -0.200  0.00  0.00    -0.270 OA
ATOM     15  C   LIG    1        0.196  -2.637   0.422  0.00  0.00    +0.530 A 
ATOM     16  O   LIG    1        0.345  -3.548   1.216  0.00  0.00    -0.430 OA
ENDBRANCH   3   6
BRANCH   1  18
ATOM     17  C   LIG    1       -6.917  -4.022   0.028  0.00  0.00    +0.170 C 
ATOM     18  C   LIG    1       -5.971  -3.057  -0.153  0.00  0.00    +0.000 C 
BRANCH  17  22
ATOM     19  C   LIG    1      -11.030  -3.040  -0.276  0.00  0.00    -0.050 A 
ATOM     20  C   LIG    1      -10.600  -4.314  -0.605  0.00  0.00    +0.010 A 
ATOM     21  C   LIG    1       -9.265  -4.642  -0.508  0.00  0.00    +0.050 A 
ATOM     22  C   LIG    1       -8.342  -3.682  -0.077  0.00  0.00    -0.100 A 
ATOM     23  C   LIG    1       -8.785  -2.397   0.258  0.00  0.00    +0.040 A 
ATOM     24  C   LIG    1      -10.124  -2.084   0.151  0.00  0.00    +0.020 A 
BRANCH  19  26
ATOM     25  C   LIG    1      -13.018  -2.266   0.988  0.00  0.00    +0.030 C 
ATOM     26  C   LIG    1      -12.492  -2.690  -0.385  0.00  0.00    +0.020 C 
ATOM     27  C   LIG    1      -12.669  -1.539  -1.377  0.00  0.00    +0.030 C 
ENDBRANCH  19  26
ENDBRANCH  17  22
BRANCH  18  28
ATOM     28  C   LIG    1       -6.356  -1.749  -0.588  0.00  0.00    +0.260 C 
ATOM     29  N   LIG    1       -6.662  -0.711  -0.933  0.00  0.00    -0.400 NA
ENDBRANCH  18  28
ENDBRANCH   1  18
TORSDOF 5
