REMARK  Name = ZINCqH0000036hv2.0
REMARK                            x       y       z     vdW  Elec       q    Type
REMARK                         _______ _______ _______ _____ _____    ______ ____
ROOT
ATOM      1  N   LIG    1       -2.495   4.966   1.030  0.00  0.00    -0.640 NA
ATOM      2  H   LIG    1       -1.886   4.725   1.798  0.00  0.00    +0.350 HD
ENDROOT
BRANCH   1   3
ATOM      3  C   LIG    1       -2.556   3.877   0.046  0.00  0.00    +0.190 C 
ATOM      4  C   LIG    1       -2.831   4.458  -1.342  0.00  0.00    +0.040 C 
BRANCH   3  10
ATOM      5  C   LIG    1       -1.224   1.753   0.017  0.00  0.00    +0.150 A 
ATOM      6  C   LIG    1       -0.013   1.076   0.008  0.00  0.00    -0.090 A 
ATOM      7  C   LIG    1        1.175   1.782   0.000  0.00  0.00    +0.070 A 
ATOM      8  C   LIG    1        1.160   3.164   0.008  0.00  0.00    -0.060 A 
ATOM      9  C   LIG    1       -0.049   3.845   0.023  0.00  0.00    +0.170 A 
ATOM     10  C   LIG    1       -1.242   3.139   0.030  0.00  0.00    -0.160 A 
BRANCH   5  12
ATOM     11  C   LIG    1       -2.297  -0.369   0.011  0.00  0.00    +0.250 C 
ATOM     12  O   LIG    1       -2.391   1.057   0.019  0.00  0.00    -0.320 OA
ENDBRANCH   5  12
BRANCH   9  13
ATOM     13  O   LIG    1       -0.064   5.204   0.029  0.00  0.00    -0.470 OA
ATOM     14  H   LIG    1       -0.076   5.602  -0.852  0.00  0.00    +0.390 HD
ENDBRANCH   9  13
ENDBRANCH   3  10
ENDBRANCH   1   3
BRANCH   1  15
ATOM     15  C   LIG    1       -3.837   5.316   1.512  0.00  0.00    +0.280 C 
BRANCH  15  16
ATOM     16  C   LIG    1       -3.734   5.938   2.880  0.00  0.00    -0.120 A 
ATOM     17  C   LIG    1       -2.563   6.559   3.270  0.00  0.00    +0.090 A 
ATOM     18  C   LIG    1       -2.469   7.136   4.524  0.00  0.00    +0.000 A 
ATOM     19  C   LIG    1       -3.543   7.080   5.393  0.00  0.00    +0.040 A 
ATOM     20  C   LIG    1       -4.713   6.454   5.007  0.00  0.00    -0.020 A 
ATOM     21  C   LIG    1       -4.810   5.882   3.750  0.00  0.00    +0.100 A 
ATOM     22  F   LIG    1       -5.953   5.269   3.372  0.00  0.00    -0.140 F 
ENDBRANCH  15  16
BRANCH  15  23
ATOM     23  C   LIG    1       -4.472   6.298   0.560  0.00  0.00    +0.220 A 
ATOM     24  N   LIG    1       -3.889   7.348   0.051  0.00  0.00    -0.450 NA
ATOM     25  C   LIG    1       -4.753   7.987  -0.753  0.00  0.00    +0.140 A 
ATOM     26  C   LIG    1       -5.917   7.311  -0.733  0.00  0.00    +0.110 A 
ATOM     27  N   LIG    1       -5.740   6.240   0.099  0.00  0.00    -0.460 N 
ATOM     28  C   LIG    1       -6.739   5.220   0.429  0.00  0.00    +0.320 C 
ENDBRANCH  15  23
ENDBRANCH   1  15
TORSDOF 7
