REMARK  Name = ZINCrD00000hQ49T.0
REMARK                            x       y       z     vdW  Elec       q    Type
REMARK                         _______ _______ _______ _____ _____    ______ ____
ROOT
ATOM      1  N   LIG    1       -1.854   2.692  -0.716  0.00  0.00    -0.520 N 
ATOM      2  C   LIG    1       -1.920   2.793   0.618  0.00  0.00    +0.530 C 
ATOM      3  C   LIG    1       -0.779   2.011   1.233  0.00  0.00    +0.110 C 
ATOM      4  C   LIG    1       -0.035   1.436   0.011  0.00  0.00    +0.270 C 
ATOM      5  O   LIG    1       -2.760   3.412   1.235  0.00  0.00    -0.460 OA
ATOM      6  C   LIG    1       -0.830   1.952  -1.169  0.00  0.00    +0.500 C 
ATOM      7  O   LIG    1       -0.580   1.732  -2.334  0.00  0.00    -0.450 OA
ENDROOT
BRANCH   1  11
ATOM      8  C   LIG    1       -4.603   4.534  -3.257  0.00  0.00    +0.140 A 
ATOM      9  C   LIG    1       -3.282   4.959  -3.239  0.00  0.00    +0.000 A 
ATOM     10  C   LIG    1       -2.372   4.350  -2.398  0.00  0.00    +0.070 A 
ATOM     11  C   LIG    1       -2.779   3.312  -1.571  0.00  0.00    +0.060 A 
ATOM     12  C   LIG    1       -4.099   2.883  -1.593  0.00  0.00    +0.070 A 
ATOM     13  C   LIG    1       -5.009   3.497  -2.430  0.00  0.00    -0.060 A 
BRANCH   8  15
ATOM     14  C   LIG    1       -6.841   4.646  -4.051  0.00  0.00    +0.240 C 
ATOM     15  O   LIG    1       -5.498   5.134  -4.085  0.00  0.00    -0.310 OA
ENDBRANCH   8  15
ENDBRANCH   1  11
BRANCH   4  16
ATOM     16  N   LIG    1       -0.050  -0.029   0.041  0.00  0.00    -0.730 N 
ATOM     17  H   LIG    1       -0.736  -0.497   0.542  0.00  0.00    +0.410 HD
BRANCH  16  18
ATOM     18  C   LIG    1        0.925  -0.753  -0.655  0.00  0.00    +0.190 A 
ATOM     19  C   LIG    1        1.903  -0.084  -1.378  0.00  0.00    -0.010 A 
ATOM     20  C   LIG    1        2.869  -0.799  -2.058  0.00  0.00    -0.010 A 
ATOM     21  C   LIG    1        2.854  -2.186  -2.030  0.00  0.00    +0.050 A 
ATOM     22  C   LIG    1        1.874  -2.855  -1.313  0.00  0.00    +0.060 A 
ATOM     23  C   LIG    1        0.911  -2.141  -0.626  0.00  0.00    -0.010 A 
BRANCH  21  24
ATOM     24  O   LIG    1        3.802  -2.890  -2.705  0.00  0.00    -0.310 OA
BRANCH  24  25
ATOM     25  C   LIG    1        4.782  -2.136  -3.422  0.00  0.00    +0.600 C 
ATOM     26  F   LIG    1        4.147  -1.341  -4.383  0.00  0.00    -0.170 F 
ATOM     27  F   LIG    1        5.672  -3.010  -4.054  0.00  0.00    -0.130 F 
ATOM     28  F   LIG    1        5.485  -1.318  -2.531  0.00  0.00    -0.170 F 
ENDBRANCH  24  25
ENDBRANCH  21  24
ENDBRANCH  16  18
ENDBRANCH   4  16
TORSDOF 6
