REMARK  Name = ZINCnE000001FSZZ.1
REMARK                            x       y       z     vdW  Elec       q    Type
REMARK                         _______ _______ _______ _____ _____    ______ ____
ROOT
ATOM      1  N   LIG    1        0.353  -2.845   0.083  0.00  0.00    -0.600 N 
ATOM      2  C   LIG    1        1.434  -2.175  -0.364  0.00  0.00    +0.600 C 
ATOM      3  O   LIG    1        2.495  -2.754  -0.502  0.00  0.00    -0.550 OA
ENDROOT
BRANCH   2   4
ATOM      4  C   LIG    1        1.331  -0.742  -0.685  0.00  0.00    +0.030 A 
ATOM      5  C   LIG    1        2.404   0.007  -1.012  0.00  0.00    -0.150 A 
ATOM      6  S   LIG    1        1.898   1.612  -1.317  0.00  0.00    +0.050 S 
ATOM      7  C   LIG    1        0.228   1.172  -0.979  0.00  0.00    +0.360 A 
ATOM      8  N   LIG    1        0.166  -0.086  -0.675  0.00  0.00    -0.520 NA
BRANCH   7   9
ATOM      9  N   LIG    1       -0.856   2.038  -1.035  0.00  0.00    -0.660 NA
ATOM     10  C   LIG    1       -0.670   3.331  -1.364  0.00  0.00    +0.450 C 
ATOM     11  O   LIG    1        0.445   3.739  -1.612  0.00  0.00    -0.610 OA
ATOM     12  C   LIG    1       -1.846   4.271  -1.425  0.00  0.00    +0.070 C 
ENDBRANCH   7   9
ENDBRANCH   2   4
BRANCH   1  14
ATOM     13  C   LIG    1       -1.627  -2.195  -1.196  0.00  0.00    +0.010 C 
ATOM     14  C   LIG    1       -0.943  -2.168   0.172  0.00  0.00    +0.280 C 
ENDBRANCH   1  14
BRANCH   1  15
ATOM     15  C   LIG    1        0.475  -4.250   0.479  0.00  0.00    +0.270 C 
ATOM     16  C   LIG    1       -0.911  -4.810   0.803  0.00  0.00    +0.060 C 
BRANCH  15  17
ATOM     17  C   LIG    1        1.357  -4.354   1.697  0.00  0.00    -0.090 A 
ATOM     18  C   LIG    1        1.182  -3.478   2.753  0.00  0.00    +0.060 A 
ATOM     19  C   LIG    1        1.986  -3.576   3.872  0.00  0.00    -0.020 A 
ATOM     20  C   LIG    1        2.975  -4.544   3.932  0.00  0.00    +0.090 A 
ATOM     21  C   LIG    1        3.152  -5.416   2.871  0.00  0.00    -0.030 A 
ATOM     22  F   LIG    1        3.765  -4.637   5.023  0.00  0.00    -0.140 F 
ATOM     23  C   LIG    1        2.343  -5.320   1.755  0.00  0.00    +0.060 A 
ENDBRANCH  15  17
ENDBRANCH   1  15
TORSDOF 5
