REMARK  Name = ZINCvU0000000HAl.0
REMARK                            x       y       z     vdW  Elec       q    Type
REMARK                         _______ _______ _______ _____ _____    ______ ____
ROOT
ATOM      1  O   LIG    1        2.555  -8.576  -0.203  0.00  0.00    -0.490 OA
ATOM      2  C   LIG    1        3.522  -7.938  -0.572  0.00  0.00    +0.560 C 
ATOM      3  N   LIG    1        3.494  -6.591  -0.535  0.00  0.00    -0.620 N 
ATOM      4  H   LIG    1        4.266  -6.082  -0.829  0.00  0.00    +0.420 HD
ENDROOT
BRANCH   2   5
ATOM      5  C   LIG    1        4.729  -8.639  -1.059  0.00  0.00    -0.120 A 
ATOM      6  C   LIG    1        5.838  -7.908  -1.488  0.00  0.00    +0.030 A 
ATOM      7  C   LIG    1        6.965  -8.566  -1.938  0.00  0.00    +0.040 A 
ATOM      8  C   LIG    1        6.997  -9.947  -1.976  0.00  0.00    +0.030 A 
ATOM      9  C   LIG    1        5.895 -10.684  -1.557  0.00  0.00    +0.140 A 
ATOM     10  C   LIG    1        4.760 -10.034  -1.098  0.00  0.00    +0.100 A 
BRANCH   9  11
ATOM     11  N   LIG    1        5.932 -12.081  -1.598  0.00  0.00    -0.670 N 
ATOM     12  H   LIG    1        6.766 -12.550  -1.438  0.00  0.00    +0.410 HD
ATOM     13  C   LIG    1        4.808 -12.777  -1.860  0.00  0.00    +0.590 C 
ATOM     14  O   LIG    1        3.783 -12.190  -2.155  0.00  0.00    -0.500 OA
BRANCH  13  15
ATOM     15  C   LIG    1        4.819 -14.241  -1.790  0.00  0.00    -0.280 A 
ATOM     16  C   LIG    1        3.748 -15.055  -2.033  0.00  0.00    +0.120 A 
ATOM     17  C   LIG    1        4.039 -16.392  -1.895  0.00  0.00    +0.000 A 
ATOM     18  C   LIG    1        5.304 -16.665  -1.552  0.00  0.00    -0.050 A 
ATOM     19  S   LIG    1        6.215 -15.232  -1.387  0.00  0.00    +0.200 S 
ENDBRANCH  13  15
ENDBRANCH   9  11
ENDBRANCH   2   5
BRANCH   3  20
ATOM     20  C   LIG    1        2.361  -5.933  -0.077  0.00  0.00    +0.280 A 
ATOM     21  N   LIG    1        2.223  -4.645   0.002  0.00  0.00    -0.500 NA
ATOM     22  C   LIG    1        1.067  -4.192   0.466  0.00  0.00    +0.130 A 
ATOM     23  C   LIG    1        0.172  -5.136   0.806  0.00  0.00    -0.110 A 
ATOM     24  S   LIG    1        0.888  -6.715   0.489  0.00  0.00    +0.220 S 
BRANCH  22  25
ATOM     25  C   LIG    1        0.782  -2.743   0.606  0.00  0.00    -0.010 A 
ATOM     26  C   LIG    1       -0.407  -2.319   1.196  0.00  0.00    +0.050 A 
ATOM     27  C   LIG    1       -0.670  -0.970   1.326  0.00  0.00    +0.040 A 
ATOM     28  C   LIG    1        0.245  -0.034   0.871  0.00  0.00    +0.040 A 
ATOM     29  O   LIG    1        0.221   1.332   0.882  0.00  0.00    -0.310 OA
ATOM     30  C   LIG    1        1.585   1.742   0.667  0.00  0.00    +0.430 C 
ATOM     31  O   LIG    1        2.157   0.651  -0.078  0.00  0.00    -0.310 OA
ATOM     32  C   LIG    1        1.437  -0.452   0.280  0.00  0.00    +0.030 A 
ATOM     33  C   LIG    1        1.704  -1.803   0.148  0.00  0.00    +0.070 A 
ENDBRANCH  22  25
ENDBRANCH   3  20
TORSDOF 5
