REMARK  Name = ZINCpe000000Vd3H.0
REMARK                            x       y       z     vdW  Elec       q    Type
REMARK                         _______ _______ _______ _____ _____    ______ ____
ROOT
ATOM      1  N   LIG    1        4.444   4.291   3.218  0.00  0.00    -0.630 N 
ATOM      2  H   LIG    1        4.523   3.380   3.543  0.00  0.00    +0.420 HD
ATOM      3  C   LIG    1        4.940   5.311   3.945  0.00  0.00    +0.520 C 
ATOM      4  O   LIG    1        4.841   6.449   3.538  0.00  0.00    -0.480 OA
ENDROOT
BRANCH   3   5
ATOM      5  C   LIG    1        5.619   5.038   5.263  0.00  0.00    +0.010 C 
ATOM      6  C   LIG    1        4.632   4.357   6.214  0.00  0.00    +0.060 C 
ATOM      7  C   LIG    1        5.307   4.139   7.571  0.00  0.00    +0.200 C 
ATOM      8  N   LIG    1        5.734   5.431   8.121  0.00  0.00    -0.470 N 
ATOM      9  C   LIG    1        6.718   6.082   7.247  0.00  0.00    +0.220 C 
ATOM     10  C   LIG    1        6.085   6.359   5.881  0.00  0.00    +0.080 C 
BRANCH   8  11
ATOM     11  C   LIG    1        6.234   5.283   9.410  0.00  0.00    +0.260 A 
ATOM     12  C   LIG    1        5.451   4.692  10.399  0.00  0.00    +0.210 A 
ATOM     13  N   LIG    1        5.931   4.549  11.619  0.00  0.00    -0.420 NA
ATOM     14  C   LIG    1        7.149   4.976  11.907  0.00  0.00    +0.180 A 
ATOM     15  C   LIG    1        7.926   5.568  10.930  0.00  0.00    +0.250 A 
ATOM     16  N   LIG    1        7.455   5.710   9.703  0.00  0.00    -0.480 NA
ENDBRANCH   8  11
ENDBRANCH   3   5
BRANCH   1  20
ATOM     17  C   LIG    1        2.689   4.033  -0.002  0.00  0.00    +0.230 C 
ATOM     18  C   LIG    1        2.743   5.556  -0.201  0.00  0.00    +0.070 C 
ATOM     19  S   LIG    1        3.605   6.143   1.293  0.00  0.00    -0.080 S 
ATOM     20  C   LIG    1        3.821   4.541   2.010  0.00  0.00    +0.390 C 
ATOM     21  N   LIG    1        3.316   3.646   1.242  0.00  0.00    -0.550 NA
BRANCH  17  22
ATOM     22  C   LIG    1        1.228   3.579   0.010  0.00  0.00    +0.130 C 
BRANCH  22  23
ATOM     23  C   LIG    1        1.170   2.073   0.002  0.00  0.00    +0.460 C 
ATOM     24  O   LIG    1        2.192   1.429  -0.011  0.00  0.00    -0.490 OA
BRANCH  23  26
ATOM     25  C   LIG    1        0.002  -0.004   0.002  0.00  0.00    +0.260 C 
ATOM     26  O   LIG    1       -0.018   1.448   0.010  0.00  0.00    -0.360 OA
ENDBRANCH  23  26
ENDBRANCH  22  23
ENDBRANCH  17  22
ENDBRANCH   1  20
TORSDOF 6
