REMARK  Name = ZINCqH00000k5lfL.0
REMARK                            x       y       z     vdW  Elec       q    Type
REMARK                         _______ _______ _______ _____ _____    ______ ____
ROOT
ATOM      1  C   LIG    1       -1.874   7.459  -3.072  0.00  0.00    -0.140 A 
ATOM      2  C   LIG    1       -2.611   8.635  -2.928  0.00  0.00    +0.070 A 
ATOM      3  C   LIG    1       -3.454   8.794  -1.846  0.00  0.00    +0.000 A 
ATOM      4  C   LIG    1       -3.570   7.791  -0.902  0.00  0.00    +0.020 A 
ATOM      5  C   LIG    1       -2.840   6.615  -1.036  0.00  0.00    +0.130 A 
ATOM      6  C   LIG    1       -1.988   6.449  -2.117  0.00  0.00    +0.090 A 
ENDROOT
BRANCH   5   7
ATOM      7  N   LIG    1       -2.961   5.603  -0.078  0.00  0.00    -0.680 N 
ATOM      8  H   LIG    1       -2.986   5.829   0.865  0.00  0.00    +0.410 HD
ATOM      9  C   LIG    1       -3.044   4.315  -0.465  0.00  0.00    +0.540 C 
ATOM     10  O   LIG    1       -3.152   4.041  -1.641  0.00  0.00    -0.510 OA
BRANCH   9  11
ATOM     11  C   LIG    1       -3.001   3.215   0.564  0.00  0.00    -0.070 C 
ATOM     12  C   LIG    1       -4.283   2.410   0.792  0.00  0.00    +0.060 C 
ATOM     13  C   LIG    1       -3.099   1.773   0.061  0.00  0.00    +0.000 C 
ATOM     14  C   LIG    1       -3.233   1.558  -1.448  0.00  0.00    +0.060 C 
ENDBRANCH   9  11
ENDBRANCH   5   7
BRANCH   1  16
ATOM     15  N   LIG    1       -0.637   8.350  -4.988  0.00  0.00    -0.620 N 
ATOM     16  C   LIG    1       -0.971   7.286  -4.230  0.00  0.00    +0.570 C 
ATOM     17  O   LIG    1       -0.530   6.186  -4.498  0.00  0.00    -0.510 OA
BRANCH  15  19
ATOM     18  C   LIG    1       -3.013   8.922  -5.076  0.00  0.00    +0.040 C 
ATOM     19  C   LIG    1       -1.581   9.457  -5.154  0.00  0.00    +0.220 C 
ATOM     20  C   LIG    1       -1.361  10.487  -4.045  0.00  0.00    +0.040 C 
ENDBRANCH  15  19
BRANCH  15  21
ATOM     21  C   LIG    1        0.672   8.398  -5.645  0.00  0.00    +0.350 C 
BRANCH  21  22
ATOM     22  C   LIG    1        0.570   7.773  -7.013  0.00  0.00    -0.160 A 
ATOM     23  C   LIG    1        0.248   8.548  -8.117  0.00  0.00    +0.070 A 
ATOM     24  C   LIG    1        0.166   7.931  -9.355  0.00  0.00    -0.050 A 
ATOM     25  C   LIG    1        0.406   6.573  -9.448  0.00  0.00    +0.250 A 
ATOM     26  N   LIG    1        0.709   5.867  -8.377  0.00  0.00    -0.490 NA
ATOM     27  C   LIG    1        0.801   6.421  -7.184  0.00  0.00    +0.290 A 
ENDBRANCH  21  22
ENDBRANCH  15  21
ENDBRANCH   1  16
TORSDOF 6
