REMARK  Name = ZINCtV00000L6k3e.0
REMARK                            x       y       z     vdW  Elec       q    Type
REMARK                         _______ _______ _______ _____ _____    ______ ____
ROOT
ATOM      1  N   LIG    1       -0.017   1.389   0.010  0.00  0.00    -0.850 N 
ATOM      2  N   LIG    1        0.002  -0.004   0.002  0.00  0.00    -0.200 NA
ATOM      3  C   LIG    1        1.185  -0.514  -0.012  0.00  0.00    +0.140 C 
ATOM      4  C   LIG    1        2.213   0.594  -0.016  0.00  0.00    +0.100 C 
ATOM      5  C   LIG    1        1.369   1.884  -0.001  0.00  0.00    +0.270 C 
ENDROOT
BRANCH   3   6
ATOM      6  C   LIG    1        1.488  -1.958  -0.022  0.00  0.00    -0.030 A 
ATOM      7  C   LIG    1        0.451  -2.893  -0.017  0.00  0.00    +0.070 A 
ATOM      8  C   LIG    1        0.742  -4.242  -0.027  0.00  0.00    +0.030 A 
ATOM      9  C   LIG    1        2.058  -4.669  -0.042  0.00  0.00    +0.070 A 
ATOM     10  C   LIG    1        3.092  -3.747  -0.047  0.00  0.00    -0.090 A 
ATOM     11 BR   LIG    1        4.886  -4.343  -0.067  0.00  0.00    -0.040 Br
ATOM     12  C   LIG    1        2.815  -2.395  -0.043  0.00  0.00    +0.080 A 
ENDBRANCH   3   6
BRANCH   5  13
ATOM     13  C   LIG    1        1.654   2.690   1.240  0.00  0.00    -0.090 A 
ATOM     14  C   LIG    1        1.128   2.295   2.456  0.00  0.00    +0.030 A 
ATOM     15  C   LIG    1        1.393   3.031   3.596  0.00  0.00    +0.060 A 
ATOM     16  C   LIG    1        2.176   4.169   3.517  0.00  0.00    -0.080 A 
ATOM     17  C   LIG    1        2.698   4.566   2.299  0.00  0.00    +0.060 A 
ATOM     18 BR   LIG    1        2.534   5.180   5.075  0.00  0.00    -0.050 Br
ATOM     19  C   LIG    1        2.437   3.826   1.161  0.00  0.00    +0.050 A 
ENDBRANCH   5  13
BRANCH   1  20
ATOM     20  S   LIG    1       -1.377   2.334   0.021  0.00  0.00    +2.710 S 
ATOM     21  O   LIG    1       -0.967   3.622   0.459  0.00  0.00    -0.930 OA
ATOM     22  O   LIG    1       -2.386   1.576   0.674  0.00  0.00    -0.930 OA
BRANCH  20  27
ATOM     23  C   LIG    1       -3.159   2.970  -5.708  0.00  0.00    +0.090 C 
ATOM     24  C   LIG    1       -2.715   2.811  -4.277  0.00  0.00    -0.020 A 
ATOM     25  C   LIG    1       -3.190   1.758  -3.517  0.00  0.00    +0.000 A 
ATOM     26  C   LIG    1       -2.782   1.613  -2.205  0.00  0.00    +0.130 A 
ATOM     27  C   LIG    1       -1.897   2.520  -1.652  0.00  0.00    -0.690 A 
ATOM     28  C   LIG    1       -1.426   3.576  -2.409  0.00  0.00    +0.120 A 
ATOM     29  C   LIG    1       -1.830   3.718  -3.723  0.00  0.00    +0.000 A 
ENDBRANCH  20  27
ENDBRANCH   1  20
TORSDOF 4
