REMARK  Name = ZINCkj000005m7ko.0
REMARK                            x       y       z     vdW  Elec       q    Type
REMARK                         _______ _______ _______ _____ _____    ______ ____
ROOT
ATOM      1  O   LIG    1       -1.045   4.604  -2.761  0.00  0.00    -0.510 OA
ATOM      2  C   LIG    1       -0.515   3.510  -2.705  0.00  0.00    +0.610 C 
ATOM      3  N   LIG    1        0.080   3.106  -1.565  0.00  0.00    -0.630 N 
ATOM      4  C   LIG    1        0.179   4.009  -0.437  0.00  0.00    +0.300 C 
ATOM      5  C   LIG    1        1.507   4.736  -0.399  0.00  0.00    +0.050 C 
ATOM      6  C   LIG    1        2.655   3.860   0.055  0.00  0.00    +0.190 C 
ATOM      7  C   LIG    1        2.214   3.217   1.391  0.00  0.00    +0.080 C 
ATOM      8  C   LIG    1        1.498   1.917   0.975  0.00  0.00    +0.080 C 
ATOM      9  C   LIG    1        1.815   1.736  -0.489  0.00  0.00    +0.170 C 
ATOM     10  N   LIG    1        2.824   2.740  -0.913  0.00  0.00    -0.510 N 
ATOM     11  H   LIG    1        2.635   3.054  -1.853  0.00  0.00    +0.430 HD
ATOM     12  H   LIG    1        3.754   2.354  -0.849  0.00  0.00    +0.430 HD
ATOM     13  C   LIG    1        0.634   1.734  -1.448  0.00  0.00    +0.310 C 
ENDROOT
BRANCH   2  14
ATOM     14  C   LIG    1       -0.524   2.631  -3.878  0.00  0.00    -0.340 A 
ATOM     15  C   LIG    1       -0.401   3.026  -5.224  0.00  0.00    +0.170 A 
ATOM     16  C   LIG    1       -0.245   4.275  -5.840  0.00  0.00    +0.030 A 
ATOM     17  C   LIG    1       -0.154   4.340  -7.200  0.00  0.00    +0.100 A 
ATOM     18  C   LIG    1       -0.218   3.159  -7.952  0.00  0.00    +0.020 A 
ATOM     19  C   LIG    1       -0.360   1.965  -7.336  0.00  0.00    +0.290 A 
ATOM     20  N   LIG    1       -0.457   1.889  -5.979  0.00  0.00    -0.260 N 
ATOM     21  N   LIG    1       -0.622   0.804  -5.110  0.00  0.00    -0.310 NA
ATOM     22  C   LIG    1       -0.662   1.232  -3.875  0.00  0.00    +0.310 A 
ENDBRANCH   2  14
TORSDOF 1
