REMARK  Name = ZINCpk00000xIlrJ.0
REMARK                            x       y       z     vdW  Elec       q    Type
REMARK                         _______ _______ _______ _____ _____    ______ ____
ROOT
ATOM      1  O   LIG    1       -5.866  -0.522   1.356  0.00  0.00    -0.510 OA
ATOM      2  C   LIG    1       -5.294  -1.292   0.607  0.00  0.00    +0.600 C 
ATOM      3  N   LIG    1       -4.113  -0.946   0.057  0.00  0.00    -0.710 N 
ATOM      4  H   LIG    1       -3.658  -1.559  -0.540  0.00  0.00    +0.410 HD
ENDROOT
BRANCH   2   5
ATOM      5  C   LIG    1       -5.890  -2.597   0.302  0.00  0.00    -0.020 A 
ATOM      6  C   LIG    1       -7.072  -3.074   0.792  0.00  0.00    +0.040 A 
ATOM      7  C   LIG    1       -7.252  -4.351   0.239  0.00  0.00    +0.090 A 
ATOM      8  C   LIG    1       -6.183  -4.598  -0.548  0.00  0.00    -0.560 A 
ATOM      9  O   LIG    1       -5.364  -3.539  -0.508  0.00  0.00    -0.110 OA
BRANCH   8  10
ATOM     10  S   LIG    1       -5.909  -6.072  -1.475  0.00  0.00    +2.730 S 
ATOM     11  O   LIG    1       -6.664  -7.093  -0.837  0.00  0.00    -0.930 OA
ATOM     12  O   LIG    1       -4.507  -6.159  -1.686  0.00  0.00    -0.930 OA
BRANCH  10  13
ATOM     13  N   LIG    1       -6.594  -5.847  -2.966  0.00  0.00    -1.080 NA
ATOM     14  H   LIG    1       -7.348  -6.391  -3.241  0.00  0.00    +0.420 HD
BRANCH  13  15
ATOM     15  C   LIG    1       -6.059  -4.826  -3.870  0.00  0.00    +0.210 C 
ATOM     16  C   LIG    1       -7.051  -4.104  -4.786  0.00  0.00    +0.010 C 
ATOM     17  C   LIG    1       -6.077  -5.131  -5.370  0.00  0.00    +0.030 C 
ENDBRANCH  13  15
ENDBRANCH  10  13
ENDBRANCH   8  10
ENDBRANCH   2   5
BRANCH   3  18
ATOM     18  C   LIG    1       -3.518   0.358   0.361  0.00  0.00    +0.310 C 
BRANCH  18  19
ATOM     19  C   LIG    1       -2.190   0.499  -0.385  0.00  0.00    +0.170 C 
ATOM     20  C   LIG    1       -1.472   1.810   0.015  0.00  0.00    +0.100 C 
ATOM     21  C   LIG    1       -0.017   1.385   0.010  0.00  0.00    -0.170 A 
ATOM     22  C   LIG    1        1.157   2.106   0.002  0.00  0.00    +0.060 A 
ATOM     23  C   LIG    1        2.373   1.446  -0.021  0.00  0.00    -0.020 A 
ATOM     24  C   LIG    1        2.404   0.064  -0.037  0.00  0.00    +0.050 A 
ATOM     25  C   LIG    1        1.230  -0.660  -0.025  0.00  0.00    -0.010 A 
ATOM     26  C   LIG    1        0.002  -0.004   0.002  0.00  0.00    +0.100 A 
ATOM     27  O   LIG    1       -1.260  -0.514   0.034  0.00  0.00    -0.300 OA
ENDBRANCH  18  19
ENDBRANCH   3  18
TORSDOF 6
