REMARK  Name = ZINCpe00000MJLX9.0
REMARK                            x       y       z     vdW  Elec       q    Type
REMARK                         _______ _______ _______ _____ _____    ______ ____
ROOT
ATOM      1  C   LIG    1       -0.676   1.539   1.246  0.00  0.00    +0.530 C 
ATOM      2  N   LIG    1       -0.207   1.220   2.468  0.00  0.00    -0.620 N 
ATOM      3  C   LIG    1        0.984   0.404   2.743  0.00  0.00    +0.240 C 
ATOM      4  C   LIG    1        1.146   0.330   4.276  0.00  0.00    +0.060 C 
ATOM      5  C   LIG    1        0.363   1.576   4.768  0.00  0.00    +0.050 C 
ATOM      6  C   LIG    1       -0.801   1.636   3.752  0.00  0.00    +0.280 C 
ATOM      7  O   LIG    1       -1.672   2.222   1.137  0.00  0.00    -0.520 OA
ENDROOT
BRANCH   5   8
ATOM      8  C   LIG    1       -0.150   1.372   6.170  0.00  0.00    +0.240 A 
ATOM      9  C   LIG    1        0.219   2.233   7.163  0.00  0.00    -0.190 A 
ATOM     10  C   LIG    1       -0.273   2.022   8.463  0.00  0.00    +0.540 A 
ATOM     11  N   LIG    1       -1.095   0.974   8.684  0.00  0.00    -0.660 N 
ATOM     12  H   LIG    1       -1.446   0.810   9.573  0.00  0.00    +0.410 HD
ATOM     13  C   LIG    1       -1.429   0.149   7.655  0.00  0.00    +0.640 A 
ATOM     14  O   LIG    1        0.036   2.772   9.374  0.00  0.00    -0.540 OA
ATOM     15  N   LIG    1       -0.967   0.356   6.438  0.00  0.00    -0.590 NA
BRANCH  13  16
ATOM     16  N   LIG    1       -2.262  -0.912   7.887  0.00  0.00    -0.590 N 
ATOM     17  C   LIG    1       -2.686  -1.226   9.254  0.00  0.00    +0.310 C 
ATOM     18  C   LIG    1       -2.731  -1.734   6.768  0.00  0.00    +0.330 C 
ENDBRANCH  13  16
ENDBRANCH   5   8
BRANCH   1  19
ATOM     19  C   LIG    1        0.038   1.047   0.013  0.00  0.00    +0.150 C 
BRANCH  19  24
ATOM     20  C   LIG    1       -1.509   3.961  -3.866  0.00  0.00    +0.160 C 
ATOM     21  C   LIG    1       -1.371   2.800  -2.915  0.00  0.00    +0.070 A 
ATOM     22  N   LIG    1       -2.031   1.673  -2.980  0.00  0.00    -0.290 NA
ATOM     23  N   LIG    1       -1.614   0.861  -1.917  0.00  0.00    -0.370 N 
ATOM     24  C   LIG    1       -0.683   1.540  -1.215  0.00  0.00    +0.100 A 
ATOM     25  C   LIG    1       -2.103  -0.488  -1.621  0.00  0.00    +0.340 C 
ATOM     26  C   LIG    1       -0.517   2.745  -1.808  0.00  0.00    -0.100 A 
ENDBRANCH  19  24
ENDBRANCH   1  19
TORSDOF 4
