REMARK  Name = ZINCvU0000000Iwo.0
REMARK                            x       y       z     vdW  Elec       q    Type
REMARK                         _______ _______ _______ _____ _____    ______ ____
ROOT
ATOM      1  N   LIG    1        1.550   3.764   2.472  0.00  0.00    -0.610 N 
ATOM      2  C   LIG    1        1.835   4.504   3.562  0.00  0.00    +0.510 C 
ATOM      3  O   LIG    1        1.524   4.105   4.664  0.00  0.00    -0.480 OA
ENDROOT
BRANCH   1   4
ATOM      4  C   LIG    1        1.955   4.229   1.144  0.00  0.00    +0.280 C 
ATOM      5  C   LIG    1        3.432   4.634   1.169  0.00  0.00    +0.030 C 
ATOM      6  C   LIG    1        4.047   4.524  -0.212  0.00  0.00    -0.060 C 
ATOM      7  C   LIG    1        3.522   5.533  -1.214  0.00  0.00    +0.030 C 
ATOM      8  C   LIG    1        2.058   5.250  -1.560  0.00  0.00    +0.070 C 
ATOM      9  C   LIG    1        1.182   5.925  -0.526  0.00  0.00    -0.070 A 
ATOM     10  C   LIG    1        0.433   7.031  -0.884  0.00  0.00    +0.020 A 
ATOM     11  C   LIG    1       -0.369   7.649   0.060  0.00  0.00    +0.010 A 
ATOM     12  C   LIG    1       -0.419   7.160   1.352  0.00  0.00    +0.000 A 
ATOM     13  C   LIG    1        0.333   6.054   1.704  0.00  0.00    +0.010 A 
ATOM     14  C   LIG    1        3.778   3.118  -0.753  0.00  0.00    +0.020 C 
ATOM     15  C   LIG    1        5.560   4.708  -0.085  0.00  0.00    +0.030 C 
ATOM     16  C   LIG    1        1.133   5.441   0.756  0.00  0.00    -0.110 A 
ENDBRANCH   1   4
BRANCH   2  17
ATOM     17  C   LIG    1        2.539   5.827   3.411  0.00  0.00    +0.170 C 
ATOM     18 CL   LIG    1        2.580   6.672   5.003  0.00  0.00    -0.130 Cl
ENDBRANCH   2  17
BRANCH   1  19
ATOM     19  C   LIG    1        0.835   2.493   2.616  0.00  0.00    +0.400 C 
BRANCH  19  25
ATOM     20  C   LIG    1       -0.890   2.698   0.031  0.00  0.00    +0.370 C 
ATOM     21  N   LIG    1       -1.393   2.827   1.401  0.00  0.00    -0.280 N 
ATOM     22  N   LIG    1       -2.615   3.049   1.734  0.00  0.00    -0.070 NA
ATOM     23  N   LIG    1       -2.729   3.105   3.014  0.00  0.00    -0.260 NA
ATOM     24  C   LIG    1       -1.516   2.920   3.566  0.00  0.00    +0.050 A 
ATOM     25  C   LIG    1       -0.650   2.740   2.527  0.00  0.00    -0.040 A 
BRANCH  24  26
ATOM     26  C   LIG    1       -1.187   2.912   5.013  0.00  0.00    +0.000 A 
ATOM     27  C   LIG    1       -0.317   1.953   5.527  0.00  0.00    +0.020 A 
ATOM     28  C   LIG    1       -0.010   1.954   6.873  0.00  0.00    +0.010 A 
ATOM     29  C   LIG    1       -0.572   2.899   7.712  0.00  0.00    +0.010 A 
ATOM     30  C   LIG    1       -1.440   3.850   7.208  0.00  0.00    +0.000 A 
ATOM     31  C   LIG    1       -1.750   3.861   5.863  0.00  0.00    +0.030 A 
ENDBRANCH  24  26
ENDBRANCH  19  25
ENDBRANCH   1  19
TORSDOF 5
