REMARK  Name = ZINCrg000000rSV9.0
REMARK                            x       y       z     vdW  Elec       q    Type
REMARK                         _______ _______ _______ _____ _____    ______ ____
ROOT
ATOM      1  C   LIG    1       -0.013   1.086   0.008  0.00  0.00    +0.100 C 
ATOM      2  C   LIG    1       -0.729   1.579   1.267  0.00  0.00    +0.180 C 
ATOM      3  N   LIG    1       -0.657   3.047   1.362  0.00  0.00    -0.720 N 
ATOM      4  H   LIG    1       -1.019   3.688   0.730  0.00  0.00    +0.440 HD
ATOM      5  C   LIG    1        0.010   3.327   2.497  0.00  0.00    +0.710 C 
ATOM      6  N   LIG    1        0.383   2.224   3.156  0.00  0.00    -0.560 N 
ATOM      7  O   LIG    1        0.247   4.455   2.881  0.00  0.00    -0.530 OA
ATOM      8  C   LIG    1       -0.006   1.105   2.512  0.00  0.00    +0.540 C 
ATOM      9  O   LIG    1        0.184  -0.041   2.857  0.00  0.00    -0.450 OA
ENDROOT
BRANCH   2  10
ATOM     10  C   LIG    1       -2.162   1.114   1.276  0.00  0.00    -0.090 A 
ATOM     11  C   LIG    1       -2.492  -0.092   1.866  0.00  0.00    +0.060 A 
ATOM     12  C   LIG    1       -3.806  -0.521   1.881  0.00  0.00    +0.050 A 
ATOM     13  C   LIG    1       -4.795   0.253   1.297  0.00  0.00    +0.040 A 
ATOM     14  O   LIG    1       -6.141   0.061   1.173  0.00  0.00    -0.310 OA
ATOM     15  C   LIG    1       -6.565   0.967   0.138  0.00  0.00    +0.440 C 
ATOM     16  O   LIG    1       -5.599   2.033   0.199  0.00  0.00    -0.310 OA
ATOM     17  C   LIG    1       -4.462   1.466   0.697  0.00  0.00    +0.030 A 
ATOM     18  C   LIG    1       -3.144   1.892   0.690  0.00  0.00    +0.060 A 
ENDBRANCH   2  10
BRANCH   6  19
ATOM     19  C   LIG    1        1.123   2.231   4.420  0.00  0.00    +0.360 C 
BRANCH  19  20
ATOM     20  C   LIG    1        2.603   2.220   4.136  0.00  0.00    +0.510 C 
ATOM     21  N   LIG    1        3.485   2.224   5.155  0.00  0.00    -0.720 N 
ATOM     22  H   LIG    1        3.167   2.233   6.071  0.00  0.00    +0.410 HD
ATOM     23  O   LIG    1        3.000   2.208   2.990  0.00  0.00    -0.520 OA
BRANCH  21  24
ATOM     24  C   LIG    1        4.923   2.213   4.878  0.00  0.00    +0.400 C 
BRANCH  24  25
ATOM     25  C   LIG    1        5.685   2.220   6.179  0.00  0.00    -0.050 A 
ATOM     26  C   LIG    1        6.072   1.133   6.870  0.00  0.00    -0.030 A 
ATOM     27  C   LIG    1        6.754   1.598   8.017  0.00  0.00    -0.070 A 
ATOM     28  C   LIG    1        6.736   2.942   7.963  0.00  0.00    +0.190 A 
ATOM     29  O   LIG    1        6.088   3.313   6.847  0.00  0.00    -0.170 OA
ENDBRANCH  24  25
ENDBRANCH  21  24
ENDBRANCH  19  20
ENDBRANCH   6  19
TORSDOF 5
