REMARK  Name = ZINCqH0000050gJV.0
REMARK                            x       y       z     vdW  Elec       q    Type
REMARK                         _______ _______ _______ _____ _____    ______ ____
ROOT
ATOM      1  O   LIG    1       -0.701   1.540   1.203  0.00  0.00    -0.320 OA
ENDROOT
BRANCH   1   2
ATOM      2  C   LIG    1       -0.180   1.172   2.384  0.00  0.00    +0.470 C 
ATOM      3  O   LIG    1        0.811   0.482   2.418  0.00  0.00    -0.480 OA
BRANCH   2  10
ATOM      4  C   LIG    1       -4.330  -0.027   8.401  0.00  0.00    +0.100 C 
ATOM      5  C   LIG    1       -3.171   0.275   7.486  0.00  0.00    -0.110 A 
ATOM      6  C   LIG    1       -3.387   0.466   6.133  0.00  0.00    +0.070 A 
ATOM      7  C   LIG    1       -2.326   0.742   5.299  0.00  0.00    -0.180 A 
ATOM      8  C   LIG    1       -1.032   0.824   5.798  0.00  0.00    +0.100 A 
ATOM      9  O   LIG    1       -0.137   1.082   4.805  0.00  0.00    -0.280 OA
ATOM     10  C   LIG    1       -0.832   1.618   3.667  0.00  0.00    +0.230 C 
ATOM     11  C   LIG    1       -0.824   0.634   7.162  0.00  0.00    +0.000 A 
ATOM     12  C   LIG    1       -2.245   1.003   3.807  0.00  0.00    +0.120 C 
ATOM     13  C   LIG    1       -1.888   0.361   7.995  0.00  0.00    -0.050 A 
ATOM     14  C   LIG    1       -1.652   0.156   9.470  0.00  0.00    +0.110 C 
ENDBRANCH   2  10
ENDBRANCH   1   2
BRANCH   1  15
ATOM     15  C   LIG    1       -0.021   1.073   0.008  0.00  0.00    +0.270 C 
BRANCH  15  16
ATOM     16  C   LIG    1       -0.743   1.582  -1.213  0.00  0.00    +0.520 C 
ATOM     17  N   LIG    1       -0.288   1.272  -2.443  0.00  0.00    -0.660 N 
ATOM     18  H   LIG    1        0.547   0.790  -2.544  0.00  0.00    +0.420 HD
ATOM     19  O   LIG    1       -1.734   2.271  -1.088  0.00  0.00    -0.490 OA
BRANCH  17  20
ATOM     20  C   LIG    1       -1.022   1.647  -3.575  0.00  0.00    +0.150 A 
ATOM     21  C   LIG    1       -2.392   1.853  -3.479  0.00  0.00    +0.040 A 
ATOM     22  C   LIG    1       -3.113   2.222  -4.598  0.00  0.00    +0.050 A 
ATOM     23  C   LIG    1       -2.471   2.387  -5.813  0.00  0.00    -0.050 A 
ATOM     24  C   LIG    1       -1.106   2.183  -5.911  0.00  0.00    +0.050 A 
ATOM     25 CL   LIG    1       -3.381   2.851  -7.217  0.00  0.00    -0.070 Cl
ATOM     26  C   LIG    1       -0.380   1.818  -4.795  0.00  0.00    -0.100 A 
ATOM     27  C   LIG    1        1.108   1.601  -4.901  0.00  0.00    +0.110 C 
ENDBRANCH  17  20
ENDBRANCH  15  16
ENDBRANCH   1  15
TORSDOF 5
