REMARK  Name = ZINCvU00000007Uf.0
REMARK                            x       y       z     vdW  Elec       q    Type
REMARK                         _______ _______ _______ _____ _____    ______ ____
ROOT
ATOM      1  C   LIG    1        4.905  -1.720  -1.917  0.00  0.00    +0.290 A 
ATOM      2  N   LIG    1        5.607  -1.247  -2.905  0.00  0.00    -0.480 NA
ATOM      3  C   LIG    1        5.926   0.050  -2.660  0.00  0.00    +0.050 A 
ATOM      4  C   LIG    1        6.646   1.015  -3.367  0.00  0.00    +0.070 A 
ATOM      5  C   LIG    1        6.789   2.272  -2.851  0.00  0.00    +0.000 A 
ATOM      6  C   LIG    1        6.233   2.600  -1.623  0.00  0.00    +0.030 A 
ATOM      7  C   LIG    1        5.521   1.662  -0.905  0.00  0.00    +0.010 A 
ATOM      8  C   LIG    1        5.360   0.382  -1.417  0.00  0.00    +0.060 A 
ATOM      9  N   LIG    1        4.725  -0.760  -0.970  0.00  0.00    -0.480 N 
ENDROOT
BRANCH   1  12
ATOM     10  N   LIG    1        4.895  -5.264  -2.783  0.00  0.00    -0.560 N 
ATOM     11  C   LIG    1        5.500  -4.160  -2.027  0.00  0.00    +0.300 C 
ATOM     12  C   LIG    1        4.369  -3.126  -1.833  0.00  0.00    +0.090 C 
ATOM     13  C   LIG    1        3.446  -3.439  -3.034  0.00  0.00    +0.090 C 
ATOM     14  C   LIG    1        3.744  -4.885  -3.363  0.00  0.00    +0.520 C 
ATOM     15  O   LIG    1        3.044  -5.599  -4.051  0.00  0.00    -0.500 OA
BRANCH  10  21
ATOM     16  C   LIG    1        4.548  -9.906  -4.364  0.00  0.00    +0.090 C 
ATOM     17  C   LIG    1        5.301  -8.815  -3.647  0.00  0.00    -0.050 A 
ATOM     18  C   LIG    1        6.538  -9.080  -3.090  0.00  0.00    -0.030 A 
ATOM     19  C   LIG    1        7.232  -8.081  -2.431  0.00  0.00    -0.060 A 
ATOM     20  C   LIG    1        6.690  -6.815  -2.328  0.00  0.00    -0.040 A 
ATOM     21  C   LIG    1        5.447  -6.545  -2.886  0.00  0.00    +0.170 A 
ATOM     22  C   LIG    1        8.580  -8.375  -1.826  0.00  0.00    +0.100 C 
ATOM     23  C   LIG    1        4.751  -7.552  -3.543  0.00  0.00    -0.010 A 
ENDBRANCH  10  21
ENDBRANCH   1  12
BRANCH   9  24
ATOM     24  C   LIG    1        3.989  -0.908   0.288  0.00  0.00    +0.280 C 
ATOM     25  C   LIG    1        4.171   0.352   1.137  0.00  0.00    +0.070 C 
BRANCH  24  26
ATOM     26  C   LIG    1        2.525  -1.108  -0.007  0.00  0.00    -0.110 A 
ATOM     27  C   LIG    1        1.898  -2.281   0.368  0.00  0.00    +0.010 A 
ATOM     28  C   LIG    1        0.555  -2.465   0.098  0.00  0.00    +0.010 A 
ATOM     29  C   LIG    1       -0.162  -1.474  -0.547  0.00  0.00    +0.020 A 
ATOM     30  C   LIG    1        0.465  -0.300  -0.922  0.00  0.00    +0.010 A 
ATOM     31  C   LIG    1        1.809  -0.118  -0.654  0.00  0.00    +0.030 A 
ENDBRANCH  24  26
ENDBRANCH   9  24
TORSDOF 4
