REMARK  Name = ZINCpk00000ke3Fq.0
REMARK                            x       y       z     vdW  Elec       q    Type
REMARK                         _______ _______ _______ _____ _____    ______ ____
ROOT
ATOM      1  N   LIG    1       -2.952  -0.949   8.189  0.00  0.00    -0.730 N 
ATOM      2  H   LIG    1       -3.398  -0.339   8.798  0.00  0.00    +0.400 HD
ATOM      3  C   LIG    1       -2.377  -0.478   7.065  0.00  0.00    +0.710 C 
ATOM      4  N   LIG    1       -2.420   0.840   6.787  0.00  0.00    -0.650 N 
ATOM      5  H   LIG    1       -2.866   1.450   7.395  0.00  0.00    +0.410 HD
ATOM      6  O   LIG    1       -1.818  -1.243   6.302  0.00  0.00    -0.570 OA
ENDROOT
BRANCH   1  13
ATOM      7  C   LIG    1       -3.035  -2.573   9.998  0.00  0.00    +0.180 C 
ATOM      8  C   LIG    1       -4.258  -3.434  10.375  0.00  0.00    -0.310 C 
ATOM      9  S   LIG    1       -4.534  -4.438   8.860  0.00  0.00    +2.390 S 
ATOM     10  C   LIG    1       -4.029  -3.095   7.712  0.00  0.00    -0.300 C 
ATOM     11  O   LIG    1       -5.921  -4.707   8.707  0.00  0.00    -0.930 OA
ATOM     12  O   LIG    1       -3.589  -5.498   8.807  0.00  0.00    -0.910 OA
ATOM     13  C   LIG    1       -2.905  -2.382   8.492  0.00  0.00    +0.300 C 
BRANCH   7  15
ATOM     14  C   LIG    1       -1.520  -2.861  11.833  0.00  0.00    +0.220 C 
ATOM     15  O   LIG    1       -1.852  -3.209  10.487  0.00  0.00    -0.370 OA
ENDBRANCH   7  15
ENDBRANCH   1  13
BRANCH   4  16
ATOM     16  C   LIG    1       -1.819   1.332   5.612  0.00  0.00    +0.040 A 
ATOM     17  C   LIG    1       -1.167   0.593   4.678  0.00  0.00    +0.260 A 
ATOM     18  N   LIG    1       -0.739   1.443   3.709  0.00  0.00    -0.350 N 
ATOM     19  N   LIG    1       -1.138   2.738   4.065  0.00  0.00    -0.240 NA
ATOM     20  C   LIG    1       -1.788   2.671   5.199  0.00  0.00    -0.030 A 
BRANCH  20  21
ATOM     21  C   LIG    1       -2.394   3.837   5.938  0.00  0.00    +0.480 C 
ATOM     22  F   LIG    1       -1.810   3.940   7.205  0.00  0.00    -0.190 F 
ATOM     23  F   LIG    1       -3.772   3.636   6.074  0.00  0.00    -0.190 F 
ENDBRANCH  20  21
BRANCH  18  24
ATOM     24  C   LIG    1        0.011   1.072   2.506  0.00  0.00    +0.330 C 
BRANCH  24  25
ATOM     25  C   LIG    1       -0.729   1.579   1.267  0.00  0.00    -0.030 C 
ATOM     26  C   LIG    1       -0.750   3.109   1.275  0.00  0.00    +0.020 C 
ATOM     27  C   LIG    1       -0.013   1.086   0.008  0.00  0.00    +0.030 C 
ENDBRANCH  24  25
ENDBRANCH  18  24
ENDBRANCH   4  16
TORSDOF 6
