REMARK  Name = ZINCrH000004quMt.0
REMARK                            x       y       z     vdW  Elec       q    Type
REMARK                         _______ _______ _______ _____ _____    ______ ____
ROOT
ATOM      1  N   LIG    1        0.743   1.957   1.599  0.00  0.00    -0.740 N 
ATOM      2  H   LIG    1        1.278   1.320   2.097  0.00  0.00    +0.410 HD
ENDROOT
BRANCH   1   3
ATOM      3  C   LIG    1        0.953   3.328   1.767  0.00  0.00    +0.220 A 
ATOM      4  C   LIG    1        0.192   4.242   1.050  0.00  0.00    -0.080 A 
ATOM      5  C   LIG    1        0.399   5.596   1.222  0.00  0.00    +0.060 A 
ATOM      6  C   LIG    1        1.370   6.043   2.099  0.00  0.00    -0.130 A 
ATOM      7  C   LIG    1        2.134   5.136   2.811  0.00  0.00    +0.070 A 
ATOM      8  C   LIG    1        1.928   3.780   2.647  0.00  0.00    -0.070 A 
BRANCH   6   9
ATOM      9  C   LIG    1        1.597   7.522   2.280  0.00  0.00    +0.110 C 
BRANCH   9  10
ATOM     10  C   LIG    1        2.630   7.996   1.289  0.00  0.00    +0.510 C 
ATOM     11  N   LIG    1        2.995   9.293   1.266  0.00  0.00    -0.730 N 
ATOM     12  H   LIG    1        2.594   9.921   1.887  0.00  0.00    +0.400 HD
ATOM     13  O   LIG    1        3.131   7.210   0.513  0.00  0.00    -0.530 OA
BRANCH  11  14
ATOM     14  C   LIG    1        3.999   9.754   0.303  0.00  0.00    +0.230 C 
ATOM     15  C   LIG    1        5.399   9.521   0.875  0.00  0.00    +0.030 C 
ATOM     16  C   LIG    1        3.799  11.247   0.034  0.00  0.00    +0.030 C 
ENDBRANCH  11  14
ENDBRANCH   9  10
ENDBRANCH   6   9
ENDBRANCH   1   3
BRANCH   1  17
ATOM     17  C   LIG    1       -0.285   1.482   0.670  0.00  0.00    +0.290 C 
BRANCH  17  20
ATOM     18  N   LIG    1       -1.182  -0.687  -0.109  0.00  0.00    -0.670 N 
ATOM     19  H   LIG    1       -1.831  -0.195  -0.636  0.00  0.00    +0.410 HD
ATOM     20  C   LIG    1       -0.309  -0.025   0.675  0.00  0.00    +0.510 C 
ATOM     21  O   LIG    1        0.458  -0.641   1.384  0.00  0.00    -0.510 OA
BRANCH  18  26
ATOM     22  C   LIG    1       -1.065  -6.355  -0.327  0.00  0.00    +0.090 C 
ATOM     23  C   LIG    1       -1.096  -4.849  -0.270  0.00  0.00    -0.080 A 
ATOM     24  C   LIG    1       -2.284  -4.194  -0.003  0.00  0.00    +0.010 A 
ATOM     25  C   LIG    1       -2.316  -2.814   0.051  0.00  0.00    -0.090 A 
ATOM     26  C   LIG    1       -1.153  -2.085  -0.163  0.00  0.00    +0.130 A 
ATOM     27  C   LIG    1        0.037  -2.746  -0.436  0.00  0.00    -0.060 A 
ATOM     28  C   LIG    1        1.299  -1.959  -0.675  0.00  0.00    +0.080 C 
ATOM     29  C   LIG    1       -3.611  -2.100   0.343  0.00  0.00    +0.080 C 
ATOM     30  C   LIG    1        0.063  -4.126  -0.483  0.00  0.00    +0.010 A 
ENDBRANCH  18  26
ENDBRANCH  17  20
ENDBRANCH   1  17
TORSDOF 7
