REMARK  Name = ZINCrD0000073gKO.0
REMARK                            x       y       z     vdW  Elec       q    Type
REMARK                         _______ _______ _______ _____ _____    ______ ____
ROOT
ATOM      1  N   LIG    1       -3.016   1.458   0.332  0.00  0.00    -0.660 N 
ATOM      2  H   LIG    1       -2.755   2.132  -0.315  0.00  0.00    +0.420 HD
ATOM      3  C   LIG    1       -2.145   1.063   1.282  0.00  0.00    +0.520 C 
ATOM      4  O   LIG    1       -2.497   0.281   2.140  0.00  0.00    -0.500 OA
ENDROOT
BRANCH   1  12
ATOM      5  C   LIG    1       -4.922   0.693  -0.951  0.00  0.00    +0.110 A 
ATOM      6  C   LIG    1       -6.187   0.132  -0.999  0.00  0.00    -0.030 A 
ATOM      7  C   LIG    1       -6.833  -0.219   0.174  0.00  0.00    -0.010 A 
ATOM      8  C   LIG    1       -6.216  -0.015   1.395  0.00  0.00    -0.090 A 
ATOM      9  C   LIG    1       -4.951   0.540   1.450  0.00  0.00    +0.090 A 
ATOM     10  C   LIG    1       -6.924  -0.398   2.669  0.00  0.00    +0.100 C 
ATOM     11 CL   LIG    1       -8.422  -0.916   0.112  0.00  0.00    -0.060 Cl
ATOM     12  C   LIG    1       -4.298   0.894   0.279  0.00  0.00    +0.120 A 
BRANCH   5  14
ATOM     13  C   LIG    1       -4.988   0.809  -3.325  0.00  0.00    +0.260 C 
ATOM     14  O   LIG    1       -4.288   1.044  -2.102  0.00  0.00    -0.310 OA
ENDBRANCH   5  14
ENDBRANCH   1  12
BRANCH   3  15
ATOM     15  C   LIG    1       -0.735   1.593   1.279  0.00  0.00    +0.200 C 
ATOM     16  C   LIG    1       -0.009   1.105   0.024  0.00  0.00    +0.080 C 
BRANCH  15  17
ATOM     17  O   LIG    1       -0.036   1.117   2.459  0.00  0.00    -0.330 OA
BRANCH  17  18
ATOM     18  C   LIG    1        0.933   1.910   2.959  0.00  0.00    +0.540 C 
ATOM     19  O   LIG    1        1.186   2.972   2.423  0.00  0.00    -0.490 OA
BRANCH  18  20
ATOM     20  C   LIG    1        1.681   1.493   4.150  0.00  0.00    -0.050 A 
ATOM     21  C   LIG    1        2.684   2.196   4.749  0.00  0.00    +0.120 A 
ATOM     22  C   LIG    1        3.120   1.431   5.857  0.00  0.00    -0.270 A 
ATOM     23  C   LIG    1        2.355   0.275   5.877  0.00  0.00    +0.300 A 
ATOM     24  N   LIG    1        1.495   0.320   4.849  0.00  0.00    -0.410 N 
ATOM     25  C   LIG    1        0.512  -0.716   4.521  0.00  0.00    +0.340 C 
BRANCH  22  26
ATOM     26  C   LIG    1        4.181   1.792   6.803  0.00  0.00    +0.430 C 
ATOM     27  O   LIG    1        4.462   1.041   7.713  0.00  0.00    -0.470 OA
ATOM     28  C   LIG    1        4.923   3.094   6.642  0.00  0.00    +0.070 C 
ENDBRANCH  22  26
ENDBRANCH  18  20
ENDBRANCH  17  18
ENDBRANCH  15  17
ENDBRANCH   3  15
TORSDOF 7
