REMARK  Name = ZINCpe000000Wr1z.1
REMARK                            x       y       z     vdW  Elec       q    Type
REMARK                         _______ _______ _______ _____ _____    ______ ____
ROOT
ATOM      1  N   LIG    1        3.759  -0.909   3.282  0.00  0.00    -0.560 N 
ATOM      2  C   LIG    1        2.495  -1.653   3.207  0.00  0.00    +0.300 C 
ATOM      3  C   LIG    1        1.395  -0.634   3.575  0.00  0.00    +0.000 C 
ATOM      4  C   LIG    1        2.180   0.380   4.440  0.00  0.00    +0.080 C 
ATOM      5  C   LIG    1        3.612   0.234   3.974  0.00  0.00    +0.520 C 
ATOM      6  O   LIG    1        4.499   1.032   4.193  0.00  0.00    -0.520 OA
ENDROOT
BRANCH   3   7
ATOM      7  C   LIG    1        0.838   0.028   2.341  0.00  0.00    +0.520 C 
ATOM      8  N   LIG    1       -0.092   0.997   2.458  0.00  0.00    -0.610 N 
ATOM      9  C   LIG    1       -0.516   1.481   3.780  0.00  0.00    +0.270 C 
ATOM     10  C   LIG    1       -0.416   3.010   3.794  0.00  0.00    +0.170 C 
ATOM     11  N   LIG    1       -1.173   3.558   2.660  0.00  0.00    -0.690 NA
ATOM     12  H   LIG    1       -1.222   4.564   2.711  0.00  0.00    +0.350 HD
ATOM     13  C   LIG    1       -0.601   3.123   1.378  0.00  0.00    +0.170 C 
ATOM     14  C   LIG    1       -0.709   1.598   1.266  0.00  0.00    +0.230 C 
ATOM     15  C   LIG    1        0.025   1.122   0.011  0.00  0.00    +0.060 C 
ATOM     16  O   LIG    1        1.225  -0.311   1.244  0.00  0.00    -0.510 OA
ENDBRANCH   3   7
BRANCH   1  20
ATOM     17  C   LIG    1        7.347  -2.180   1.568  0.00  0.00    +0.180 A 
ATOM     18  C   LIG    1        7.029  -2.546   2.868  0.00  0.00    -0.100 A 
ATOM     19  C   LIG    1        5.844  -2.120   3.437  0.00  0.00    +0.110 A 
ATOM     20  C   LIG    1        4.965  -1.336   2.706  0.00  0.00    +0.070 A 
ATOM     21  C   LIG    1        5.283  -0.968   1.400  0.00  0.00    +0.180 A 
ATOM     22  C   LIG    1        6.474  -1.391   0.834  0.00  0.00    -0.100 A 
BRANCH  17  24
ATOM     23  C   LIG    1        9.369  -3.405   1.825  0.00  0.00    +0.250 C 
ATOM     24  O   LIG    1        8.517  -2.595   1.013  0.00  0.00    -0.310 OA
ENDBRANCH  17  24
BRANCH  21  25
ATOM     25  O   LIG    1        4.425  -0.194   0.683  0.00  0.00    -0.290 OA
ATOM     26  C   LIG    1        4.816   0.144  -0.649  0.00  0.00    +0.250 C 
ENDBRANCH  21  25
ENDBRANCH   1  20
TORSDOF 4
