REMARK  Name = ZINCrH00000LqqbN.0
REMARK                            x       y       z     vdW  Elec       q    Type
REMARK                         _______ _______ _______ _____ _____    ______ ____
ROOT
ATOM      1  C   LIG    1        1.971   4.127   0.004  0.00  0.00    +0.260 C 
ENDROOT
BRANCH   1   2
ATOM      2  N   LIG    1        3.031   3.657  -0.898  0.00  0.00    -0.500 NA
ATOM      3  C   LIG    1        3.482   2.311  -0.524  0.00  0.00    +0.200 C 
ATOM      4  C   LIG    1        4.478   1.797  -1.566  0.00  0.00    +0.010 C 
ATOM      5  C   LIG    1        5.671   2.754  -1.640  0.00  0.00    +0.000 C 
ATOM      6  C   LIG    1        5.168   4.159  -1.984  0.00  0.00    +0.020 C 
ATOM      7  C   LIG    1        4.153   4.604  -0.929  0.00  0.00    +0.130 C 
ATOM      8  C   LIG    1        3.632   6.000  -1.280  0.00  0.00    +0.020 C 
ENDBRANCH   1   2
BRANCH   1  11
ATOM      9  C   LIG    1       -0.774   4.881  -1.059  0.00  0.00    +0.160 C 
ATOM     10  C   LIG    1       -0.395   3.525  -0.523  0.00  0.00    -0.200 A 
ATOM     11  C   LIG    1        0.805   3.173  -0.051  0.00  0.00    +0.070 A 
ATOM     12  N   LIG    1        0.886   1.924   0.361  0.00  0.00    -0.450 NA
ATOM     13  C   LIG    1       -0.180   1.203   0.264  0.00  0.00    +0.220 A 
ATOM     14  S   LIG    1       -1.453   2.120  -0.413  0.00  0.00    +0.130 S 
ENDBRANCH   1  11
BRANCH   1  15
ATOM     15  C   LIG    1        2.502   4.190   1.413  0.00  0.00    +0.500 C 
ATOM     16  N   LIG    1        1.700   4.596   2.418  0.00  0.00    -0.720 N 
ATOM     17  H   LIG    1        0.782   4.848   2.234  0.00  0.00    +0.400 HD
ATOM     18  O   LIG    1        3.650   3.875   1.643  0.00  0.00    -0.530 OA
BRANCH  16  19
ATOM     19  C   LIG    1        2.217   4.658   3.787  0.00  0.00    +0.280 C 
BRANCH  19  20
ATOM     20  C   LIG    1        1.113   5.147   4.727  0.00  0.00    +0.180 C 
BRANCH  20  21
ATOM     21  O   LIG    1        0.057   4.184   4.763  0.00  0.00    -0.380 OA
BRANCH  21  22
ATOM     22  C   LIG    1       -1.030   4.546   5.617  0.00  0.00    +0.220 C 
BRANCH  22  23
ATOM     23  C   LIG    1       -2.080   3.465   5.579  0.00  0.00    -0.090 A 
ATOM     24  C   LIG    1       -3.100   3.525   4.648  0.00  0.00    +0.020 A 
ATOM     25  C   LIG    1       -4.060   2.531   4.610  0.00  0.00    +0.000 A 
ATOM     26  C   LIG    1       -4.006   1.483   5.510  0.00  0.00    +0.010 A 
ATOM     27  C   LIG    1       -2.989   1.426   6.444  0.00  0.00    +0.000 A 
ATOM     28  C   LIG    1       -2.026   2.417   6.478  0.00  0.00    +0.020 A 
ENDBRANCH  22  23
ENDBRANCH  21  22
ENDBRANCH  20  21
ENDBRANCH  19  20
ENDBRANCH  16  19
ENDBRANCH   1  15
TORSDOF 8
