REMARK  Name = ZINCrH000004v3mJ.0
REMARK                            x       y       z     vdW  Elec       q    Type
REMARK                         _______ _______ _______ _____ _____    ______ ____
ROOT
ATOM      1  O   LIG    1       -2.011   3.474   6.011  0.00  0.00    -0.510 OA
ATOM      2  C   LIG    1       -2.429   2.413   6.424  0.00  0.00    +0.550 C 
ATOM      3  N   LIG    1       -2.003   1.260   5.872  0.00  0.00    -0.670 N 
ATOM      4  H   LIG    1       -2.285   0.410   6.245  0.00  0.00    +0.410 HD
ENDROOT
BRANCH   3   5
ATOM      5  C   LIG    1       -1.155   1.288   4.762  0.00  0.00    +0.170 A 
ATOM      6  C   LIG    1       -1.308   0.349   3.748  0.00  0.00    +0.000 A 
ATOM      7  C   LIG    1       -0.472   0.374   2.653  0.00  0.00    +0.110 A 
ATOM      8  C   LIG    1        0.528   1.344   2.561  0.00  0.00    -0.060 A 
ATOM      9  C   LIG    1        0.682   2.282   3.583  0.00  0.00    +0.060 A 
ATOM     10  C   LIG    1       -0.159   2.255   4.674  0.00  0.00    +0.030 A 
BRANCH   8  11
ATOM     11  C   LIG    1        1.426   1.373   1.387  0.00  0.00    +0.300 A 
ATOM     12  N   LIG    1        1.682   0.371   0.571  0.00  0.00    -0.320 NA
ATOM     13  N   LIG    1        2.510   0.735  -0.341  0.00  0.00    -0.040 NA
ATOM     14  N   LIG    1        2.835   1.972  -0.186  0.00  0.00    -0.080 NA
ATOM     15  N   LIG    1        2.139   2.438   0.943  0.00  0.00    -0.350 N 
BRANCH  15  16
ATOM     16  C   LIG    1        2.181   3.784   1.521  0.00  0.00    +0.210 C 
ATOM     17  C   LIG    1        3.046   4.830   0.814  0.00  0.00    +0.090 C 
ATOM     18  C   LIG    1        3.498   4.241   2.152  0.00  0.00    +0.060 C 
ENDBRANCH  15  16
ENDBRANCH   8  11
ENDBRANCH   3   5
BRANCH   2  19
ATOM     19  C   LIG    1       -3.425   2.385   7.554  0.00  0.00    -0.070 C 
ATOM     20  C   LIG    1       -4.836   1.951   7.121  0.00  0.00    +0.050 C 
ATOM     21  C   LIG    1       -5.120   3.436   6.838  0.00  0.00    +0.020 C 
ATOM     22  C   LIG    1       -4.032   3.761   7.875  0.00  0.00    +0.070 C 
BRANCH  19  23
ATOM     23  C   LIG    1       -2.913   1.653   8.768  0.00  0.00    -0.070 A 
ATOM     24  C   LIG    1       -2.635   2.350   9.929  0.00  0.00    +0.020 A 
ATOM     25  C   LIG    1       -2.169   1.679  11.044  0.00  0.00    +0.020 A 
ATOM     26  C   LIG    1       -1.972   0.311  10.995  0.00  0.00    +0.000 A 
ATOM     27  C   LIG    1       -2.246  -0.385   9.832  0.00  0.00    +0.020 A 
ATOM     28  C   LIG    1       -2.716   0.286   8.719  0.00  0.00    +0.000 A 
ENDBRANCH  19  23
ENDBRANCH   2  19
TORSDOF 5
