REMARK  Name = ZINCpk00000y6yz0.0
REMARK                            x       y       z     vdW  Elec       q    Type
REMARK                         _______ _______ _______ _____ _____    ______ ____
ROOT
ATOM      1  C   LIG    1       -1.595  -3.188   0.003  0.00  0.00    +0.620 C 
ATOM      2  N   LIG    1       -2.930  -3.003   0.017  0.00  0.00    -0.610 N 
ATOM      3  C   LIG    1       -3.616  -1.699   0.029  0.00  0.00    +0.290 C 
ATOM      4  C   LIG    1       -5.004  -1.987   0.653  0.00  0.00    +0.070 C 
ATOM      5  C   LIG    1       -5.326  -3.386   0.065  0.00  0.00    +0.110 C 
ATOM      6  C   LIG    1       -3.942  -4.069   0.016  0.00  0.00    +0.250 C 
ATOM      7  O   LIG    1       -1.137  -4.315  -0.007  0.00  0.00    -0.530 OA
ENDROOT
BRANCH   1  10
ATOM      8  N   LIG    1        0.002  -0.004   0.002  0.00  0.00    -0.270 N 
ATOM      9  N   LIG    1       -1.042  -0.753   0.013  0.00  0.00    -0.250 NA
ATOM     10  C   LIG    1       -0.688  -2.023  -0.001  0.00  0.00    -0.020 A 
ATOM     11  C   LIG    1        0.727  -2.057  -0.015  0.00  0.00    -0.020 A 
ATOM     12  C   LIG    1        1.120  -0.761  -0.013  0.00  0.00    +0.010 A 
ATOM     13  C   LIG    1        2.541  -0.258  -0.024  0.00  0.00    +0.150 C 
BRANCH   8  14
ATOM     14  C   LIG    1       -0.018   1.461   0.010  0.00  0.00    +0.260 C 
BRANCH  14  16
ATOM     15  C   LIG    1       -0.671   3.494  -1.286  0.00  0.00    +0.040 C 
ATOM     16  C   LIG    1       -0.758   1.968  -1.230  0.00  0.00    +0.020 C 
ENDBRANCH  14  16
BRANCH  14  17
ATOM     17  C   LIG    1       -0.734   1.954   1.269  0.00  0.00    +0.040 C 
ATOM     18  C   LIG    1        0.073   1.554   2.505  0.00  0.00    +0.010 C 
ENDBRANCH  14  17
ENDBRANCH   8  14
ENDBRANCH   1  10
BRANCH   5  19
ATOM     19  O   LIG    1       -5.877  -3.269  -1.248  0.00  0.00    -0.540 OA
ATOM     20  H   LIG    1       -6.095  -4.116  -1.661  0.00  0.00    +0.390 HD
ENDBRANCH   5  19
BRANCH   5  21
ATOM     21  C   LIG    1       -6.279  -4.153   0.983  0.00  0.00    +0.330 C 
BRANCH  21  22
ATOM     22  N   LIG    1       -6.470  -5.511   0.465  0.00  0.00    -0.300 N 
ATOM     23  C   LIG    1       -6.256  -6.658   1.150  0.00  0.00    +0.150 A 
ATOM     24  C   LIG    1       -6.556  -7.667   0.299  0.00  0.00    +0.140 A 
ATOM     25  N   LIG    1       -6.926  -7.095  -0.852  0.00  0.00    -0.260 NA
ATOM     26  N   LIG    1       -6.864  -5.817  -0.721  0.00  0.00    -0.100 NA
ENDBRANCH  21  22
ENDBRANCH   5  21
TORSDOF 7
