REMARK  Name = ZINC9p0000002mt0.0
REMARK                            x       y       z     vdW  Elec       q    Type
REMARK                         _______ _______ _______ _____ _____    ______ ____
ROOT
ATOM      1  C   LIG    1       -0.018   1.470   0.010  0.00  0.00    +0.170 C 
ATOM      2  C   LIG    1        1.450   1.947  -0.001  0.00  0.00    +0.070 C 
ATOM      3  C   LIG    1        2.220   0.722   0.558  0.00  0.00    +0.070 C 
ATOM      4  C   LIG    1        1.409  -0.456  -0.038  0.00  0.00    +0.260 C 
ATOM      5  N   LIG    1        0.002  -0.004   0.002  0.00  0.00    -0.520 N 
ATOM      6  H   LIG    1       -0.485  -0.346  -0.813  0.00  0.00    +0.430 HD
ATOM      7  H   LIG    1       -0.443  -0.354   0.837  0.00  0.00    +0.430 HD
ENDROOT
BRANCH   1   8
ATOM      8  C   LIG    1       -0.743   1.988  -1.234  0.00  0.00    +0.060 C 
BRANCH   8   9
ATOM      9  C   LIG    1       -2.213   1.568  -1.178  0.00  0.00    -0.000 C 
BRANCH   9  11
ATOM     10  C   LIG    1       -4.409   1.665  -2.367  0.00  0.00    +0.010 C 
ATOM     11  C   LIG    1       -2.939   2.085  -2.422  0.00  0.00    +0.010 C 
ENDBRANCH   9  11
ENDBRANCH   8   9
ENDBRANCH   1   8
TORSDOF 3
