REMARK  Name = ZINCrH000004sQ4B.0
REMARK                            x       y       z     vdW  Elec       q    Type
REMARK                         _______ _______ _______ _____ _____    ______ ____
ROOT
ATOM      1  C   LIG    1       -0.004   1.120  -0.001  0.00  0.00    +0.210 C 
ATOM      2  C   LIG    1       -0.711   1.600   1.241  0.00  0.00    +0.160 A 
ATOM      3  N   LIG    1       -1.962   1.938   1.332  0.00  0.00    -0.270 NA
ATOM      4  O   LIG    1       -2.254   2.332   2.657  0.00  0.00    -0.080 OA
ATOM      5  C   LIG    1       -1.138   2.240   3.409  0.00  0.00    +0.300 A 
ATOM      6  N   LIG    1       -0.886   2.491   4.683  0.00  0.00    -0.460 NA
ATOM      7  C   LIG    1        0.319   2.321   5.205  0.00  0.00    +0.250 A 
ATOM      8  C   LIG    1        1.389   1.865   4.433  0.00  0.00    -0.020 A 
ATOM      9  C   LIG    1        1.181   1.584   3.085  0.00  0.00    +0.000 A 
ATOM     10  C   LIG    1       -0.114   1.778   2.563  0.00  0.00    -0.210 A 
ENDROOT
BRANCH   7  11
ATOM     11  C   LIG    1        0.536   2.620   6.641  0.00  0.00    -0.070 A 
ATOM     12  C   LIG    1        1.796   2.442   7.210  0.00  0.00    +0.040 A 
ATOM     13  C   LIG    1        1.994   2.728   8.546  0.00  0.00    +0.010 A 
ATOM     14  C   LIG    1        0.941   3.180   9.322  0.00  0.00    +0.030 A 
ATOM     15  C   LIG    1       -0.312   3.353   8.764  0.00  0.00    +0.000 A 
ATOM     16  C   LIG    1       -0.520   3.076   7.428  0.00  0.00    +0.070 A 
ENDBRANCH   7  11
BRANCH   9  17
ATOM     17  C   LIG    1        2.285   1.099   2.227  0.00  0.00    +0.560 C 
ATOM     18  N   LIG    1        3.493   0.838   2.766  0.00  0.00    -0.710 N 
ATOM     19  H   LIG    1        3.638   0.969   3.716  0.00  0.00    +0.400 HD
ATOM     20  O   LIG    1        2.103   0.936   1.037  0.00  0.00    -0.510 OA
BRANCH  18  21
ATOM     21  C   LIG    1        4.585   0.358   1.917  0.00  0.00    +0.250 C 
ATOM     22  C   LIG    1        4.486  -1.162   1.769  0.00  0.00    +0.030 C 
BRANCH  21  23
ATOM     23  C   LIG    1        5.927   0.721   2.557  0.00  0.00    -0.040 C 
ATOM     24  C   LIG    1        7.068   0.329   1.613  0.00  0.00    +0.020 C 
ATOM     25  C   LIG    1        8.406   0.625   2.297  0.00  0.00    -0.010 C 
ATOM     26  C   LIG    1        8.468  -0.127   3.628  0.00  0.00    +0.210 C 
ATOM     27  O   LIG    1        7.362   0.261   4.446  0.00  0.00    -0.380 OA
ATOM     28  C   LIG    1        6.084  -0.034   3.879  0.00  0.00    +0.210 C 
ENDBRANCH  21  23
ENDBRANCH  18  21
ENDBRANCH   9  17
TORSDOF 4
