REMARK  Name = ZINCrg000000qt8A.0
REMARK                            x       y       z     vdW  Elec       q    Type
REMARK                         _______ _______ _______ _____ _____    ______ ____
ROOT
ATOM      1  C   LIG    1       -1.322   5.372   4.039  0.00  0.00    +0.510 C 
ATOM      2  O   LIG    1       -1.927   4.366   4.352  0.00  0.00    -0.470 OA
ENDROOT
BRANCH   1   7
ATOM      3  C   LIG    1        1.412   3.951   1.893  0.00  0.00    -0.690 A 
ATOM      4  C   LIG    1        2.103   5.098   1.544  0.00  0.00    +0.170 A 
ATOM      5  C   LIG    1        1.677   6.335   1.996  0.00  0.00    +0.000 A 
ATOM      6  C   LIG    1        0.566   6.431   2.808  0.00  0.00    +0.150 A 
ATOM      7  C   LIG    1       -0.132   5.277   3.169  0.00  0.00    -0.150 A 
ATOM      8  C   LIG    1        0.300   4.033   2.705  0.00  0.00    +0.210 A 
BRANCH   3   9
ATOM      9  S   LIG    1        1.959   2.383   1.306  0.00  0.00    +2.700 S 
ATOM     10  O   LIG    1        3.340   2.527   1.003  0.00  0.00    -0.930 OA
ATOM     11  O   LIG    1        1.461   1.416   2.221  0.00  0.00    -0.930 OA
BRANCH   9  12
ATOM     12  N   LIG    1        1.191   2.103  -0.134  0.00  0.00    -0.870 NA
ATOM     13  C   LIG    1        1.853   2.444  -1.396  0.00  0.00    +0.330 C 
BRANCH  12  15
ATOM     14  C   LIG    1       -0.115   0.107  -0.199  0.00  0.00    +0.220 C 
ATOM     15  O   LIG    1       -0.106   1.535  -0.146  0.00  0.00    -0.120 OA
ENDBRANCH  12  15
ENDBRANCH   9  12
ENDBRANCH   3   9
ENDBRANCH   1   7
BRANCH   1  16
ATOM     16  O   LIG    1       -1.736   6.573   4.486  0.00  0.00    -0.290 OA
BRANCH  16  17
ATOM     17  C   LIG    1       -2.895   6.602   5.196  0.00  0.00    +0.090 A 
ATOM     18  C   LIG    1       -4.065   7.048   4.598  0.00  0.00    +0.060 A 
ATOM     19  C   LIG    1       -5.242   7.072   5.318  0.00  0.00    +0.040 A 
ATOM     20  C   LIG    1       -5.254   6.661   6.644  0.00  0.00    +0.140 A 
ATOM     21  C   LIG    1       -4.082   6.220   7.244  0.00  0.00    +0.060 A 
ATOM     22  C   LIG    1       -2.906   6.191   6.521  0.00  0.00    +0.060 A 
BRANCH  20  23
ATOM     23  N   LIG    1       -6.449   6.692   7.378  0.00  0.00    -0.330 N 
ATOM     24  C   LIG    1       -7.665   7.095   6.949  0.00  0.00    +0.470 A 
ATOM     25  N   LIG    1       -8.495   6.957   7.950  0.00  0.00    -0.330 NA
ATOM     26  N   LIG    1       -7.885   6.503   8.985  0.00  0.00    -0.030 NA
ATOM     27  N   LIG    1       -6.637   6.315   8.720  0.00  0.00    -0.070 NA
ENDBRANCH  20  23
ENDBRANCH  16  17
ENDBRANCH   1  16
TORSDOF 7
