REMARK  Name = ZINCrH00000No52A.0
REMARK                            x       y       z     vdW  Elec       q    Type
REMARK                         _______ _______ _______ _____ _____    ______ ____
ROOT
ATOM      1  C   LIG    1        3.860  -0.573  -0.051  0.00  0.00    +0.350 A 
ATOM      2  N   LIG    1        2.593  -0.215  -0.036  0.00  0.00    -0.500 NA
ATOM      3  C   LIG    1        2.501   1.120  -0.014  0.00  0.00    +0.260 A 
ATOM      4  N   LIG    1        3.712   1.634  -0.006  0.00  0.00    -0.250 NA
ATOM      5  N   LIG    1        4.614   0.558  -0.029  0.00  0.00    -0.320 N 
ENDROOT
BRANCH   1   8
ATOM      6  C   LIG    1        4.608  -4.061  -1.205  0.00  0.00    +0.030 A 
ATOM      7  C   LIG    1        4.120  -2.788  -1.199  0.00  0.00    +0.040 A 
ATOM      8  C   LIG    1        4.372  -1.960  -0.080  0.00  0.00    -0.090 A 
ATOM      9  C   LIG    1        5.091  -2.455   0.983  0.00  0.00    +0.310 A 
ATOM     10  N   LIG    1        5.564  -3.726   0.963  0.00  0.00    -0.590 N 
ATOM     11  H   LIG    1        6.070  -4.061   1.720  0.00  0.00    +0.430 HD
ATOM     12  C   LIG    1        5.341  -4.530  -0.094  0.00  0.00    +0.530 A 
ATOM     13  O   LIG    1        5.776  -5.670  -0.091  0.00  0.00    -0.510 OA
BRANCH   6  15
ATOM     14  C   LIG    1        3.634  -4.331  -3.358  0.00  0.00    +0.250 C 
ATOM     15  O   LIG    1        4.384  -4.876  -2.271  0.00  0.00    -0.290 OA
ENDBRANCH   6  15
ENDBRANCH   1   8
BRANCH   3  16
ATOM     16  C   LIG    1        1.236   1.895   0.004  0.00  0.00    +0.210 A 
ATOM     17  C   LIG    1        0.016   1.225  -0.007  0.00  0.00    +0.050 A 
ATOM     18  C   LIG    1       -1.157   1.962   0.004  0.00  0.00    +0.090 A 
ATOM     19  C   LIG    1       -1.069   3.346   0.037  0.00  0.00    +0.020 A 
ATOM     20  C   LIG    1        0.178   3.947   0.047  0.00  0.00    +0.130 A 
ATOM     21 BR   LIG    1        0.305   5.833   0.085  0.00  0.00    +0.000 Br
ATOM     22  N   LIG    1        1.278   3.221   0.030  0.00  0.00    -0.430 NA
ENDBRANCH   3  16
BRANCH   5  23
ATOM     23  C   LIG    1        6.077   0.638  -0.031  0.00  0.00    +0.080 C 
ATOM     24  C   LIG    1        7.081   0.177   1.055  0.00  0.00    +0.050 C 
ATOM     25  C   LIG    1        8.035   0.759  -0.051  0.00  0.00    -0.100 C 
ATOM     26  C   LIG    1        9.561   0.866  -0.054  0.00  0.00    +0.120 C 
ATOM     27  C   LIG    1        7.088   0.012  -1.022  0.00  0.00    +0.050 C 
ATOM     28  C   LIG    1        6.981   1.886  -0.127  0.00  0.00    +0.080 C 
ENDBRANCH   5  23
TORSDOF 4
