REMARK  Name = ZINCpe000000YdIx.0
REMARK                            x       y       z     vdW  Elec       q    Type
REMARK                         _______ _______ _______ _____ _____    ______ ____
ROOT
ATOM      1  C   LIG    1       -0.725  -2.557   6.820  0.00  0.00    +0.360 C 
ATOM      2  N   LIG    1       -1.685  -2.136   5.797  0.00  0.00    -0.500 N 
ATOM      3  C   LIG    1       -2.769  -2.892   5.544  0.00  0.00    +0.590 A 
ATOM      4  C   LIG    1       -3.705  -2.491   4.553  0.00  0.00    -0.320 A 
ATOM      5  C   LIG    1       -3.497  -1.320   3.848  0.00  0.00    +0.180 A 
ATOM      6  N   LIG    1       -2.358  -0.559   4.144  0.00  0.00    -0.410 N 
ATOM      7  C   LIG    1       -1.869   0.610   3.643  0.00  0.00    +0.200 A 
ATOM      8  N   LIG    1       -0.760   0.866   4.281  0.00  0.00    -0.240 NA
ATOM      9  N   LIG    1       -0.520  -0.061   5.141  0.00  0.00    -0.290 NA
ATOM     10  C   LIG    1       -4.506  -1.081   2.922  0.00  0.00    +0.010 A 
ATOM     11  C   LIG    1       -5.472  -1.995   2.875  0.00  0.00    -0.020 A 
ATOM     12  S   LIG    1       -5.194  -3.245   3.999  0.00  0.00    +0.360 S 
ATOM     13  O   LIG    1       -2.949  -3.923   6.167  0.00  0.00    -0.510 OA
ATOM     14  C   LIG    1       -1.472  -0.965   5.095  0.00  0.00    +0.410 A 
ENDROOT
BRANCH   7  15
ATOM     15  C   LIG    1       -2.494   1.452   2.560  0.00  0.00    +0.330 C 
BRANCH  15  16
ATOM     16  N   LIG    1       -1.985   1.022   1.251  0.00  0.00    -0.500 NA
ATOM     17  C   LIG    1       -0.542   1.277   1.138  0.00  0.00    +0.180 C 
ATOM     18  C   LIG    1       -0.021   0.688  -0.174  0.00  0.00    +0.020 C 
ATOM     19  C   LIG    1       -0.765   1.330  -1.349  0.00  0.00    +0.000 C 
ATOM     20  C   LIG    1       -2.268   1.092  -1.182  0.00  0.00    +0.060 C 
ATOM     21  C   LIG    1       -2.725   1.669   0.160  0.00  0.00    +0.090 C 
ATOM     22  C   LIG    1       -4.223   1.415   0.340  0.00  0.00    +0.070 C 
BRANCH  21  23
ATOM     23  C   LIG    1       -2.461   3.153   0.184  0.00  0.00    +0.500 C 
ATOM     24  O   LIG    1       -1.830   3.641   1.097  0.00  0.00    -0.530 OA
ATOM     25  N   LIG    1       -2.926   3.936  -0.809  0.00  0.00    -0.850 N 
ATOM     26  H   LIG    1       -2.697   4.879  -0.830  0.00  0.00    +0.400 HD
ATOM     27  H   LIG    1       -3.489   3.558  -1.502  0.00  0.00    +0.400 HD
ENDBRANCH  21  23
ENDBRANCH  15  16
ENDBRANCH   7  15
TORSDOF 3
