REMARK  Name = ZINCqH0000050x4k.0
REMARK                            x       y       z     vdW  Elec       q    Type
REMARK                         _______ _______ _______ _____ _____    ______ ____
ROOT
ATOM      1  C   LIG    1       -4.302   0.034   6.229  0.00  0.00    +0.240 A 
ATOM      2  C   LIG    1       -3.775  -1.126   5.692  0.00  0.00    -0.070 A 
ATOM      3  C   LIG    1       -3.340  -1.143   4.372  0.00  0.00    +0.210 A 
ATOM      4  C   LIG    1       -3.445   0.021   3.607  0.00  0.00    -0.280 A 
ATOM      5  C   LIG    1       -3.987   1.190   4.197  0.00  0.00    +0.530 A 
ATOM      6  O   LIG    1       -4.080   2.215   3.544  0.00  0.00    -0.530 OA
ATOM      7  N   LIG    1       -4.403   1.169   5.478  0.00  0.00    -0.600 N 
ATOM      8  H   LIG    1       -4.776   1.972   5.873  0.00  0.00    +0.420 HD
ENDROOT
BRANCH   1  14
ATOM      9  C   LIG    1       -6.303   2.468  10.097  0.00  0.00    +0.100 C 
ATOM     10  C   LIG    1       -5.725   1.212   9.497  0.00  0.00    -0.080 A 
ATOM     11  C   LIG    1       -5.625   0.064  10.263  0.00  0.00    +0.030 A 
ATOM     12  C   LIG    1       -5.097  -1.094   9.720  0.00  0.00    +0.030 A 
ATOM     13  C   LIG    1       -4.670  -1.113   8.409  0.00  0.00    +0.060 A 
ATOM     14  C   LIG    1       -4.762   0.044   7.631  0.00  0.00    -0.080 A 
ATOM     15  C   LIG    1       -5.297   1.210   8.186  0.00  0.00    +0.020 A 
ENDBRANCH   1  14
BRANCH   4  16
ATOM     16  C   LIG    1       -2.994   0.034   2.209  0.00  0.00    +0.590 C 
ATOM     17  N   LIG    1       -2.075   0.934   1.806  0.00  0.00    -0.560 N 
ATOM     18  O   LIG    1       -3.451  -0.767   1.415  0.00  0.00    -0.520 OA
BRANCH  17  19
ATOM     19  C   LIG    1       -1.641   0.961   0.407  0.00  0.00    +0.200 C 
ATOM     20  C   LIG    1       -2.452   0.143  -0.600  0.00  0.00    +0.040 C 
ATOM     21  C   LIG    1       -1.059  -0.328  -0.177  0.00  0.00    +0.000 C 
ENDBRANCH  17  19
BRANCH  17  22
ATOM     22  C   LIG    1       -1.510   1.885   2.767  0.00  0.00    +0.370 C 
BRANCH  22  23
ATOM     23  C   LIG    1       -0.847   3.015   2.023  0.00  0.00    -0.030 A 
ATOM     24  C   LIG    1       -1.405   4.207   1.744  0.00  0.00    -0.030 A 
ATOM     25  C   LIG    1       -0.435   4.960   1.043  0.00  0.00    -0.070 A 
ATOM     26  C   LIG    1        0.657   4.181   0.932  0.00  0.00    +0.170 A 
ATOM     27  O   LIG    1        0.400   3.004   1.525  0.00  0.00    -0.170 OA
ENDBRANCH  22  23
ENDBRANCH  17  22
ENDBRANCH   4  16
TORSDOF 5
