REMARK  Name = ZINCrH000004mtbs.1
REMARK                            x       y       z     vdW  Elec       q    Type
REMARK                         _______ _______ _______ _____ _____    ______ ____
ROOT
ATOM      1  C   LIG    1       -0.246   3.314   1.863  0.00  0.00    +0.560 C 
ATOM      2  N   LIG    1       -0.941   3.498   0.723  0.00  0.00    -0.610 N 
ATOM      3  C   LIG    1       -1.591   4.786   0.435  0.00  0.00    +0.280 C 
ATOM      4  C   LIG    1       -1.172   5.240  -0.968  0.00  0.00    +0.170 C 
ATOM      5  N   LIG    1       -1.460   4.170  -1.932  0.00  0.00    -0.690 NA
ATOM      6  H   LIG    1       -1.304   4.484  -2.878  0.00  0.00    +0.350 HD
ATOM      7  C   LIG    1       -0.672   2.964  -1.641  0.00  0.00    +0.180 C 
ATOM      8  C   LIG    1       -1.071   2.417  -0.266  0.00  0.00    +0.290 C 
ATOM      9  O   LIG    1        0.397   2.295   2.024  0.00  0.00    -0.500 OA
ENDROOT
BRANCH   8  10
ATOM     10  C   LIG    1       -0.160   1.276   0.109  0.00  0.00    -0.040 A 
ATOM     11  C   LIG    1       -0.682   0.139   0.694  0.00  0.00    +0.020 A 
ATOM     12  C   LIG    1        0.152  -0.910   1.033  0.00  0.00    +0.030 A 
ATOM     13  C   LIG    1        1.509  -0.822   0.788  0.00  0.00    +0.020 A 
ATOM     14  C   LIG    1        2.033   0.317   0.201  0.00  0.00    -0.020 A 
ATOM     15 CL   LIG    1        3.737   0.430  -0.107  0.00  0.00    -0.080 Cl
ATOM     16  C   LIG    1        1.197   1.366  -0.138  0.00  0.00    +0.040 A 
ENDBRANCH   8  10
BRANCH   1  20
ATOM     17  C   LIG    1       -0.310   6.295   4.891  0.00  0.00    +0.140 A 
ATOM     18  C   LIG    1       -1.417   6.112   4.074  0.00  0.00    -0.040 A 
ATOM     19  C   LIG    1       -1.397   5.150   3.087  0.00  0.00    +0.070 A 
ATOM     20  C   LIG    1       -0.267   4.348   2.915  0.00  0.00    -0.140 A 
ATOM     21  C   LIG    1        0.848   4.532   3.738  0.00  0.00    +0.050 A 
ATOM     22  C   LIG    1        0.824   5.502   4.721  0.00  0.00    +0.070 A 
BRANCH  17  24
ATOM     23  C   LIG    1       -1.526   8.024   5.977  0.00  0.00    +0.250 C 
ATOM     24  O   LIG    1       -0.332   7.248   5.858  0.00  0.00    -0.300 OA
ENDBRANCH  17  24
BRANCH  22  25
ATOM     25  O   LIG    1        1.907   5.684   5.523  0.00  0.00    -0.310 OA
BRANCH  25  26
ATOM     26  C   LIG    1        3.035   4.836   5.293  0.00  0.00    +0.600 C 
ATOM     27  F   LIG    1        3.499   5.023   3.986  0.00  0.00    -0.200 F 
ATOM     28  F   LIG    1        2.658   3.501   5.468  0.00  0.00    -0.190 F 
ENDBRANCH  25  26
ENDBRANCH  22  25
ENDBRANCH   1  20
TORSDOF 5
