REMARK  Name = ZINCrD0000071Mo2.0
REMARK                            x       y       z     vdW  Elec       q    Type
REMARK                         _______ _______ _______ _____ _____    ______ ____
ROOT
ATOM      1  C   LIG    1        1.159   3.161  -0.008  0.00  0.00    -0.700 A 
ATOM      2  C   LIG    1        1.166   1.790  -0.189  0.00  0.00    +0.140 A 
ATOM      3  C   LIG    1       -0.021   1.084  -0.177  0.00  0.00    +0.000 A 
ATOM      4  C   LIG    1       -1.223   1.753   0.012  0.00  0.00    +0.210 A 
ATOM      5  C   LIG    1       -1.227   3.129   0.200  0.00  0.00    -0.030 A 
ATOM      6  C   LIG    1       -0.036   3.829   0.187  0.00  0.00    +0.140 A 
ENDROOT
BRANCH   4   7
ATOM      7  N   LIG    1       -2.427   1.042   0.019  0.00  0.00    -0.670 N 
ATOM      8  H   LIG    1       -3.235   1.452  -0.327  0.00  0.00    +0.420 HD
ATOM      9  C   LIG    1       -2.465  -0.215   0.505  0.00  0.00    +0.550 C 
ATOM     10  O   LIG    1       -1.475  -0.696   1.026  0.00  0.00    -0.520 OA
BRANCH   9  11
ATOM     11  C   LIG    1       -3.696  -1.001   0.407  0.00  0.00    -0.080 C 
ATOM     12  C   LIG    1       -3.734  -2.258   0.893  0.00  0.00    +0.140 C 
BRANCH  12  13
ATOM     13  C   LIG    1       -4.972  -3.048   0.794  0.00  0.00    -0.040 A 
ATOM     14  C   LIG    1       -6.110  -2.498   0.197  0.00  0.00    -0.010 A 
ATOM     15  C   LIG    1       -7.268  -3.243   0.107  0.00  0.00    +0.050 A 
ATOM     16  C   LIG    1       -7.307  -4.532   0.606  0.00  0.00    -0.060 A 
ATOM     17  C   LIG    1       -6.182  -5.088   1.200  0.00  0.00    +0.130 A 
ATOM     18  C   LIG    1       -5.013  -4.354   1.293  0.00  0.00    +0.020 A 
BRANCH  17  19
ATOM     19  O   LIG    1       -6.228  -6.356   1.688  0.00  0.00    -0.320 OA
ATOM     20  C   LIG    1       -7.465  -7.058   1.554  0.00  0.00    +0.250 C 
ENDBRANCH  17  19
ENDBRANCH  12  13
ENDBRANCH   9  11
ENDBRANCH   4   7
BRANCH   1  21
ATOM     21  S   LIG    1        2.675   4.058  -0.024  0.00  0.00    +2.690 S 
ATOM     22  O   LIG    1        3.695   3.128   0.313  0.00  0.00    -0.950 OA
ATOM     23  O   LIG    1        2.441   5.254   0.706  0.00  0.00    -0.950 OA
BRANCH  21  24
ATOM     24  N   LIG    1        2.958   4.514  -1.591  0.00  0.00    -1.000 NA
BRANCH  24  26
ATOM     25  C   LIG    1        3.537   6.861  -1.963  0.00  0.00    +0.010 C 
ATOM     26  C   LIG    1        2.446   5.795  -2.085  0.00  0.00    +0.280 C 
ENDBRANCH  24  26
BRANCH  24  27
ATOM     27  C   LIG    1        3.719   3.636  -2.483  0.00  0.00    +0.290 C 
ATOM     28  C   LIG    1        2.752   2.770  -3.294  0.00  0.00    +0.010 C 
ENDBRANCH  24  27
ENDBRANCH  21  24
ENDBRANCH   1  21
TORSDOF 8
