REMARK  Name = ZINCrH000004kpez.0
REMARK                            x       y       z     vdW  Elec       q    Type
REMARK                         _______ _______ _______ _____ _____    ______ ____
ROOT
ATOM      1  N   LIG    1        3.843  -2.119  -0.623  0.00  0.00    -0.720 N 
ATOM      2  H   LIG    1        3.808  -2.897  -0.045  0.00  0.00    +0.390 HD
ATOM      3  C   LIG    1        3.909  -2.276  -1.960  0.00  0.00    +0.600 C 
ATOM      4  O   LIG    1        4.045  -1.306  -2.680  0.00  0.00    -0.500 OA
ENDROOT
BRANCH   3   5
ATOM      5  C   LIG    1        3.817  -3.622  -2.548  0.00  0.00    -0.040 A 
ATOM      6  C   LIG    1        3.869  -3.943  -3.891  0.00  0.00    +0.040 A 
ATOM      7  C   LIG    1        3.740  -5.343  -3.943  0.00  0.00    +0.070 A 
ATOM      8  N   LIG    1        3.624  -5.778  -2.706  0.00  0.00    -0.250 NA
ATOM      9  N   LIG    1        3.671  -4.802  -1.874  0.00  0.00    -0.370 N 
ATOM     10  H   LIG    1        3.609  -4.888  -0.909  0.00  0.00    +0.440 HD
BRANCH   7  11
ATOM     11  C   LIG    1        3.736  -6.179  -5.171  0.00  0.00    -0.010 A 
ATOM     12  C   LIG    1        3.863  -5.582  -6.423  0.00  0.00    +0.030 A 
ATOM     13  C   LIG    1        3.864  -6.363  -7.561  0.00  0.00    +0.010 A 
ATOM     14  C   LIG    1        3.728  -7.736  -7.459  0.00  0.00    +0.010 A 
ATOM     15  C   LIG    1        3.596  -8.334  -6.219  0.00  0.00    +0.010 A 
ATOM     16  C   LIG    1        3.600  -7.562  -5.074  0.00  0.00    +0.040 A 
ENDBRANCH   7  11
ENDBRANCH   3   5
BRANCH   1  17
ATOM     17  C   LIG    1        3.823  -0.773  -0.044  0.00  0.00    +0.320 C 
BRANCH  17  18
ATOM     18  C   LIG    1        2.405  -0.266  -0.000  0.00  0.00    -0.090 A 
ATOM     19  C   LIG    1        1.352  -1.160   0.037  0.00  0.00    +0.040 A 
ATOM     20  C   LIG    1        0.050  -0.695   0.078  0.00  0.00    +0.020 A 
ATOM     21  C   LIG    1       -0.198   0.665   0.080  0.00  0.00    +0.040 A 
ATOM     22  C   LIG    1        0.854   1.560   0.042  0.00  0.00    +0.030 A 
ATOM     23  C   LIG    1        2.156   1.095   0.002  0.00  0.00    -0.020 A 
ATOM     24 CL   LIG    1        3.479   2.219  -0.045  0.00  0.00    -0.060 Cl
ENDBRANCH  17  18
BRANCH  17  25
ATOM     25  C   LIG    1        4.392  -0.821   1.376  0.00  0.00    +0.130 C 
BRANCH  25  26
ATOM     26  C   LIG    1        5.850  -1.196   1.320  0.00  0.00    +0.460 C 
ATOM     27  O   LIG    1        6.362  -1.476   0.262  0.00  0.00    -0.490 OA
BRANCH  26  29
ATOM     28  C   LIG    1        7.979  -1.587   2.317  0.00  0.00    +0.270 C 
ATOM     29  O   LIG    1        6.581  -1.218   2.446  0.00  0.00    -0.360 OA
ENDBRANCH  26  29
ENDBRANCH  25  26
ENDBRANCH  17  25
ENDBRANCH   1  17
TORSDOF 7
