REMARK  Name = ZINCvU0000000E6F.0
REMARK                            x       y       z     vdW  Elec       q    Type
REMARK                         _______ _______ _______ _____ _____    ______ ____
ROOT
ATOM      1  S   LIG    1        1.637   2.138  -2.781  0.00  0.00    +0.070 S 
ENDROOT
BRANCH   1   2
ATOM      2  C   LIG    1        2.119   2.301  -1.094  0.00  0.00    +0.150 A 
ATOM      3  N   LIG    1        3.280   2.726  -0.652  0.00  0.00    -0.280 NA
ATOM      4  N   LIG    1        3.287   2.717   0.634  0.00  0.00    -0.280 NA
ATOM      5  C   LIG    1        2.139   2.295   1.084  0.00  0.00    +0.220 A 
ATOM      6  N   LIG    1        1.356   2.010  -0.000  0.00  0.00    -0.450 N 
BRANCH   5   7
ATOM      7  C   LIG    1        1.748   2.146   2.532  0.00  0.00    +0.030 C 
ATOM      8  C   LIG    1        2.705   2.712   3.584  0.00  0.00    +0.070 C 
ATOM      9  C   LIG    1        2.584   1.198   3.395  0.00  0.00    +0.050 C 
ENDBRANCH   5   7
BRANCH   6  10
ATOM     10  C   LIG    1       -0.018   1.503   0.010  0.00  0.00    +0.370 C 
BRANCH  10  11
ATOM     11  C   LIG    1        0.002  -0.004   0.002  0.00  0.00    -0.120 A 
ATOM     12  C   LIG    1       -0.006  -0.689  -1.199  0.00  0.00    +0.040 A 
ATOM     13  C   LIG    1        0.018  -2.071  -1.206  0.00  0.00    +0.010 A 
ATOM     14  C   LIG    1        0.039  -2.768  -0.013  0.00  0.00    +0.020 A 
ATOM     15  C   LIG    1        0.041  -2.084   1.188  0.00  0.00    +0.010 A 
ATOM     16  C   LIG    1        0.023  -0.702   1.195  0.00  0.00    +0.030 A 
ENDBRANCH  10  11
ENDBRANCH   6  10
ENDBRANCH   1   2
BRANCH   1  17
ATOM     17  C   LIG    1        3.150   2.704  -3.597  0.00  0.00    +0.070 C 
BRANCH  17  19
ATOM     18  O   LIG    1        1.911   2.520  -5.596  0.00  0.00    -0.520 OA
ATOM     19  C   LIG    1        3.012   2.534  -5.088  0.00  0.00    +0.550 C 
ATOM     20  N   LIG    1        4.111   2.397  -5.855  0.00  0.00    -0.600 N 
ATOM     21  C   LIG    1        5.451   2.418  -5.254  0.00  0.00    +0.270 C 
ATOM     22  C   LIG    1        6.204   1.153  -5.693  0.00  0.00    +0.010 C 
ATOM     23  C   LIG    1        6.202   1.069  -7.221  0.00  0.00    +0.020 C 
ATOM     24  C   LIG    1        4.761   0.972  -7.726  0.00  0.00    +0.010 C 
ATOM     25  C   LIG    1        3.992   2.230  -7.310  0.00  0.00    +0.280 C 
ENDBRANCH  17  19
BRANCH  17  26
ATOM     26  C   LIG    1        3.379   4.159  -3.277  0.00  0.00    -0.090 A 
ATOM     27  C   LIG    1        2.436   5.103  -3.639  0.00  0.00    +0.040 A 
ATOM     28  C   LIG    1        2.643   6.437  -3.342  0.00  0.00    +0.000 A 
ATOM     29  C   LIG    1        3.798   6.828  -2.690  0.00  0.00    +0.010 A 
ATOM     30  C   LIG    1        4.743   5.885  -2.332  0.00  0.00    +0.000 A 
ATOM     31  C   LIG    1        4.534   4.551  -2.626  0.00  0.00    +0.050 A 
ENDBRANCH  17  26
ENDBRANCH   1  17
TORSDOF 7
