REMARK  Name = ZINCrD00000l0lpN.0
REMARK                            x       y       z     vdW  Elec       q    Type
REMARK                         _______ _______ _______ _____ _____    ______ ____
ROOT
ATOM      1  C   LIG    1       -3.618   1.125   4.706  0.00  0.00    +0.040 C 
ATOM      2  C   LIG    1       -3.564   1.358   3.194  0.00  0.00    +0.140 C 
ATOM      3  C   LIG    1       -2.903   0.156   2.517  0.00  0.00    +0.060 C 
ATOM      4  C   LIG    1       -2.842   0.399   1.006  0.00  0.00    +0.020 C 
ATOM      5  C   LIG    1       -2.084   1.698   0.737  0.00  0.00    +0.160 C 
ATOM      6  O   LIG    1       -0.719   1.566   1.168  0.00  0.00    -0.320 OA
ATOM      7  C   LIG    1       -0.013   1.086   0.008  0.00  0.00    +0.260 C 
ATOM      8  C   LIG    1       -0.776   1.603  -1.189  0.00  0.00    -0.120 A 
ATOM      9  C   LIG    1       -0.444   1.744  -2.520  0.00  0.00    +0.040 A 
ATOM     10  C   LIG    1       -1.368   2.260  -3.411  0.00  0.00    +0.020 A 
ATOM     11  C   LIG    1       -2.623   2.634  -2.968  0.00  0.00    +0.010 A 
ATOM     12  C   LIG    1       -2.957   2.492  -1.633  0.00  0.00    +0.030 A 
ATOM     13  C   LIG    1       -2.752   2.858   1.473  0.00  0.00    +0.230 C 
ATOM     14  C   LIG    1       -2.036   1.976  -0.744  0.00  0.00    -0.120 A 
ATOM     15  N   LIG    1       -2.787   2.571   2.913  0.00  0.00    -0.480 N 
ENDROOT
BRANCH  15  16
ATOM     16  C   LIG    1       -3.282   3.654   3.623  0.00  0.00    +0.370 A 
ATOM     17  C   LIG    1       -4.533   4.191   3.314  0.00  0.00    -0.050 A 
ATOM     18  C   LIG    1       -4.986   5.274   4.061  0.00  0.00    +0.230 A 
ATOM     19  N   LIG    1       -4.210   5.762   5.029  0.00  0.00    -0.490 NA
ATOM     20  C   LIG    1       -3.034   5.229   5.285  0.00  0.00    +0.520 A 
ATOM     21  N   LIG    1       -2.570   4.200   4.605  0.00  0.00    -0.490 NA
BRANCH  18  22
ATOM     22  C   LIG    1       -6.311   5.882   3.779  0.00  0.00    +0.350 A 
ATOM     23  N   LIG    1       -7.059   5.380   2.807  0.00  0.00    -0.500 NA
ATOM     24  C   LIG    1       -8.246   5.894   2.534  0.00  0.00    +0.330 A 
ATOM     25  C   LIG    1       -8.700   6.978   3.272  0.00  0.00    -0.060 A 
ATOM     26  C   LIG    1       -7.888   7.481   4.278  0.00  0.00    +0.330 A 
ATOM     27  N   LIG    1       -6.715   6.917   4.502  0.00  0.00    -0.470 NA
ENDBRANCH  18  22
ENDBRANCH  15  16
TORSDOF 2
