REMARK  Name = ZINCpe00000MJIjF.0
REMARK                            x       y       z     vdW  Elec       q    Type
REMARK                         _______ _______ _______ _____ _____    ______ ____
ROOT
ATOM      1  C   LIG    1       -2.503   4.640   1.696  0.00  0.00    +0.390 A 
ATOM      2  C   LIG    1       -3.571   5.176   2.423  0.00  0.00    -0.050 A 
ATOM      3  C   LIG    1       -4.271   6.246   1.876  0.00  0.00    +0.170 A 
ATOM      4  N   LIG    1       -3.903   6.720   0.686  0.00  0.00    -0.550 NA
ATOM      5  C   LIG    1       -2.887   6.187   0.028  0.00  0.00    +0.530 A 
ATOM      6  N   LIG    1       -2.193   5.170   0.519  0.00  0.00    -0.560 NA
ENDROOT
BRANCH   1  10
ATOM      7  C   LIG    1       -0.013   1.086   0.008  0.00  0.00    +0.060 C 
ATOM      8  C   LIG    1       -0.729   1.579   1.267  0.00  0.00    +0.160 C 
ATOM      9  C   LIG    1       -0.787   3.122   1.243  0.00  0.00    +0.180 C 
ATOM     10  N   LIG    1       -1.776   3.574   2.199  0.00  0.00    -0.480 N 
ATOM     11  C   LIG    1       -1.226   3.891   3.537  0.00  0.00    +0.200 C 
ATOM     12  C   LIG    1       -0.187   2.860   3.994  0.00  0.00    +0.010 C 
ATOM     13  C   LIG    1       -0.610   1.451   3.654  0.00  0.00    +0.240 C 
ATOM     14  O   LIG    1       -0.063   1.123   2.367  0.00  0.00    -0.380 OA
ENDBRANCH   1  10
BRANCH   5  15
ATOM     15  N   LIG    1       -2.535   6.708  -1.205  0.00  0.00    -0.460 N 
ATOM     16  C   LIG    1       -1.094   7.025  -1.254  0.00  0.00    +0.230 C 
ATOM     17  C   LIG    1       -0.630   6.952  -2.688  0.00  0.00    +0.010 C 
ATOM     18  C   LIG    1       -0.741   8.313  -3.391  0.00  0.00    +0.210 C 
ATOM     19  O   LIG    1       -1.958   9.009  -3.059  0.00  0.00    -0.380 OA
ATOM     20  C   LIG    1       -3.133   8.238  -3.009  0.00  0.00    +0.160 C 
ATOM     21  C   LIG    1       -4.319   9.082  -3.482  0.00  0.00    +0.060 C 
ATOM     22  C   LIG    1       -3.374   7.778  -1.557  0.00  0.00    +0.200 C 
ENDBRANCH   5  15
BRANCH   3  23
ATOM     23  C   LIG    1       -5.412   6.851   2.607  0.00  0.00    +0.580 C 
ATOM     24  O   LIG    1       -5.740   6.413   3.691  0.00  0.00    -0.520 OA
ATOM     25  N   LIG    1       -6.084   7.888   2.068  0.00  0.00    -0.830 N 
ATOM     26  H   LIG    1       -6.830   8.284   2.546  0.00  0.00    +0.410 HD
ATOM     27  H   LIG    1       -5.822   8.238   1.203  0.00  0.00    +0.410 HD
ENDBRANCH   3  23
TORSDOF 3
