REMARK  Name = ZINCtV00000L6ky5.0
REMARK                            x       y       z     vdW  Elec       q    Type
REMARK                         _______ _______ _______ _____ _____    ______ ____
ROOT
ATOM      1  C   LIG    1        8.947   1.471  -0.077  0.00  0.00    +0.460 A 
ATOM      2  N   LIG    1        8.977   2.775  -0.075  0.00  0.00    -0.550 NA
ATOM      3  C   LIG    1       10.140   3.448  -0.078  0.00  0.00    +0.540 A 
ATOM      4  C   LIG    1       11.403   2.685  -0.096  0.00  0.00    -0.220 A 
ATOM      5  C   LIG    1       11.310   1.305  -0.102  0.00  0.00    +0.060 A 
ATOM      6  S   LIG    1       12.918   0.595  -0.122  0.00  0.00    +0.200 S 
ATOM      7  C   LIG    1       13.690   2.169  -0.121  0.00  0.00    -0.030 A 
ATOM      8  C   LIG    1       12.784   3.147  -0.107  0.00  0.00    +0.010 A 
ATOM      9  O   LIG    1       10.151   4.668  -0.072  0.00  0.00    -0.470 OA
ATOM     10  N   LIG    1       10.061   0.723  -0.092  0.00  0.00    -0.580 N 
ATOM     11  H   LIG    1        9.986  -0.244  -0.097  0.00  0.00    +0.420 HD
ENDROOT
BRANCH   8  12
ATOM     12  C   LIG    1       13.151   4.583  -0.103  0.00  0.00    -0.020 A 
ATOM     13  C   LIG    1       12.569   5.456  -1.021  0.00  0.00    +0.070 A 
ATOM     14  C   LIG    1       12.911   6.793  -1.010  0.00  0.00    +0.050 A 
ATOM     15  C   LIG    1       13.839   7.265  -0.097  0.00  0.00    -0.080 A 
ATOM     16  C   LIG    1       14.423   6.401   0.812  0.00  0.00    +0.040 A 
ATOM     17 BR   LIG    1       14.308   9.097  -0.094  0.00  0.00    -0.050 Br
ATOM     18  C   LIG    1       14.085   5.064   0.814  0.00  0.00    +0.030 A 
ENDBRANCH   8  12
BRANCH   1  19
ATOM     19  C   LIG    1        7.609   0.778  -0.068  0.00  0.00    +0.160 C 
BRANCH  19  20
ATOM     20  S   LIG    1        6.286   2.018  -0.048  0.00  0.00    -0.110 S 
BRANCH  20  21
ATOM     21  C   LIG    1        4.780   1.007  -0.039  0.00  0.00    +0.050 C 
BRANCH  21  22
ATOM     22  C   LIG    1        3.553   1.921  -0.022  0.00  0.00    +0.220 C 
BRANCH  22  23
ATOM     23  O   LIG    1        2.366   1.125  -0.015  0.00  0.00    -0.310 OA
BRANCH  23  28
ATOM     24  C   LIG    1       -2.553   3.867   0.046  0.00  0.00    +0.100 C 
ATOM     25  C   LIG    1       -1.237   3.133   0.030  0.00  0.00    -0.120 A 
ATOM     26  C   LIG    1       -1.218   1.751   0.017  0.00  0.00    +0.050 A 
ATOM     27  C   LIG    1       -0.013   1.076   0.008  0.00  0.00    -0.020 A 
ATOM     28  C   LIG    1        1.179   1.786   0.000  0.00  0.00    +0.120 A 
ATOM     29  C   LIG    1        1.157   3.174   0.008  0.00  0.00    -0.070 A 
ATOM     30  C   LIG    1       -0.051   3.844   0.023  0.00  0.00    +0.050 A 
ENDBRANCH  23  28
ENDBRANCH  22  23
ENDBRANCH  21  22
ENDBRANCH  20  21
ENDBRANCH  19  20
ENDBRANCH   1  19
TORSDOF 7
