REMARK  Name = ZINCpe00000VVGCJ.0
REMARK                            x       y       z     vdW  Elec       q    Type
REMARK                         _______ _______ _______ _____ _____    ______ ____
ROOT
ATOM      1  N   LIG    1       -9.263   1.928   2.650  0.00  0.00    -0.500 N 
ATOM      2  H   LIG    1       -9.523   2.598   1.999  0.00  0.00    +0.430 HD
ATOM      3  C   LIG    1       -7.985   1.502   2.706  0.00  0.00    +0.540 C 
ATOM      4  O   LIG    1       -7.660   0.664   3.521  0.00  0.00    -0.500 OA
ENDROOT
BRANCH   1   9
ATOM      5  C   LIG    1      -11.694   1.115   5.250  0.00  0.00    +0.130 C 
ATOM      6  N   LIG    1      -11.642  -0.081   4.393  0.00  0.00    -0.710 N 
ATOM      7  H   LIG    1      -12.150  -0.900   4.508  0.00  0.00    +0.440 HD
ATOM      8  C   LIG    1      -10.756   0.183   3.416  0.00  0.00    +0.710 C 
ATOM      9  N   LIG    1      -10.215   1.402   3.533  0.00  0.00    -0.380 N 
ATOM     10  O   LIG    1      -10.475  -0.598   2.529  0.00  0.00    -0.520 OA
ATOM     11  C   LIG    1      -11.259   0.779   6.678  0.00  0.00    +0.100 C 
ATOM     12  C   LIG    1      -10.705   2.063   4.600  0.00  0.00    +0.530 C 
ATOM     13  O   LIG    1      -10.415   3.182   4.965  0.00  0.00    -0.450 OA
BRANCH   5  15
ATOM     14  C   LIG    1      -14.076   0.744   5.907  0.00  0.00    +0.050 C 
ATOM     15  C   LIG    1      -13.100   1.719   5.246  0.00  0.00    +0.050 C 
ENDBRANCH   5  15
ENDBRANCH   1   9
BRANCH   3  16
ATOM     16  C   LIG    1       -6.960   2.068   1.757  0.00  0.00    +0.140 C 
BRANCH  16  17
ATOM     17  S   LIG    1       -5.352   1.303   2.080  0.00  0.00    +0.090 S 
BRANCH  17  18
ATOM     18  C   LIG    1       -4.373   2.124   0.866  0.00  0.00    +0.130 A 
ATOM     19  N   LIG    1       -4.787   3.030   0.007  0.00  0.00    -0.290 NA
ATOM     20  N   LIG    1       -3.804   3.421  -0.725  0.00  0.00    -0.280 NA
ATOM     21  C   LIG    1       -2.717   2.798  -0.377  0.00  0.00    +0.190 A 
ATOM     22  C   LIG    1       -1.339   2.968  -0.963  0.00  0.00    +0.160 C 
ATOM     23  C   LIG    1       -0.739   1.585  -1.237  0.00  0.00    +0.030 C 
ATOM     24  C   LIG    1       -0.013   1.086   0.008  0.00  0.00    +0.020 C 
ATOM     25  C   LIG    1       -0.716   1.573   1.274  0.00  0.00    +0.030 C 
ATOM     26  C   LIG    1       -2.142   1.017   1.320  0.00  0.00    +0.290 C 
ATOM     27  N   LIG    1       -3.044   1.944   0.638  0.00  0.00    -0.450 N 
ENDBRANCH  17  18
ENDBRANCH  16  17
ENDBRANCH   3  16
TORSDOF 5
