REMARK  Name = ZINCrD000000BxV1.0
REMARK                            x       y       z     vdW  Elec       q    Type
REMARK                         _______ _______ _______ _____ _____    ______ ____
ROOT
ATOM      1  O   LIG    1        2.316   8.300  -0.680  0.00  0.00    -0.510 OA
ATOM      2  C   LIG    1        1.798   7.700  -1.602  0.00  0.00    +0.570 C 
ATOM      3  N   LIG    1        0.948   6.685  -1.353  0.00  0.00    -0.720 N 
ATOM      4  H   LIG    1        0.535   6.206  -2.089  0.00  0.00    +0.400 HD
ENDROOT
BRANCH   2   5
ATOM      5  C   LIG    1        2.101   8.085  -2.997  0.00  0.00    -0.120 A 
ATOM      6  C   LIG    1        1.508   7.398  -4.058  0.00  0.00    +0.120 A 
ATOM      7  C   LIG    1        1.796   7.762  -5.357  0.00  0.00    +0.080 A 
ATOM      8  C   LIG    1        2.669   8.806  -5.610  0.00  0.00    -0.020 A 
ATOM      9  C   LIG    1        3.260   9.491  -4.561  0.00  0.00    -0.030 A 
ATOM     10 BR   LIG    1        3.057   9.298  -7.394  0.00  0.00    +0.040 Br
ATOM     11  C   LIG    1        2.977   9.140  -3.258  0.00  0.00    +0.190 A 
BRANCH   9  12
ATOM     12  N   LIG    1        4.193  10.606  -4.840  0.00  0.00    +0.020 N 
ATOM     13  O   LIG    1        4.440  10.919  -5.991  0.00  0.00    -0.120 OA
ATOM     14  O   LIG    1        4.713  11.210  -3.919  0.00  0.00    -0.150 OA
ENDBRANCH   9  12
ENDBRANCH   2   5
BRANCH   3  15
ATOM     15  C   LIG    1        0.647   6.304   0.029  0.00  0.00    +0.430 C 
BRANCH  15  16
ATOM     16  C   LIG    1       -0.323   5.150   0.033  0.00  0.00    +0.120 A 
ATOM     17  N   LIG    1       -1.628   5.237   0.046  0.00  0.00    -0.210 NA
ATOM     18  N   LIG    1       -2.153   4.063   0.045  0.00  0.00    -0.270 NA
ATOM     19  C   LIG    1       -1.195   3.151   0.030  0.00  0.00    +0.210 A 
ATOM     20  C   LIG    1       -1.198   1.742   0.017  0.00  0.00    +0.120 A 
ATOM     21  C   LIG    1       -0.013   1.076   0.008  0.00  0.00    +0.100 A 
ATOM     22  C   LIG    1        1.193   1.798   0.000  0.00  0.00    -0.190 A 
ATOM     23  C   LIG    1        1.181   3.147   0.008  0.00  0.00    +0.330 A 
ATOM     24  N   LIG    1       -0.001   3.828   0.023  0.00  0.00    -0.390 N 
BRANCH  22  25
ATOM     25  C   LIG    1        2.508   1.061  -0.016  0.00  0.00    +0.520 C 
ATOM     26  F   LIG    1        3.494   1.878  -0.578  0.00  0.00    -0.170 F 
ATOM     27  F   LIG    1        2.379  -0.106  -0.777  0.00  0.00    -0.160 F 
ATOM     28  F   LIG    1        2.871   0.726   1.293  0.00  0.00    -0.170 F 
ENDBRANCH  22  25
ENDBRANCH  15  16
ENDBRANCH   3  15
TORSDOF 5
