REMARK  Name = ZINCrg000000sCLh.0
REMARK                            x       y       z     vdW  Elec       q    Type
REMARK                         _______ _______ _______ _____ _____    ______ ____
ROOT
ATOM      1  C   LIG    1        0.049   6.372  -0.221  0.00  0.00    +0.180 C 
ATOM      2  C   LIG    1       -0.614   6.048  -1.561  0.00  0.00    +0.040 C 
ATOM      3  C   LIG    1        1.546   6.066  -0.305  0.00  0.00    +0.050 C 
ENDROOT
BRANCH   1   5
ATOM      4  C   LIG    1        0.336   8.733  -0.748  0.00  0.00    +0.600 C 
ATOM      5  N   LIG    1       -0.142   7.791   0.089  0.00  0.00    -0.710 N 
ATOM      6  H   LIG    1       -0.613   8.052   0.895  0.00  0.00    +0.410 HD
ATOM      7  O   LIG    1        1.003   8.409  -1.712  0.00  0.00    -0.540 OA
BRANCH   4  11
ATOM      8  C   LIG    1        0.554  13.459  -2.092  0.00  0.00    +0.360 C 
ATOM      9  N   LIG    1        0.150  12.429  -1.133  0.00  0.00    -0.530 N 
ATOM     10  C   LIG    1        0.431  11.127  -1.399  0.00  0.00    +0.460 A 
ATOM     11  C   LIG    1        0.051  10.154  -0.495  0.00  0.00    -0.330 A 
ATOM     12  C   LIG    1       -0.653  10.579   0.725  0.00  0.00    +0.570 A 
ATOM     13  N   LIG    1       -0.885  11.896   0.910  0.00  0.00    -0.650 N 
ATOM     14  H   LIG    1       -1.345  12.197   1.709  0.00  0.00    +0.440 HD
ATOM     15  O   LIG    1       -1.014   9.762   1.552  0.00  0.00    -0.500 OA
ATOM     16  C   LIG    1       -0.488  12.793  -0.010  0.00  0.00    +0.700 A 
ATOM     17  O   LIG    1       -0.716  13.971   0.182  0.00  0.00    -0.520 OA
ENDBRANCH   4  11
ENDBRANCH   1   5
BRANCH   1  18
ATOM     18  C   LIG    1       -0.584   5.520   0.881  0.00  0.00    +0.230 C 
BRANCH  18  19
ATOM     19  O   LIG    1       -0.397   4.136   0.580  0.00  0.00    -0.290 OA
BRANCH  19  20
ATOM     20  C   LIG    1       -0.903   3.239   1.463  0.00  0.00    +0.380 A 
ATOM     21  N   LIG    1       -1.535   3.668   2.543  0.00  0.00    -0.540 NA
ATOM     22  C   LIG    1       -2.042   2.831   3.428  0.00  0.00    +0.340 A 
ATOM     23  C   LIG    1       -1.930   1.466   3.255  0.00  0.00    -0.060 A 
ATOM     24  C   LIG    1       -1.279   0.974   2.131  0.00  0.00    +0.170 A 
ATOM     25  C   LIG    1       -0.753   1.879   1.225  0.00  0.00    -0.260 A 
BRANCH  25  26
ATOM     26  C   LIG    1       -0.034   1.394  -0.007  0.00  0.00    +0.520 C 
ATOM     27  F   LIG    1       -0.696   1.860  -1.148  0.00  0.00    -0.170 F 
ATOM     28  F   LIG    1        1.279   1.877  -0.001  0.00  0.00    -0.170 F 
ATOM     29  F   LIG    1       -0.016  -0.005  -0.017  0.00  0.00    -0.180 F 
ENDBRANCH  25  26
ENDBRANCH  19  20
ENDBRANCH  18  19
ENDBRANCH   1  18
TORSDOF 6
