REMARK  Name = ZINCqH0000006CqP.0
REMARK                            x       y       z     vdW  Elec       q    Type
REMARK                         _______ _______ _______ _____ _____    ______ ____
ROOT
ATOM      1  N   LIG    1        1.946   3.134  -1.527  0.00  0.00    -0.610 N 
ATOM      2  C   LIG    1        2.495   2.175  -2.299  0.00  0.00    +0.560 C 
ATOM      3  O   LIG    1        2.943   1.166  -1.789  0.00  0.00    -0.490 OA
ATOM      4  C   LIG    1        1.506   4.395  -2.128  0.00  0.00    +0.280 C 
ENDROOT
BRANCH   2   5
ATOM      5  C   LIG    1        2.553   2.349  -3.766  0.00  0.00    -0.150 A 
ATOM      6  C   LIG    1        1.444   2.836  -4.469  0.00  0.00    +0.110 A 
ATOM      7  C   LIG    1        1.551   2.986  -5.840  0.00  0.00    +0.030 A 
ATOM      8  C   LIG    1        2.735   2.644  -6.468  0.00  0.00    +0.060 A 
ATOM      9  N   LIG    1        3.762   2.182  -5.780  0.00  0.00    -0.440 NA
ATOM     10  C   LIG    1        3.711   2.027  -4.474  0.00  0.00    +0.190 A 
ATOM     11  C   LIG    1        4.914   1.496  -3.737  0.00  0.00    +0.150 C 
BRANCH   8  12
ATOM     12  C   LIG    1        2.854   2.800  -7.962  0.00  0.00    +0.520 C 
ATOM     13  F   LIG    1        2.769   4.155  -8.298  0.00  0.00    -0.170 F 
ATOM     14  F   LIG    1        1.817   2.099  -8.588  0.00  0.00    -0.170 F 
ATOM     15  F   LIG    1        4.085   2.290  -8.388  0.00  0.00    -0.160 F 
ENDBRANCH   8  12
ENDBRANCH   2   5
BRANCH   1  16
ATOM     16  C   LIG    1        1.791   2.915  -0.087  0.00  0.00    +0.380 C 
BRANCH  16  21
ATOM     17  C   LIG    1       -1.833   2.133   0.611  0.00  0.00    +0.130 A 
ATOM     18  C   LIG    1       -1.768   0.742   0.628  0.00  0.00    -0.150 A 
ATOM     19  C   LIG    1       -0.551   0.125   0.421  0.00  0.00    +0.270 A 
ATOM     20  N   LIG    1        0.538   0.835   0.199  0.00  0.00    -0.450 NA
ATOM     21  C   LIG    1        0.516   2.155   0.171  0.00  0.00    +0.110 A 
ATOM     22  C   LIG    1       -3.009  -0.077   0.875  0.00  0.00    +0.110 C 
ATOM     23  C   LIG    1       -0.661   2.846   0.374  0.00  0.00    -0.140 A 
ATOM     24  C   LIG    1       -0.677   4.353   0.338  0.00  0.00    +0.110 C 
BRANCH  17  26
ATOM     25  C   LIG    1       -3.807   3.054  -0.338  0.00  0.00    +0.240 C 
ATOM     26  O   LIG    1       -3.010   2.777   0.815  0.00  0.00    -0.330 OA
ENDBRANCH  17  26
ENDBRANCH  16  21
ENDBRANCH   1  16
TORSDOF 5
