REMARK  Name = ZINCrD00000bGMNU.0
REMARK                            x       y       z     vdW  Elec       q    Type
REMARK                         _______ _______ _______ _____ _____    ______ ____
ROOT
ATOM      1  C   LIG    1       -0.048   1.584   8.741  0.00  0.00    +0.430 C 
ENDROOT
BRANCH   1   2
ATOM      2  C   LIG    1        0.784   0.994   9.851  0.00  0.00    +0.140 A 
ATOM      3  N   LIG    1        1.873   1.509  10.359  0.00  0.00    -0.210 NA
ATOM      4  N   LIG    1        2.334   0.750  11.290  0.00  0.00    -0.250 NA
ATOM      5  C   LIG    1        1.549  -0.307  11.426  0.00  0.00    +0.210 A 
ATOM      6  C   LIG    1        1.577  -1.433  12.273  0.00  0.00    +0.010 A 
ATOM      7  C   LIG    1        0.597  -2.371  12.163  0.00  0.00    +0.120 A 
ATOM      8  C   LIG    1       -0.423  -2.205  11.211  0.00  0.00    -0.190 A 
ATOM      9  C   LIG    1       -0.436  -1.122  10.406  0.00  0.00    +0.330 A 
ATOM     10 CL   LIG    1        2.846  -1.621  13.443  0.00  0.00    +0.010 Cl
ATOM     11  N   LIG    1        0.535  -0.170  10.510  0.00  0.00    -0.380 N 
BRANCH   8  12
ATOM     12  C   LIG    1       -1.509  -3.243  11.088  0.00  0.00    +0.530 C 
ATOM     13  F   LIG    1       -2.658  -2.655  10.549  0.00  0.00    -0.170 F 
ATOM     14  F   LIG    1       -1.802  -3.764  12.353  0.00  0.00    -0.160 F 
ATOM     15  F   LIG    1       -1.075  -4.274  10.248  0.00  0.00    -0.160 F 
ENDBRANCH   8  12
ENDBRANCH   1   2
BRANCH   1  17
ATOM     16  C   LIG    1       -0.156   1.491   6.309  0.00  0.00    +0.530 C 
ATOM     17  N   LIG    1        0.440   1.093   7.450  0.00  0.00    -0.730 N 
ATOM     18  H   LIG    1        1.192   0.482   7.417  0.00  0.00    +0.410 HD
ATOM     19  O   LIG    1       -1.097   2.256   6.351  0.00  0.00    -0.520 OA
BRANCH  16  20
ATOM     20  C   LIG    1        0.346   0.986   4.981  0.00  0.00    +0.050 C 
BRANCH  20  21
ATOM     21  C   LIG    1       -0.498   1.585   3.855  0.00  0.00    +0.130 C 
BRANCH  21  22
ATOM     22  C   LIG    1        0.011   1.072   2.506  0.00  0.00    +0.030 C 
ATOM     23  N   LIG    1        1.426   0.715   2.381  0.00  0.00    -0.120 NA
ATOM     24  N   LIG    1        0.647  -0.246   2.453  0.00  0.00    -0.120 NA
BRANCH  22  25
ATOM     25  C   LIG    1       -0.729   1.579   1.267  0.00  0.00    +0.120 C 
BRANCH  25  26
ATOM     26  C   LIG    1       -0.013   1.086   0.008  0.00  0.00    +0.160 C 
BRANCH  26  28
ATOM     27  C   LIG    1       -1.292   1.962  -2.136  0.00  0.00    +0.030 C 
ATOM     28  C   LIG    1       -0.725   1.573  -1.185  0.00  0.00    -0.190 C 
ENDBRANCH  26  28
ENDBRANCH  25  26
ENDBRANCH  22  25
ENDBRANCH  21  22
ENDBRANCH  20  21
ENDBRANCH  16  20
ENDBRANCH   1  17
TORSDOF 9
