REMARK  Name = ZINCvU0000000JKT.0
REMARK                            x       y       z     vdW  Elec       q    Type
REMARK                         _______ _______ _______ _____ _____    ______ ____
ROOT
ATOM      1  N   LIG    1        0.030  -3.237  -1.548  0.00  0.00    -0.650 N 
ATOM      2  H   LIG    1        0.045  -4.125  -1.156  0.00  0.00    +0.410 HD
ATOM      3  C   LIG    1        0.015  -3.093  -2.888  0.00  0.00    +0.610 C 
ATOM      4  O   LIG    1       -0.004  -1.980  -3.380  0.00  0.00    -0.490 OA
ENDROOT
BRANCH   3   5
ATOM      5  C   LIG    1        0.023  -4.277  -3.752  0.00  0.00    -0.280 A 
ATOM      6  C   LIG    1        0.004  -4.245  -5.093  0.00  0.00    +0.210 A 
ATOM      7  C   LIG    1        0.021  -5.497  -5.722  0.00  0.00    -0.220 A 
ATOM      8  C   LIG    1        0.042  -6.553  -4.826  0.00  0.00    +0.040 A 
ATOM      9  N   LIG    1        0.050  -7.711  -5.558  0.00  0.00    -0.300 N 
ATOM     10  N   LIG    1        0.034  -7.367  -6.913  0.00  0.00    -0.250 NA
ATOM     11  C   LIG    1        0.016  -6.074  -7.031  0.00  0.00    +0.150 A 
ATOM     12  C   LIG    1       -0.006  -5.309  -8.329  0.00  0.00    +0.190 C 
ATOM     13  S   LIG    1        0.049  -5.936  -3.179  0.00  0.00    +0.200 S 
BRANCH   9  14
ATOM     14  C   LIG    1        0.072  -9.012  -5.039  0.00  0.00    +0.150 A 
ATOM     15  C   LIG    1        0.780  -9.286  -3.877  0.00  0.00    +0.020 A 
ATOM     16  C   LIG    1        0.795 -10.568  -3.364  0.00  0.00    +0.070 A 
ATOM     17  C   LIG    1        0.115 -11.582  -4.015  0.00  0.00    -0.040 A 
ATOM     18  C   LIG    1       -0.588 -11.313  -5.176  0.00  0.00    +0.060 A 
ATOM     19 CL   LIG    1        0.141 -13.195  -3.372  0.00  0.00    -0.050 Cl
ATOM     20  C   LIG    1       -0.610 -10.032  -5.690  0.00  0.00    +0.060 A 
ENDBRANCH   9  14
ENDBRANCH   3   5
BRANCH   1  25
ATOM     21  C   LIG    1       -0.018   1.503   0.010  0.00  0.00    +0.170 C 
ATOM     22  C   LIG    1        0.002  -0.004   0.002  0.00  0.00    +0.100 A 
ATOM     23  N   LIG    1        0.022  -0.774   1.060  0.00  0.00    -0.280 NA
ATOM     24  N   LIG    1        0.036  -2.109   0.635  0.00  0.00    -0.340 N 
ATOM     25  C   LIG    1        0.023  -2.112  -0.726  0.00  0.00    +0.310 A 
ATOM     26  C   LIG    1       -0.003  -0.815  -1.137  0.00  0.00    -0.080 A 
BRANCH  24  27
ATOM     27  C   LIG    1        0.058  -3.239   1.464  0.00  0.00    +0.160 A 
ATOM     28  C   LIG    1       -0.625  -4.389   1.090  0.00  0.00    -0.030 A 
ATOM     29  C   LIG    1       -0.596  -5.504   1.906  0.00  0.00    +0.050 A 
ATOM     30  C   LIG    1        0.102  -5.471   3.099  0.00  0.00    +0.010 A 
ATOM     31  C   LIG    1        0.778  -4.325   3.477  0.00  0.00    +0.050 A 
ATOM     32  C   LIG    1        0.758  -3.210   2.662  0.00  0.00    +0.030 A 
ENDBRANCH  24  27
ENDBRANCH   1  25
TORSDOF 4
