REMARK  Name = ZINCpe00000MxMcz.2
REMARK                            x       y       z     vdW  Elec       q    Type
REMARK                         _______ _______ _______ _____ _____    ______ ____
ROOT
ATOM      1  C   LIG    1       -0.826   1.636   1.279  0.00  0.00    +0.120 C 
ATOM      2  C   LIG    1       -0.189   1.055   2.559  0.00  0.00    +0.030 C 
ATOM      3  C   LIG    1       -1.365   0.853   3.537  0.00  0.00    +0.020 C 
ATOM      4  C   LIG    1       -2.615   1.329   2.764  0.00  0.00    +0.160 C 
ATOM      5  N   LIG    1       -2.244   1.196   1.330  0.00  0.00    -0.480 NA
ENDROOT
BRANCH   1  12
ATOM      6  C   LIG    1       -1.213   3.626  -2.666  0.00  0.00    +0.100 C 
ATOM      7  C   LIG    1       -0.550   3.055  -1.438  0.00  0.00    +0.520 C 
ATOM      8  N   LIG    1       -0.649   1.739  -1.169  0.00  0.00    -0.620 N 
ATOM      9  C   LIG    1       -1.289   0.731  -2.034  0.00  0.00    +0.250 C 
ATOM     10  C   LIG    1       -0.624  -0.611  -1.637  0.00  0.00    +0.020 C 
ATOM     11  C   LIG    1       -0.454  -0.434  -0.105  0.00  0.00    +0.060 C 
ATOM     12  C   LIG    1       -0.137   1.069   0.036  0.00  0.00    +0.230 C 
ATOM     13  O   LIG    1        0.072   3.782  -0.692  0.00  0.00    -0.540 OA
ENDBRANCH   1  12
BRANCH   5  14
ATOM     14  C   LIG    1       -3.091   2.047   0.484  0.00  0.00    +0.190 C 
BRANCH  14  15
ATOM     15  C   LIG    1       -4.477   1.460   0.408  0.00  0.00    +0.520 C 
ATOM     16  N   LIG    1       -5.431   2.076  -0.318  0.00  0.00    -0.610 N 
ATOM     17  C   LIG    1       -5.120   3.316  -1.034  0.00  0.00    +0.290 C 
ATOM     18  O   LIG    1       -4.734   0.434   1.001  0.00  0.00    -0.520 OA
BRANCH  16  19
ATOM     19  C   LIG    1       -6.778   1.506  -0.392  0.00  0.00    +0.380 C 
BRANCH  19  20
ATOM     20  C   LIG    1       -7.622   2.065   0.724  0.00  0.00    -0.260 A 
ATOM     21  C   LIG    1       -7.759   1.535   1.962  0.00  0.00    +0.260 A 
ATOM     22  N   LIG    1       -8.594   2.332   2.661  0.00  0.00    -0.380 N 
ATOM     23  N   LIG    1       -8.990   3.382   1.823  0.00  0.00    -0.300 NA
ATOM     24  C   LIG    1       -9.016   2.131   4.049  0.00  0.00    +0.360 C 
ATOM     25  C   LIG    1       -8.407   3.221   0.662  0.00  0.00    +0.240 A 
ENDBRANCH  19  20
ENDBRANCH  16  19
ENDBRANCH  14  15
ENDBRANCH   5  14
TORSDOF 5
