REMARK  Name = ZINCpe000000TEI2.0
REMARK                            x       y       z     vdW  Elec       q    Type
REMARK                         _______ _______ _______ _____ _____    ______ ____
ROOT
ATOM      1  C   LIG    1       -0.755   3.526   1.278  0.00  0.00    +0.120 C 
ATOM      2  N   LIG    1        0.617   4.063   1.287  0.00  0.00    -0.720 N 
ATOM      3  H   LIG    1        1.295   3.932   0.607  0.00  0.00    +0.440 HD
ATOM      4  C   LIG    1        0.745   4.770   2.424  0.00  0.00    +0.700 C 
ATOM      5  N   LIG    1       -0.373   4.763   3.160  0.00  0.00    -0.570 N 
ATOM      6  O   LIG    1        1.762   5.351   2.748  0.00  0.00    -0.520 OA
ATOM      7  C   LIG    1       -1.537   4.059   0.075  0.00  0.00    +0.090 C 
ATOM      8  C   LIG    1       -1.350   4.044   2.572  0.00  0.00    +0.530 C 
ATOM      9  O   LIG    1       -2.471   3.853   2.991  0.00  0.00    -0.460 OA
ENDROOT
BRANCH   1  10
ATOM     10  C   LIG    1       -0.735   1.996   1.269  0.00  0.00    +0.080 C 
BRANCH  10  11
ATOM     11  C   LIG    1       -0.018   1.503   0.010  0.00  0.00    +0.120 C 
BRANCH  11  12
ATOM     12  C   LIG    1        0.002  -0.004   0.002  0.00  0.00    +0.460 C 
ATOM     13  O   LIG    1       -0.504  -0.620   0.910  0.00  0.00    -0.500 OA
BRANCH  12  14
ATOM     14  O   LIG    1        0.583  -0.662  -1.014  0.00  0.00    -0.360 OA
BRANCH  14  16
ATOM     15  C   LIG    1        1.268  -2.681  -2.190  0.00  0.00    +0.070 C 
ATOM     16  C   LIG    1        0.565  -2.112  -0.956  0.00  0.00    +0.200 C 
ENDBRANCH  14  16
ENDBRANCH  12  14
ENDBRANCH  11  12
ENDBRANCH  10  11
ENDBRANCH   1  10
BRANCH   5  17
ATOM     17  C   LIG    1       -0.517   5.451   4.445  0.00  0.00    +0.460 C 
BRANCH  17  18
ATOM     18  C   LIG    1       -0.115   4.521   5.561  0.00  0.00    +0.240 A 
ATOM     19  N   LIG    1        1.089   4.391   6.057  0.00  0.00    -0.510 NA
ATOM     20  C   LIG    1        1.081   3.481   7.030  0.00  0.00    +0.250 A 
ATOM     21  N   LIG    1       -0.134   3.016   7.167  0.00  0.00    -0.300 NA
ATOM     22  N   LIG    1       -0.932   3.683   6.223  0.00  0.00    -0.370 N 
ATOM     23  C   LIG    1       -2.369   3.501   6.003  0.00  0.00    +0.370 C 
BRANCH  20  24
ATOM     24  C   LIG    1        2.277   3.056   7.842  0.00  0.00    +0.060 C 
ATOM     25  C   LIG    1        2.108   1.855   8.774  0.00  0.00    +0.040 C 
ATOM     26  C   LIG    1        2.214   3.266   9.356  0.00  0.00    +0.050 C 
ENDBRANCH  20  24
ENDBRANCH  17  18
ENDBRANCH   5  17
TORSDOF 8
