REMARK  Name = ZINCvU00000007U6.0
REMARK                            x       y       z     vdW  Elec       q    Type
REMARK                         _______ _______ _______ _____ _____    ______ ____
ROOT
ATOM      1  N   LIG    1       -0.372   0.841  -3.583  0.00  0.00    -0.480 N 
ATOM      2  C   LIG    1       -0.567  -0.319  -4.306  0.00  0.00    +0.050 A 
ATOM      3  C   LIG    1       -0.304  -0.698  -5.615  0.00  0.00    +0.010 A 
ATOM      4  C   LIG    1       -0.636  -1.968  -6.038  0.00  0.00    +0.030 A 
ATOM      5  C   LIG    1       -1.230  -2.867  -5.164  0.00  0.00    +0.000 A 
ATOM      6  C   LIG    1       -1.496  -2.511  -3.872  0.00  0.00    +0.070 A 
ATOM      7  C   LIG    1       -1.168  -1.230  -3.421  0.00  0.00    +0.050 A 
ATOM      8  N   LIG    1       -1.302  -0.594  -2.229  0.00  0.00    -0.480 NA
ATOM      9  C   LIG    1       -0.833   0.616  -2.323  0.00  0.00    +0.290 A 
ENDROOT
BRANCH   9  10
ATOM     10  C   LIG    1       -0.811   1.623  -1.203  0.00  0.00    +0.090 C 
ATOM     11  C   LIG    1       -0.013   1.086   0.008  0.00  0.00    +0.090 C 
ATOM     12  C   LIG    1       -0.771   1.598   1.213  0.00  0.00    +0.520 C 
ATOM     13  N   LIG    1       -2.003   2.000   0.844  0.00  0.00    -0.610 N 
ATOM     14  O   LIG    1       -0.333   1.640   2.343  0.00  0.00    -0.520 OA
ATOM     15  C   LIG    1       -2.219   1.807  -0.595  0.00  0.00    +0.290 C 
BRANCH  13  16
ATOM     16  C   LIG    1       -2.998   2.559   1.761  0.00  0.00    +0.170 C 
ATOM     17  C   LIG    1       -3.367   3.975   1.313  0.00  0.00    +0.030 C 
ATOM     18  C   LIG    1       -2.417   2.608   3.176  0.00  0.00    +0.060 C 
ATOM     19  C   LIG    1       -4.250   1.679   1.754  0.00  0.00    +0.030 C 
ENDBRANCH  13  16
ENDBRANCH   9  10
BRANCH   1  20
ATOM     20  C   LIG    1        0.224   2.084  -4.080  0.00  0.00    +0.310 C 
BRANCH  20  21
ATOM     21  C   LIG    1        1.738   2.048  -3.859  0.00  0.00    +0.020 C 
BRANCH  21  22
ATOM     22  C   LIG    1        2.360   3.346  -4.378  0.00  0.00    +0.190 C 
BRANCH  22  23
ATOM     23  O   LIG    1        3.773   3.312  -4.171  0.00  0.00    -0.330 OA
BRANCH  23  31
ATOM     24  C   LIG    1        4.768   3.298  -6.815  0.00  0.00    +0.100 C 
ATOM     25  C   LIG    1        4.996   4.447  -5.867  0.00  0.00    -0.100 A 
ATOM     26  C   LIG    1        5.712   5.554  -6.281  0.00  0.00    +0.010 A 
ATOM     27  C   LIG    1        5.926   6.606  -5.410  0.00  0.00    +0.020 A 
ATOM     28  C   LIG    1        5.420   6.556  -4.124  0.00  0.00    +0.010 A 
ATOM     29  C   LIG    1        4.699   5.454  -3.707  0.00  0.00    -0.100 A 
ATOM     30  C   LIG    1        4.148   5.401  -2.305  0.00  0.00    +0.100 C 
ATOM     31  C   LIG    1        4.483   4.397  -4.579  0.00  0.00    +0.090 A 
ENDBRANCH  23  31
ENDBRANCH  22  23
ENDBRANCH  21  22
ENDBRANCH  20  21
ENDBRANCH   1  20
TORSDOF 7
