REMARK  Name = ZINCrD00000fE6FQ.0
REMARK                            x       y       z     vdW  Elec       q    Type
REMARK                         _______ _______ _______ _____ _____    ______ ____
ROOT
ATOM      1  C   LIG    1       -0.878   3.105   1.196  0.00  0.00    +0.240 C 
ATOM      2  C   LIG    1       -0.736   1.583   1.264  0.00  0.00    +0.010 C 
ATOM      3  C   LIG    1       -0.013   1.086   0.008  0.00  0.00    +0.280 C 
ATOM      4  N   LIG    1       -0.729   1.575  -1.178  0.00  0.00    -0.620 N 
ATOM      5  C   LIG    1       -0.997   3.015  -1.297  0.00  0.00    +0.280 C 
ATOM      6  C   LIG    1       -1.132   0.720  -2.138  0.00  0.00    +0.520 C 
ATOM      7  O   LIG    1       -0.904  -0.466  -2.028  0.00  0.00    -0.540 OA
ATOM      8  C   LIG    1       -1.712   3.490  -0.028  0.00  0.00    +0.020 C 
ENDROOT
BRANCH   1  11
ATOM      9  O   LIG    1        0.383   3.648   3.518  0.00  0.00    -0.550 OA
ATOM     10  C   LIG    1       -0.822   3.830   3.522  0.00  0.00    +0.600 C 
ATOM     11  N   LIG    1       -1.543   3.587   2.410  0.00  0.00    -0.730 N 
ATOM     12  H   LIG    1       -2.502   3.732   2.413  0.00  0.00    +0.400 HD
BRANCH  10  13
ATOM     13  C   LIG    1       -1.485   4.311   4.733  0.00  0.00    -0.250 A 
ATOM     14  C   LIG    1       -0.876   4.608   5.965  0.00  0.00    +0.120 A 
ATOM     15  C   LIG    1        0.456   4.545   6.401  0.00  0.00    +0.070 A 
ATOM     16  C   LIG    1        0.758   4.904   7.681  0.00  0.00    +0.030 A 
ATOM     17  C   LIG    1       -0.268   5.328   8.539  0.00  0.00    +0.010 A 
ATOM     18  C   LIG    1       -1.545   5.382   8.102  0.00  0.00    +0.220 A 
ATOM     19  N   LIG    1       -1.861   5.025   6.821  0.00  0.00    -0.340 N 
ATOM     20  C   LIG    1       -3.059   4.996   6.159  0.00  0.00    +0.110 A 
ATOM     21  C   LIG    1       -2.868   4.576   4.896  0.00  0.00    +0.040 A 
ENDBRANCH  10  13
ENDBRANCH   1  11
BRANCH   6  22
ATOM     22  C   LIG    1       -1.865   1.237  -3.349  0.00  0.00    +0.070 C 
BRANCH  22  23
ATOM     23  C   LIG    1       -2.206   0.069  -4.277  0.00  0.00    +0.140 C 
BRANCH  23  24
ATOM     24  C   LIG    1       -2.939   0.587  -5.487  0.00  0.00    -0.180 A 
ATOM     25  C   LIG    1       -2.364   0.985  -6.623  0.00  0.00    +0.000 A 
ATOM     26  C   LIG    1       -3.242   1.422  -7.599  0.00  0.00    +0.010 A 
ATOM     27  C   LIG    1       -4.531   1.378  -7.257  0.00  0.00    -0.050 A 
ATOM     28  S   LIG    1       -4.685   0.751  -5.621  0.00  0.00    +0.100 S 
ENDBRANCH  23  24
ENDBRANCH  22  23
ENDBRANCH   6  22
TORSDOF 5
