REMARK  Name = ZINCrg00000BBtDY.0
REMARK                            x       y       z     vdW  Elec       q    Type
REMARK                         _______ _______ _______ _____ _____    ______ ____
ROOT
ATOM      1  C   LIG    1       -0.412  -2.208  -1.042  0.00  0.00    -0.010 C 
ATOM      2  C   LIG    1        1.070  -2.589  -0.976  0.00  0.00    +0.070 C 
ATOM      3  C   LIG    1        1.205  -4.111  -1.072  0.00  0.00    +0.220 C 
ATOM      4  N   LIG    1        0.618  -4.576  -2.336  0.00  0.00    -0.440 N 
ATOM      5  C   LIG    1       -0.815  -4.263  -2.402  0.00  0.00    +0.210 C 
ATOM      6  C   LIG    1       -1.011  -2.746  -2.345  0.00  0.00    +0.070 C 
ENDROOT
BRANCH   1  13
ATOM      7  O   LIG    1       -1.868   2.986   1.386  0.00  0.00    -0.540 OA
ATOM      8  C   LIG    1       -1.520   1.825   1.330  0.00  0.00    +0.510 C 
ATOM      9  C   LIG    1       -0.574   1.412   0.236  0.00  0.00    +0.340 C 
ATOM     10  N   LIG    1       -0.532  -0.056   0.172  0.00  0.00    -0.620 N 
ATOM     11  C   LIG    1       -0.473  -0.787   1.450  0.00  0.00    +0.290 C 
ATOM     12  CA  LIG    1       -1.738  -0.460   2.246  0.00  0.00    +0.220 C 
ATOM     13  C   LIG    1       -0.547  -0.707  -1.008  0.00  0.00    +0.530 C 
ATOM     14  O   LIG    1       -0.670  -0.086  -2.042  0.00  0.00    -0.520 OA
ATOM     15  N   LIG    1       -1.995   0.974   2.241  0.00  0.00    -0.710 N 
ATOM     16  H   LIG    1       -2.549   1.335   2.950  0.00  0.00    +0.410 HD
BRANCH  12  17
ATOM     17  C   LIG    1       -1.562  -0.935   3.689  0.00  0.00    +0.190 C 
BRANCH  17  18
ATOM     18  O   LIG    1       -2.781  -0.738   4.408  0.00  0.00    -0.570 OA
ATOM     19  H   LIG    1       -2.742  -1.017   5.333  0.00  0.00    +0.390 HD
ENDBRANCH  17  18
ENDBRANCH  12  17
ENDBRANCH   1  13
BRANCH   4  20
ATOM     20  C   LIG    1        0.839  -5.934  -2.516  0.00  0.00    +0.310 A 
ATOM     21  N   LIG    1       -0.071  -6.845  -2.721  0.00  0.00    -0.320 NA
ATOM     22  O   LIG    1        0.546  -8.110  -2.857  0.00  0.00    -0.080 OA
ATOM     23  C   LIG    1        1.882  -7.974  -2.732  0.00  0.00    +0.100 A 
ATOM     24  C   LIG    1        2.938  -8.876  -2.780  0.00  0.00    +0.040 A 
ATOM     25  C   LIG    1        4.232  -8.430  -2.614  0.00  0.00    +0.100 A 
ATOM     26  C   LIG    1        4.492  -7.083  -2.397  0.00  0.00    -0.070 A 
ATOM     27  C   LIG    1        3.457  -6.175  -2.346  0.00  0.00    +0.120 A 
ATOM     28 CL   LIG    1        6.128  -6.542  -2.191  0.00  0.00    -0.050 Cl
ATOM     29  C   LIG    1        2.144  -6.612  -2.519  0.00  0.00    -0.180 A 
ENDBRANCH   4  20
TORSDOF 4
