REMARK  Name = ZINCrD000003EB8s.0
REMARK                            x       y       z     vdW  Elec       q    Type
REMARK                         _______ _______ _______ _____ _____    ______ ____
ROOT
ATOM      1  C   LIG    1        3.643  -2.834   8.830  0.00  0.00    +0.060 C 
ATOM      2  C   LIG    1        2.966  -2.410   7.525  0.00  0.00    +0.210 C 
ATOM      3  C   LIG    1        2.887  -0.879   7.461  0.00  0.00    +0.290 C 
ATOM      4  N   LIG    1        2.478  -0.487   6.105  0.00  0.00    -0.610 N 
ATOM      5  C   LIG    1        3.264  -0.970   4.960  0.00  0.00    +0.270 C 
ATOM      6  C   LIG    1        3.346  -2.495   5.025  0.00  0.00    +0.270 C 
ATOM      7  C   LIG    1        1.399   0.297   5.914  0.00  0.00    +0.570 C 
ATOM      8  O   LIG    1        0.761   0.697   6.869  0.00  0.00    -0.530 OA
ATOM      9  N   LIG    1        3.755  -2.888   6.381  0.00  0.00    -0.610 N 
ATOM     10  C   LIG    1        4.834  -3.672   6.572  0.00  0.00    +0.520 C 
ATOM     11  O   LIG    1        5.212  -3.920   7.698  0.00  0.00    -0.520 OA
ENDROOT
BRANCH   7  12
ATOM     12  C   LIG    1        0.991   0.670   4.545  0.00  0.00    -0.160 A 
ATOM     13  C   LIG    1       -0.360   0.864   4.245  0.00  0.00    +0.120 A 
ATOM     14  C   LIG    1       -0.737   1.211   2.967  0.00  0.00    +0.010 A 
ATOM     15  C   LIG    1        0.224   1.371   1.976  0.00  0.00    +0.130 A 
ATOM     16  C   LIG    1        1.569   1.174   2.269  0.00  0.00    -0.060 A 
ATOM     17  C   LIG    1        1.954   0.831   3.546  0.00  0.00    +0.080 A 
BRANCH  15  18
ATOM     18  O   LIG    1       -0.151   1.714   0.718  0.00  0.00    -0.320 OA
BRANCH  18  19
ATOM     19  C   LIG    1        0.888   1.862  -0.251  0.00  0.00    +0.600 C 
ATOM     20  F   LIG    1        1.774   2.862   0.163  0.00  0.00    -0.200 F 
ATOM     21  F   LIG    1        1.579   0.652  -0.382  0.00  0.00    -0.200 F 
ENDBRANCH  18  19
ENDBRANCH  15  18
ENDBRANCH   7  12
BRANCH  10  22
ATOM     22  C   LIG    1        5.572  -4.240   5.387  0.00  0.00    +0.080 C 
BRANCH  22  23
ATOM     23  C   LIG    1        6.748  -5.088   5.877  0.00  0.00    -0.010 C 
ATOM     24  C   LIG    1        8.158  -4.619   5.511  0.00  0.00    +0.010 C 
ATOM     25  C   LIG    1        7.557  -5.849   4.825  0.00  0.00    -0.130 C 
ATOM     26  C   LIG    1        7.128  -5.705   3.364  0.00  0.00    +0.060 C 
ATOM     27  C   LIG    1        8.114  -7.218   5.217  0.00  0.00    +0.060 C 
ENDBRANCH  22  23
ENDBRANCH  10  22
TORSDOF 5
