REMARK  Name = ZINCrD000000C5HF.0
REMARK                            x       y       z     vdW  Elec       q    Type
REMARK                         _______ _______ _______ _____ _____    ______ ____
ROOT
ATOM      1  O   LIG    1       -3.808  -0.383   1.587  0.00  0.00    -0.500 OA
ATOM      2  C   LIG    1       -4.760   0.110   1.013  0.00  0.00    +0.610 C 
ATOM      3  N   LIG    1       -4.592   1.202   0.243  0.00  0.00    -0.660 N 
ATOM      4  H   LIG    1       -5.337   1.556  -0.267  0.00  0.00    +0.420 HD
ENDROOT
BRANCH   3   5
ATOM      5  C   LIG    1       -3.341   1.827   0.179  0.00  0.00    +0.140 A 
ATOM      6  C   LIG    1       -3.260   3.209   0.061  0.00  0.00    +0.010 A 
ATOM      7  C   LIG    1       -2.027   3.831  -0.002  0.00  0.00    +0.040 A 
ATOM      8  C   LIG    1       -0.869   3.084   0.057  0.00  0.00    +0.020 A 
ATOM      9  C   LIG    1       -0.939   1.694   0.170  0.00  0.00    -0.110 A 
ATOM     10  C   LIG    1       -2.183   1.067   0.234  0.00  0.00    +0.080 A 
BRANCH   9  11
ATOM     11  C   LIG    1        0.300   0.890   0.229  0.00  0.00    +0.580 C 
ATOM     12  N   LIG    1        1.348   1.209  -0.557  0.00  0.00    -0.620 N 
ATOM     13  C   LIG    1        1.355   2.252  -1.594  0.00  0.00    +0.240 C 
ATOM     14  C   LIG    1        2.754   2.240  -2.246  0.00  0.00    +0.030 C 
ATOM     15  C   LIG    1        3.268   0.809  -1.934  0.00  0.00    +0.040 C 
ATOM     16  C   LIG    1        2.674   0.566  -0.524  0.00  0.00    +0.250 C 
ATOM     17  O   LIG    1        0.373  -0.061   0.982  0.00  0.00    -0.520 OA
ENDBRANCH   9  11
ENDBRANCH   3   5
BRANCH   2  18
ATOM     18  C   LIG    1       -6.101  -0.490   1.161  0.00  0.00    -0.010 A 
ATOM     19  N   LIG    1       -7.216  -0.064   0.599  0.00  0.00    -0.260 NA
ATOM     20  N   LIG    1       -8.199  -0.818   0.939  0.00  0.00    -0.230 N 
ATOM     21  C   LIG    1       -7.765  -1.806   1.765  0.00  0.00    +0.180 A 
ATOM     22  C   LIG    1       -6.432  -1.634   1.926  0.00  0.00    +0.010 A 
BRANCH  20  23
ATOM     23  C   LIG    1       -9.524  -0.648   0.519  0.00  0.00    +0.130 A 
ATOM     24  C   LIG    1      -10.508  -1.530   0.945  0.00  0.00    +0.020 A 
ATOM     25  C   LIG    1      -11.815  -1.356   0.534  0.00  0.00    +0.040 A 
ATOM     26  C   LIG    1      -12.142  -0.311  -0.311  0.00  0.00    +0.010 A 
ATOM     27  C   LIG    1      -11.164   0.566  -0.742  0.00  0.00    +0.040 A 
ATOM     28  C   LIG    1       -9.856   0.401  -0.329  0.00  0.00    +0.030 A 
ENDBRANCH  20  23
ENDBRANCH   2  18
TORSDOF 4
