REMARK  Name = ZINCnE000001Pt95.0
REMARK                            x       y       z     vdW  Elec       q    Type
REMARK                         _______ _______ _______ _____ _____    ______ ____
ROOT
ATOM      1  S   LIG    1       -2.658   3.935   0.023  0.00  0.00    +2.690 S 
ATOM      2  O   LIG    1       -2.109   5.108   0.607  0.00  0.00    -0.950 OA
ATOM      3  O   LIG    1       -3.736   3.211   0.600  0.00  0.00    -0.950 OA
ENDROOT
BRANCH   1   4
ATOM      4  C   LIG    1       -1.327   2.793  -0.148  0.00  0.00    -0.680 A 
ATOM      5  C   LIG    1       -1.586   1.434  -0.191  0.00  0.00    +0.100 A 
ATOM      6  C   LIG    1       -0.550   0.534  -0.319  0.00  0.00    +0.050 A 
ATOM      7  C   LIG    1        0.765   0.997  -0.416  0.00  0.00    -0.070 A 
ATOM      8  C   LIG    1        1.020   2.371  -0.378  0.00  0.00    -0.030 A 
ATOM      9 CL   LIG    1        2.649   2.959  -0.498  0.00  0.00    -0.030 Cl
ATOM     10  C   LIG    1       -0.028   3.260  -0.243  0.00  0.00    +0.110 A 
BRANCH   7  11
ATOM     11  C   LIG    1        1.878   0.040  -0.559  0.00  0.00    +0.510 C 
ATOM     12  O   LIG    1        3.028   0.449  -0.644  0.00  0.00    -0.650 OA
ATOM     13  O   LIG    1        1.652  -1.161  -0.592  0.00  0.00    -0.680 OA
ENDBRANCH   7  11
ENDBRANCH   1   4
BRANCH   1  14
ATOM     14  N   LIG    1       -3.142   4.355  -1.504  0.00  0.00    -0.950 N 
ATOM     15  C   LIG    1       -4.100   3.514  -2.227  0.00  0.00    +0.310 C 
BRANCH  14  21
ATOM     16  C   LIG    1        0.159   6.500  -4.445  0.00  0.00    +0.090 C 
ATOM     17  C   LIG    1       -1.038   6.582  -3.534  0.00  0.00    -0.080 A 
ATOM     18  C   LIG    1       -1.638   7.803  -3.289  0.00  0.00    +0.010 A 
ATOM     19  C   LIG    1       -2.737   7.882  -2.453  0.00  0.00    +0.020 A 
ATOM     20  C   LIG    1       -3.241   6.740  -1.864  0.00  0.00    -0.070 A 
ATOM     21  C   LIG    1       -2.637   5.512  -2.103  0.00  0.00    +0.140 A 
ATOM     22  C   LIG    1       -4.443   6.826  -0.958  0.00  0.00    +0.090 C 
ATOM     23  C   LIG    1       -1.534   5.436  -2.943  0.00  0.00    +0.020 A 
ENDBRANCH  14  21
ENDBRANCH   1  14
TORSDOF 4
