REMARK  Name = ZINCrD000006fiQR.0
REMARK                            x       y       z     vdW  Elec       q    Type
REMARK                         _______ _______ _______ _____ _____    ______ ____
ROOT
ATOM      1  C   LIG    1       -3.241   0.607   3.329  0.00  0.00    +0.510 C 
ATOM      2  O   LIG    1       -2.834  -0.529   3.194  0.00  0.00    -0.500 OA
ENDROOT
BRANCH   1   7
ATOM      3  C   LIG    1       -4.236   0.613   6.955  0.00  0.00    +0.140 A 
ATOM      4  C   LIG    1       -4.700   1.915   7.102  0.00  0.00    +0.020 A 
ATOM      5  C   LIG    1       -4.688   2.784   6.027  0.00  0.00    +0.030 A 
ATOM      6  C   LIG    1       -4.210   2.367   4.801  0.00  0.00    +0.060 A 
ATOM      7  C   LIG    1       -3.747   1.059   4.641  0.00  0.00    -0.110 A 
ATOM      8  C   LIG    1       -3.760   0.182   5.726  0.00  0.00    +0.090 A 
BRANCH   3  10
ATOM      9  C   LIG    1       -3.285  -1.193   8.175  0.00  0.00    +0.540 C 
ATOM     10  N   LIG    1       -4.251  -0.262   8.046  0.00  0.00    -0.670 N 
ATOM     11  H   LIG    1       -4.955  -0.198   8.710  0.00  0.00    +0.420 HD
ATOM     12  O   LIG    1       -2.350  -1.212   7.398  0.00  0.00    -0.520 OA
BRANCH   9  14
ATOM     13  C   LIG    1       -2.411  -3.107   9.384  0.00  0.00    +0.160 C 
ATOM     14  C   LIG    1       -3.363  -2.187   9.256  0.00  0.00    -0.090 C 
ENDBRANCH   9  14
ENDBRANCH   3  10
ENDBRANCH   1   7
BRANCH   1  15
ATOM     15  O   LIG    1       -3.230   1.456   2.283  0.00  0.00    -0.350 OA
BRANCH  15  16
ATOM     16  C   LIG    1       -2.718   0.944   1.024  0.00  0.00    +0.180 C 
ATOM     17  C   LIG    1       -1.207   1.194   0.949  0.00  0.00    +0.020 C 
ATOM     18  C   LIG    1       -0.668   0.623  -0.366  0.00  0.00    +0.320 C 
ATOM     19  N   LIG    1       -1.433   1.195  -1.483  0.00  0.00    -0.600 N 
ATOM     20  C   LIG    1       -2.898   1.089  -1.463  0.00  0.00    +0.300 C 
ATOM     21  C   LIG    1       -0.803   1.806  -2.506  0.00  0.00    +0.660 C 
ATOM     22  O   LIG    1        0.410   1.887  -2.510  0.00  0.00    -0.560 OA
ATOM     23  C   LIG    1       -3.416   1.656  -0.137  0.00  0.00    +0.040 C 
BRANCH  21  24
ATOM     24  O   LIG    1       -1.516   2.326  -3.522  0.00  0.00    -0.360 OA
BRANCH  24  25
ATOM     25  C   LIG    1       -0.771   2.969  -4.589  0.00  0.00    +0.140 C 
ATOM     26  C   LIG    1        0.038   4.135  -4.016  0.00  0.00    +0.040 C 
ATOM     27  C   LIG    1       -1.744   3.495  -5.646  0.00  0.00    +0.080 C 
ATOM     28  C   LIG    1        0.180   1.956  -5.230  0.00  0.00    +0.040 C 
ENDBRANCH  24  25
ENDBRANCH  21  24
ENDBRANCH  15  16
ENDBRANCH   1  15
TORSDOF 7
