REMARK  Name = ZINCkj00000dEbdb.0
REMARK                            x       y       z     vdW  Elec       q    Type
REMARK                         _______ _______ _______ _____ _____    ______ ____
ROOT
ATOM      1  N   LIG    1        1.706   3.089   0.002  0.00  0.00    -0.660 NA
ATOM      2  C   LIG    1        1.288   1.823  -0.000  0.00  0.00    +0.490 A 
ATOM      3  C   LIG    1        2.104   0.674  -0.014  0.00  0.00    -0.070 A 
ATOM      4  C   LIG    1        1.302  -0.414  -0.013  0.00  0.00    +0.340 A 
ATOM      5  N   LIG    1        0.002  -0.004   0.002  0.00  0.00    -0.410 N 
ATOM      6  N   LIG    1       -0.017   1.397   0.010  0.00  0.00    -0.500 N 
ATOM      7  H   LIG    1       -0.806   1.962   0.017  0.00  0.00    +0.440 HD
ENDROOT
BRANCH   5   8
ATOM      8  C   LIG    1       -1.173  -0.878   0.008  0.00  0.00    +0.320 C 
ATOM      9  C   LIG    1       -2.061  -0.575   1.237  0.00  0.00    +0.090 C 
ATOM     10  C   LIG    1       -3.138   0.379   0.656  0.00  0.00    +0.270 C 
ATOM     11  N   LIG    1       -3.386  -0.173  -0.701  0.00  0.00    -0.520 N 
ATOM     12  H   LIG    1       -4.003  -0.969  -0.646  0.00  0.00    +0.440 HD
ATOM     13  H   LIG    1       -3.784   0.537  -1.298  0.00  0.00    +0.440 HD
ATOM     14  C   LIG    1       -2.062  -0.587  -1.215  0.00  0.00    +0.270 C 
ENDBRANCH   5   8
BRANCH   1  16
ATOM     15  O   LIG    1        3.817   2.452  -0.021  0.00  0.00    -0.540 OA
ATOM     16  C   LIG    1        3.007   3.359  -0.009  0.00  0.00    +0.500 C 
BRANCH  16  17
ATOM     17  C   LIG    1        3.480   4.790  -0.005  0.00  0.00    +0.100 C 
BRANCH  17  18
ATOM     18  C   LIG    1        5.010   4.822  -0.020  0.00  0.00    +0.160 C 
ATOM     19  C   LIG    1        5.489   6.271  -0.142  0.00  0.00    -0.010 C 
ATOM     20  C   LIG    1        7.020   6.300  -0.096  0.00  0.00    +0.010 C 
ATOM     21  C   LIG    1        7.492   5.639   1.203  0.00  0.00    -0.020 C 
ATOM     22  C   LIG    1        6.936   4.215   1.274  0.00  0.00    +0.200 C 
ATOM     23  O   LIG    1        5.510   4.258   1.194  0.00  0.00    -0.370 OA
ENDBRANCH  17  18
ENDBRANCH  16  17
ENDBRANCH   1  16
TORSDOF 4
