REMARK  Name = ZINCvU0000000FKU.0
REMARK                            x       y       z     vdW  Elec       q    Type
REMARK                         _______ _______ _______ _____ _____    ______ ____
ROOT
ATOM      1  C   LIG    1        1.778   3.120   0.002  0.00  0.00    +0.340 C 
ENDROOT
BRANCH   1   6
ATOM      2  C   LIG    1        2.765   4.806   1.440  0.00  0.00    +0.240 C 
ATOM      3  C   LIG    1        1.926   5.880   2.163  0.00  0.00    +0.010 C 
ATOM      4  C   LIG    1        0.910   5.038   2.981  0.00  0.00    +0.030 C 
ATOM      5  C   LIG    1        0.644   3.852   2.021  0.00  0.00    +0.180 C 
ATOM      6  N   LIG    1        1.951   3.578   1.387  0.00  0.00    -0.510 NA
BRANCH   2  10
ATOM      7  C   LIG    1        3.690   6.111  -2.527  0.00  0.00    +0.170 A 
ATOM      8  C   LIG    1        2.377   6.117  -2.079  0.00  0.00    -0.110 A 
ATOM      9  C   LIG    1        2.081   5.695  -0.796  0.00  0.00    +0.090 A 
ATOM     10  C   LIG    1        3.091   5.265   0.042  0.00  0.00    -0.180 A 
ATOM     11  C   LIG    1        4.407   5.262  -0.399  0.00  0.00    +0.180 A 
ATOM     12  C   LIG    1        4.705   5.680  -1.687  0.00  0.00    -0.100 A 
BRANCH   7  14
ATOM     13  C   LIG    1        2.884   6.957  -4.597  0.00  0.00    +0.250 C 
ATOM     14  O   LIG    1        3.980   6.527  -3.787  0.00  0.00    -0.310 OA
ENDBRANCH   7  14
BRANCH  11  15
ATOM     15  O   LIG    1        5.401   4.845   0.428  0.00  0.00    -0.300 OA
ATOM     16  C   LIG    1        6.731   4.868  -0.093  0.00  0.00    +0.240 C 
ENDBRANCH  11  15
ENDBRANCH   2  10
ENDBRANCH   1   6
BRANCH   1  17
ATOM     17  C   LIG    1        1.290   1.694   0.001  0.00  0.00    +0.200 A 
ATOM     18  N   LIG    1        0.041   1.300   0.012  0.00  0.00    -0.470 NA
ATOM     19  C   LIG    1        0.087  -0.052   0.006  0.00  0.00    +0.210 A 
ATOM     20  N   LIG    1        1.349  -0.395  -0.008  0.00  0.00    -0.370 NA
ATOM     21  O   LIG    1        2.050   0.594  -0.011  0.00  0.00    +0.100 OA
BRANCH  19  22
ATOM     22  C   LIG    1       -1.077  -0.973   0.014  0.00  0.00    -0.020 A 
ATOM     23  C   LIG    1       -2.373  -0.462   0.035  0.00  0.00    +0.110 A 
ATOM     24  C   LIG    1       -3.451  -1.323   0.038  0.00  0.00    +0.030 A 
ATOM     25  C   LIG    1       -3.247  -2.691   0.030  0.00  0.00    +0.090 A 
ATOM     26  C   LIG    1       -1.963  -3.204   0.014  0.00  0.00    -0.180 A 
ATOM     27  C   LIG    1       -0.877  -2.352   0.006  0.00  0.00    +0.100 A 
BRANCH  26  28
ATOM     28  C   LIG    1       -1.748  -4.696   0.005  0.00  0.00    +0.510 C 
ATOM     29  F   LIG    1       -0.558  -4.992  -0.668  0.00  0.00    -0.170 F 
ATOM     30  F   LIG    1       -2.819  -5.317  -0.646  0.00  0.00    -0.170 F 
ATOM     31  F   LIG    1       -1.668  -5.163   1.321  0.00  0.00    -0.170 F 
ENDBRANCH  26  28
ENDBRANCH  19  22
ENDBRANCH   1  17
TORSDOF 7
