REMARK  Name = ZINCpk0000053tcy.1
REMARK                            x       y       z     vdW  Elec       q    Type
REMARK                         _______ _______ _______ _____ _____    ______ ____
ROOT
ATOM      1  C   LIG    1        2.018   1.759  -0.752  0.00  0.00    +0.540 C 
ATOM      2  N   LIG    1        2.878   1.167   0.101  0.00  0.00    -0.600 N 
ATOM      3  C   LIG    1        2.362   0.134   1.041  0.00  0.00    +0.270 C 
ATOM      4  C   LIG    1        3.394  -1.015   1.159  0.00  0.00    +0.230 C 
ATOM      5  N   LIG    1        4.007  -1.335  -0.100  0.00  0.00    -0.600 N 
ATOM      6  C   LIG    1        5.258  -0.655  -0.510  0.00  0.00    +0.280 C 
ATOM      7  C   LIG    1        4.968   0.703  -0.996  0.00  0.00    -0.050 C 
ATOM      8  C   LIG    1        6.281   1.385  -1.384  0.00  0.00    +0.040 C 
ATOM      9  C   LIG    1        3.443  -2.255  -0.909  0.00  0.00    +0.520 C 
ATOM     10  O   LIG    1        2.420  -2.811  -0.573  0.00  0.00    -0.540 OA
ATOM     11  C   LIG    1        4.484  -0.601   2.149  0.00  0.00    +0.040 C 
ATOM     12  C   LIG    1        4.260   1.548   0.069  0.00  0.00    +0.290 C 
ATOM     13  O   LIG    1        2.417   2.603  -1.527  0.00  0.00    -0.530 OA
ENDROOT
BRANCH   1  16
ATOM     14  C   LIG    1       -0.363   2.082  -1.735  0.00  0.00    +0.000 C 
ATOM     15  C   LIG    1       -0.442   2.412  -0.242  0.00  0.00    +0.050 C 
ATOM     16  C   LIG    1        0.562   1.373  -0.744  0.00  0.00    -0.080 C 
BRANCH  14  18
ATOM     17  C   LIG    1       -0.792   3.630  -3.649  0.00  0.00    +0.000 C 
ATOM     18  C   LIG    1        0.261   3.131  -2.658  0.00  0.00    +0.070 C 
ENDBRANCH  14  18
ENDBRANCH   1  16
BRANCH   9  19
ATOM     19  C   LIG    1        4.086  -2.591  -2.229  0.00  0.00    +0.060 C 
BRANCH  19  20
ATOM     20  C   LIG    1        3.252  -3.655  -2.946  0.00  0.00    +0.160 C 
BRANCH  20  21
ATOM     21  C   LIG    1        3.895  -3.992  -4.267  0.00  0.00    -0.020 A 
ATOM     22  C   LIG    1        4.268  -5.220  -4.696  0.00  0.00    +0.160 A 
ATOM     23  N   LIG    1        4.793  -5.044  -5.931  0.00  0.00    -0.390 N 
ATOM     24  H   LIG    1        5.148  -5.743  -6.503  0.00  0.00    +0.450 HD
ATOM     25  N   LIG    1        4.744  -3.789  -6.215  0.00  0.00    -0.080 NA
ATOM     26  N   LIG    1        4.214  -3.135  -5.243  0.00  0.00    -0.260 NA
ENDBRANCH  20  21
ENDBRANCH  19  20
ENDBRANCH   9  19
TORSDOF 5
