REMARK  Name = ZINCvU00000006IS.0
REMARK                            x       y       z     vdW  Elec       q    Type
REMARK                         _______ _______ _______ _____ _____    ______ ____
ROOT
ATOM      1  N   LIG    1        0.776  -3.695  -0.433  0.00  0.00    -0.650 N 
ATOM      2  H   LIG    1        1.696  -3.472  -0.219  0.00  0.00    +0.410 HD
ATOM      3  C   LIG    1       -0.166  -2.731  -0.445  0.00  0.00    +0.560 C 
ATOM      4  O   LIG    1       -1.330  -3.021  -0.644  0.00  0.00    -0.510 OA
ENDROOT
BRANCH   3   5
ATOM      5  C   LIG    1        0.216  -1.322  -0.217  0.00  0.00    -0.150 A 
ATOM      6  C   LIG    1        1.552  -0.987   0.012  0.00  0.00    +0.130 A 
ATOM      7  C   LIG    1        1.903   0.330   0.225  0.00  0.00    +0.020 A 
ATOM      8  C   LIG    1        0.933   1.319   0.212  0.00  0.00    +0.080 A 
ATOM      9  C   LIG    1       -0.394   0.992  -0.015  0.00  0.00    -0.680 A 
ATOM     10 CL   LIG    1        1.382   2.974   0.480  0.00  0.00    -0.020 Cl
ATOM     11  C   LIG    1       -0.757  -0.321  -0.229  0.00  0.00    +0.220 A 
BRANCH   9  12
ATOM     12  S   LIG    1       -1.620   2.257  -0.037  0.00  0.00    +2.690 S 
ATOM     13  O   LIG    1       -2.853   1.617  -0.338  0.00  0.00    -0.940 OA
ATOM     14  O   LIG    1       -1.086   3.320  -0.816  0.00  0.00    -0.930 OA
BRANCH  12  15
ATOM     15  N   LIG    1       -1.757   2.834   1.509  0.00  0.00    -0.990 NA
ATOM     16  C   LIG    1       -2.581   2.130   2.500  0.00  0.00    +0.290 C 
ATOM     17  C   LIG    1       -1.721   1.853   3.742  0.00  0.00    +0.010 C 
ATOM     18  C   LIG    1       -1.122   3.168   4.245  0.00  0.00    +0.020 C 
ATOM     19  C   LIG    1       -0.223   3.768   3.161  0.00  0.00    +0.010 C 
ATOM     20  C   LIG    1       -1.062   4.064   1.913  0.00  0.00    +0.290 C 
ENDBRANCH  12  15
ENDBRANCH   9  12
ENDBRANCH   3   5
BRANCH   1  26
ATOM     21  C   LIG    1        1.376  -5.889  -1.262  0.00  0.00    +0.100 A 
ATOM     22  C   LIG    1        1.025  -7.197  -1.553  0.00  0.00    -0.060 A 
ATOM     23  C   LIG    1       -0.264  -7.636  -1.315  0.00  0.00    +0.040 A 
ATOM     24  C   LIG    1       -1.206  -6.774  -0.786  0.00  0.00    -0.080 A 
ATOM     25  C   LIG    1       -0.863  -5.468  -0.487  0.00  0.00    +0.070 A 
ATOM     26  C   LIG    1        0.427  -5.019  -0.729  0.00  0.00    +0.120 A 
BRANCH  24  27
ATOM     27  C   LIG    1       -2.609  -7.259  -0.528  0.00  0.00    -0.020 C 
ATOM     28  C   LIG    1       -3.596  -6.425  -1.347  0.00  0.00    +0.040 C 
ATOM     29  C   LIG    1       -2.933  -7.116   0.961  0.00  0.00    +0.040 C 
ATOM     30  C   LIG    1       -2.723  -8.730  -0.936  0.00  0.00    +0.040 C 
ENDBRANCH  24  27
BRANCH  21  32
ATOM     31  C   LIG    1        3.563  -6.403  -2.043  0.00  0.00    +0.250 C 
ATOM     32  O   LIG    1        2.643  -5.455  -1.495  0.00  0.00    -0.320 OA
ENDBRANCH  21  32
ENDBRANCH   1  26
TORSDOF 6
