REMARK  Name = ZINCrD00000732Y2.0
REMARK                            x       y       z     vdW  Elec       q    Type
REMARK                         _______ _______ _______ _____ _____    ______ ____
ROOT
ATOM      1  C   LIG    1       -0.870   1.601  -1.128  0.00  0.00    -0.290 C 
ATOM      2  C   LIG    1       -0.232   2.220  -2.144  0.00  0.00    +0.260 C 
ATOM      3  N   LIG    1        1.089   2.554  -2.049  0.00  0.00    -0.640 N 
ATOM      4  H   LIG    1        1.505   2.997  -2.804  0.00  0.00    +0.430 HD
ATOM      5  C   LIG    1        1.842   2.304  -0.970  0.00  0.00    +0.710 C 
ATOM      6  N   LIG    1        1.346   1.693   0.124  0.00  0.00    -0.710 N 
ATOM      7  H   LIG    1        1.909   1.522   0.896  0.00  0.00    +0.430 HD
ATOM      8  O   LIG    1        3.010   2.639  -0.977  0.00  0.00    -0.560 OA
ATOM      9  C   LIG    1       -0.989   2.549  -3.405  0.00  0.00    +0.170 C 
ATOM     10  C   LIG    1       -0.071   1.291   0.122  0.00  0.00    +0.340 C 
ENDROOT
BRANCH  10  11
ATOM     11  C   LIG    1       -0.748   1.969   1.285  0.00  0.00    -0.130 A 
ATOM     12  C   LIG    1       -1.541   3.081   1.068  0.00  0.00    +0.070 A 
ATOM     13  C   LIG    1       -2.164   3.707   2.128  0.00  0.00    +0.010 A 
ATOM     14  C   LIG    1       -1.994   3.215   3.423  0.00  0.00    +0.030 A 
ATOM     15  C   LIG    1       -1.194   2.091   3.638  0.00  0.00    +0.000 A 
ATOM     16  C   LIG    1       -0.579   1.471   2.567  0.00  0.00    +0.120 A 
ATOM     17  F   LIG    1        0.192   0.381   2.772  0.00  0.00    -0.130 F 
BRANCH  14  18
ATOM     18  C   LIG    1       -2.659   3.881   4.563  0.00  0.00    -0.150 A 
ATOM     19  C   LIG    1       -2.567   3.495   5.852  0.00  0.00    +0.020 A 
ATOM     20  C   LIG    1       -3.278   4.276   6.739  0.00  0.00    +0.010 A 
ATOM     21  C   LIG    1       -3.947   5.293   6.189  0.00  0.00    -0.040 A 
ATOM     22  S   LIG    1       -3.686   5.304   4.450  0.00  0.00    +0.130 S 
ENDBRANCH  14  18
ENDBRANCH  10  11
BRANCH   1  23
ATOM     23  C   LIG    1       -2.238   1.254  -1.227  0.00  0.00    +0.540 C 
ATOM     24  O   LIG    1       -2.886   1.604  -2.195  0.00  0.00    -0.520 OA
BRANCH  23  25
ATOM     25  O   LIG    1       -2.824   0.536  -0.246  0.00  0.00    -0.340 OA
BRANCH  25  26
ATOM     26  C   LIG    1       -4.208   0.221  -0.411  0.00  0.00    +0.230 C 
BRANCH  26  27
ATOM     27  C   LIG    1       -4.693  -0.592   0.790  0.00  0.00    +0.190 C 
BRANCH  27  29
ATOM     28  C   LIG    1       -5.060  -0.454   3.155  0.00  0.00    +0.200 C 
ATOM     29  O   LIG    1       -4.627   0.214   1.969  0.00  0.00    -0.380 OA
ENDBRANCH  27  29
ENDBRANCH  26  27
ENDBRANCH  25  26
ENDBRANCH  23  25
ENDBRANCH   1  23
TORSDOF 7
