REMARK  Name = ZINCpk00000KfKyZ.0
REMARK                            x       y       z     vdW  Elec       q    Type
REMARK                         _______ _______ _______ _____ _____    ______ ____
ROOT
ATOM      1  N   LIG    1        4.899   3.075   5.204  0.00  0.00    -0.510 N 
ATOM      2  C   LIG    1        4.470   4.424   4.839  0.00  0.00    +0.210 C 
ATOM      3  C   LIG    1        5.034   4.772   3.479  0.00  0.00    +0.040 C 
ATOM      4  C   LIG    1        4.018   4.397   2.381  0.00  0.00    +0.270 C 
ATOM      5  N   LIG    1        3.355   3.114   2.688  0.00  0.00    -0.610 N 
ATOM      6  C   LIG    1        4.076   1.969   3.206  0.00  0.00    +0.290 C 
ATOM      7  C   LIG    1        2.029   3.001   2.471  0.00  0.00    +0.510 C 
ATOM      8  O   LIG    1        1.403   3.945   2.037  0.00  0.00    -0.520 OA
ATOM      9  C   LIG    1        4.080   2.013   4.753  0.00  0.00    +0.190 C 
ENDROOT
BRANCH   1  14
ATOM     10  C   LIG    1        6.037   2.692  10.660  0.00  0.00    +0.150 C 
ATOM     11  C   LIG    1        5.677   2.795   9.200  0.00  0.00    +0.060 A 
ATOM     12  C   LIG    1        4.344   2.829   8.815  0.00  0.00    +0.040 A 
ATOM     13  C   LIG    1        4.059   2.924   7.462  0.00  0.00    +0.010 A 
ATOM     14  C   LIG    1        5.131   2.979   6.572  0.00  0.00    +0.250 A 
ATOM     15  N   LIG    1        6.372   2.935   7.035  0.00  0.00    -0.220 NA
ATOM     16  N   LIG    1        6.628   2.852   8.290  0.00  0.00    -0.230 NA
ENDBRANCH   1  14
BRANCH   7  17
ATOM     17  C   LIG    1        1.325   1.702   2.768  0.00  0.00    +0.140 C 
BRANCH  17  18
ATOM     18  C   LIG    1       -0.140   1.839   2.442  0.00  0.00    -0.230 A 
ATOM     19  C   LIG    1       -0.718   1.572   1.248  0.00  0.00    +0.100 A 
ATOM     20  N   LIG    1       -2.039   1.824   1.365  0.00  0.00    -0.370 N 
ATOM     21  N   LIG    1       -2.281   2.253   2.676  0.00  0.00    -0.300 NA
ATOM     22  C   LIG    1       -3.042   1.673   0.308  0.00  0.00    +0.360 C 
ATOM     23  C   LIG    1       -0.013   1.086   0.008  0.00  0.00    +0.140 C 
ATOM     24  C   LIG    1       -1.142   2.264   3.320  0.00  0.00    +0.090 A 
ATOM     25  C   LIG    1       -0.944   2.666   4.759  0.00  0.00    +0.150 C 
ENDBRANCH  17  18
ENDBRANCH   7  17
TORSDOF 3
