REMARK  Name = ZINCkj000005lWpb.0
REMARK                            x       y       z     vdW  Elec       q    Type
REMARK                         _______ _______ _______ _____ _____    ______ ____
ROOT
ATOM      1  O   LIG    1       -2.544   5.078   0.053  0.00  0.00    -0.510 OA
ATOM      2  C   LIG    1       -2.527   3.862   0.046  0.00  0.00    +0.580 C 
ATOM      3  N   LIG    1       -3.684   3.172   0.052  0.00  0.00    -0.730 N 
ATOM      4  H   LIG    1       -3.671   2.202   0.047  0.00  0.00    +0.410 HD
ENDROOT
BRANCH   2   5
ATOM      5  C   LIG    1       -1.238   3.143   0.030  0.00  0.00    -0.140 A 
ATOM      6  C   LIG    1       -1.216   1.746   0.017  0.00  0.00    +0.070 A 
ATOM      7  C   LIG    1       -0.013   1.076   0.008  0.00  0.00    +0.040 A 
ATOM      8  C   LIG    1        1.181   1.784   0.000  0.00  0.00    +0.070 A 
ATOM      9  O   LIG    1        2.478   1.363  -0.014  0.00  0.00    -0.300 OA
ATOM     10  C   LIG    1        3.250   2.506  -0.428  0.00  0.00    +0.440 C 
ATOM     11  O   LIG    1        2.456   3.629  -0.002  0.00  0.00    -0.300 OA
ATOM     12  C   LIG    1        1.167   3.180   0.008  0.00  0.00    +0.030 A 
ATOM     13  C   LIG    1       -0.037   3.857   0.022  0.00  0.00    +0.110 A 
ENDBRANCH   2   5
BRANCH   3  14
ATOM     14  C   LIG    1       -4.963   3.887   0.068  0.00  0.00    +0.260 C 
ATOM     15  C   LIG    1       -5.401   4.234  -1.369  0.00  0.00    +0.070 C 
ATOM     16  C   LIG    1       -6.745   3.502  -1.567  0.00  0.00    +0.270 C 
ATOM     17  N   LIG    1       -7.277   3.317  -0.193  0.00  0.00    -0.370 N 
ATOM     18  H   LIG    1       -7.698   4.171   0.141  0.00  0.00    +0.430 HD
ATOM     19  C   LIG    1       -6.080   2.974   0.618  0.00  0.00    +0.270 C 
BRANCH  17  20
ATOM     20  C   LIG    1       -8.251   2.218  -0.162  0.00  0.00    +0.100 C 
ATOM     21  C   LIG    1       -9.712   2.576   0.118  0.00  0.00    +0.100 C 
ATOM     22  C   LIG    1       -8.879   1.867   1.188  0.00  0.00    +0.100 C 
ENDBRANCH  17  20
ENDBRANCH   3  14
TORSDOF 3
