REMARK  Name = ZINCkj000005lWpb.1
REMARK                            x       y       z     vdW  Elec       q    Type
REMARK                         _______ _______ _______ _____ _____    ______ ____
ROOT
ATOM      1  O   LIG    1        1.220  -3.057  -0.298  0.00  0.00    -0.510 OA
ATOM      2  C   LIG    1        2.015  -2.488   0.425  0.00  0.00    +0.580 C 
ATOM      3  N   LIG    1        2.162  -1.151   0.344  0.00  0.00    -0.740 N 
ATOM      4  H   LIG    1        2.796  -0.697   0.921  0.00  0.00    +0.400 HD
ENDROOT
BRANCH   2   5
ATOM      5  C   LIG    1        2.818  -3.262   1.392  0.00  0.00    -0.140 A 
ATOM      6  C   LIG    1        3.732  -2.610   2.223  0.00  0.00    +0.070 A 
ATOM      7  C   LIG    1        4.481  -3.333   3.125  0.00  0.00    +0.040 A 
ATOM      8  C   LIG    1        4.331  -4.711   3.212  0.00  0.00    +0.070 A 
ATOM      9  O   LIG    1        4.942  -5.636   4.006  0.00  0.00    -0.300 OA
ATOM     10  C   LIG    1        4.108  -6.807   3.946  0.00  0.00    +0.440 C 
ATOM     11  O   LIG    1        3.464  -6.704   2.663  0.00  0.00    -0.300 OA
ATOM     12  C   LIG    1        3.420  -5.369   2.383  0.00  0.00    +0.030 A 
ATOM     13  C   LIG    1        2.663  -4.648   1.481  0.00  0.00    +0.110 A 
ENDBRANCH   2   5
BRANCH   3  14
ATOM     14  C   LIG    1        1.364  -0.383  -0.615  0.00  0.00    +0.270 C 
ATOM     15  C   LIG    1        0.002  -0.004   0.002  0.00  0.00    +0.070 C 
ATOM     16  C   LIG    1       -0.019   1.540   0.011  0.00  0.00    +0.270 C 
ATOM     17  N   LIG    1        1.413   1.933  -0.001  0.00  0.00    -0.370 N 
ATOM     18  H   LIG    1        1.810   1.851   0.923  0.00  0.00    +0.420 HD
ATOM     19  C   LIG    1        2.051   0.963  -0.928  0.00  0.00    +0.280 C 
BRANCH  17  20
ATOM     20  C   LIG    1        1.565   3.304  -0.507  0.00  0.00    +0.100 C 
ATOM     21  C   LIG    1        2.410   4.274   0.322  0.00  0.00    +0.100 C 
ATOM     22  C   LIG    1        0.888   4.427   0.281  0.00  0.00    +0.100 C 
ENDBRANCH  17  20
ENDBRANCH   3  14
TORSDOF 3
