REMARK  Name = ZINCpe000000YUiv.0
REMARK                            x       y       z     vdW  Elec       q    Type
REMARK                         _______ _______ _______ _____ _____    ______ ____
ROOT
ATOM      1  C   LIG    1       -1.451   3.568   2.449  0.00  0.00    +0.220 C 
ENDROOT
BRANCH   1   2
ATOM      2  C   LIG    1       -2.832   2.980   2.587  0.00  0.00    -0.090 A 
ATOM      3  C   LIG    1       -3.902   3.572   1.942  0.00  0.00    +0.020 A 
ATOM      4  C   LIG    1       -5.169   3.031   2.064  0.00  0.00    +0.050 A 
ATOM      5  C   LIG    1       -5.368   1.903   2.838  0.00  0.00    -0.010 A 
ATOM      6  C   LIG    1       -4.298   1.313   3.488  0.00  0.00    +0.100 A 
ATOM      7  F   LIG    1       -4.491   0.211   4.245  0.00  0.00    -0.140 F 
ATOM      8  C   LIG    1       -3.029   1.852   3.361  0.00  0.00    -0.010 A 
ENDBRANCH   1   2
BRANCH   1   9
ATOM      9  N   LIG    1       -0.625   2.686   1.614  0.00  0.00    -0.520 NA
ATOM     10  C   LIG    1       -0.552   1.334   2.188  0.00  0.00    +0.150 C 
ATOM     11  C   LIG    1        0.365   0.467   1.321  0.00  0.00    +0.230 C 
ATOM     12  O   LIG    1       -0.124   0.460  -0.024  0.00  0.00    -0.380 OA
ATOM     13  C   LIG    1       -0.207   1.760  -0.613  0.00  0.00    +0.220 C 
ATOM     14  C   LIG    1       -1.130   2.641   0.234  0.00  0.00    +0.150 C 
ENDBRANCH   1   9
BRANCH   1  15
ATOM     15  C   LIG    1       -0.815   3.704   3.834  0.00  0.00    +0.280 C 
BRANCH  15  18
ATOM     16  O   LIG    1        0.871   4.147   5.890  0.00  0.00    -0.530 OA
ATOM     17  C   LIG    1        1.331   4.354   4.787  0.00  0.00    +0.490 C 
ATOM     18  N   LIG    1        0.569   4.162   3.692  0.00  0.00    -0.720 N 
ATOM     19  H   LIG    1        0.937   4.328   2.810  0.00  0.00    +0.410 HD
BRANCH  17  20
ATOM     20  C   LIG    1        2.755   4.826   4.641  0.00  0.00    +0.340 C 
BRANCH  20  21
ATOM     21  N   LIG    1        3.365   4.957   5.967  0.00  0.00    -0.600 N 
ATOM     22  C   LIG    1        4.070   3.827   6.590  0.00  0.00    +0.380 C 
ATOM     23  S   LIG    1        4.168   4.322   8.357  0.00  0.00    -0.230 S 
ATOM     24  C   LIG    1        3.957   6.113   8.006  0.00  0.00    +0.170 C 
ATOM     25  C   LIG    1        3.302   6.099   6.639  0.00  0.00    +0.520 C 
ATOM     26  O   LIG    1        2.747   7.078   6.186  0.00  0.00    -0.510 OA
ENDBRANCH  20  21
ENDBRANCH  17  20
ENDBRANCH  15  18
ENDBRANCH   1  15
TORSDOF 6
