REMARK  Name = ZINCrH000004uGve.0
REMARK                            x       y       z     vdW  Elec       q    Type
REMARK                         _______ _______ _______ _____ _____    ______ ____
ROOT
ATOM      1  O   LIG    1        2.287   1.430  -4.039  0.00  0.00    -0.580 OA
ATOM      2  C   LIG    1        2.287   0.410  -3.377  0.00  0.00    +0.710 C 
ATOM      3  N   LIG    1        1.820   0.428  -2.113  0.00  0.00    -0.730 N 
ATOM      4  H   LIG    1        1.820  -0.386  -1.585  0.00  0.00    +0.400 HD
ATOM      5  N   LIG    1        2.755  -0.737  -3.907  0.00  0.00    -0.740 N 
ATOM      6  H   LIG    1        2.755  -1.551  -3.379  0.00  0.00    +0.400 HD
ENDROOT
BRANCH   3   7
ATOM      7  C   LIG    1        1.312   1.675  -1.537  0.00  0.00    +0.250 C 
ATOM      8  C   LIG    1       -0.218   1.707  -1.384  0.00  0.00    +0.030 C 
ATOM      9  C   LIG    1       -0.013   1.086   0.008  0.00  0.00    +0.020 C 
ATOM     10  C   LIG    1        1.388   1.721  -0.002  0.00  0.00    +0.040 C 
BRANCH   9  11
ATOM     11  C   LIG    1       -0.925   1.653   1.065  0.00  0.00    -0.040 A 
ATOM     12  C   LIG    1       -1.475   0.821   2.022  0.00  0.00    +0.000 A 
ATOM     13  C   LIG    1       -2.312   1.340   2.992  0.00  0.00    +0.040 A 
ATOM     14  C   LIG    1       -2.600   2.691   3.006  0.00  0.00    -0.030 A 
ATOM     15  C   LIG    1       -2.050   3.526   2.048  0.00  0.00    +0.100 A 
ATOM     16  F   LIG    1       -2.331   4.847   2.061  0.00  0.00    -0.140 F 
ATOM     17  C   LIG    1       -1.208   3.006   1.080  0.00  0.00    -0.010 A 
ENDBRANCH   9  11
ENDBRANCH   3   7
BRANCH   5  18
ATOM     18  C   LIG    1        3.263  -0.756  -5.281  0.00  0.00    +0.390 C 
BRANCH  18  19
ATOM     19  C   LIG    1        3.722  -2.149  -5.628  0.00  0.00    +0.060 A 
ATOM     20  N   LIG    1        4.901  -2.654  -5.370  0.00  0.00    -0.270 NA
ATOM     21  N   LIG    1        4.928  -3.971  -5.848  0.00  0.00    -0.320 N 
ATOM     22  C   LIG    1        3.726  -4.233  -6.410  0.00  0.00    +0.230 A 
ATOM     23  C   LIG    1        2.963  -3.122  -6.286  0.00  0.00    -0.080 A 
BRANCH  21  24
ATOM     24  C   LIG    1        6.010  -4.858  -5.764  0.00  0.00    +0.150 A 
ATOM     25  C   LIG    1        5.900  -6.141  -6.283  0.00  0.00    -0.010 A 
ATOM     26  C   LIG    1        6.970  -7.011  -6.203  0.00  0.00    +0.040 A 
ATOM     27  C   LIG    1        8.147  -6.608  -5.599  0.00  0.00    +0.000 A 
ATOM     28  C   LIG    1        8.258  -5.332  -5.077  0.00  0.00    +0.040 A 
ATOM     29  C   LIG    1        7.193  -4.456  -5.158  0.00  0.00    +0.020 A 
ENDBRANCH  21  24
ENDBRANCH  18  19
ENDBRANCH   5  18
TORSDOF 5
