REMARK  Name = ZINCrH000004sSN4.0
REMARK                            x       y       z     vdW  Elec       q    Type
REMARK                         _______ _______ _______ _____ _____    ______ ____
ROOT
ATOM      1  C   LIG    1        1.182   1.677  -0.000  0.00  0.00    +0.240 A 
ATOM      2  N   LIG    1        2.364   1.144  -0.009  0.00  0.00    -0.490 NA
ATOM      3  C   LIG    1        3.393   1.971  -0.019  0.00  0.00    +0.110 A 
ATOM      4  C   LIG    1        3.064   3.264  -0.008  0.00  0.00    -0.130 A 
ATOM      5  S   LIG    1        1.307   3.382   0.008  0.00  0.00    +0.250 S 
ENDROOT
BRANCH   1   7
ATOM      6  C   LIG    1       -1.187   1.624   0.017  0.00  0.00    +0.600 C 
ATOM      7  N   LIG    1       -0.011   0.966   0.007  0.00  0.00    -0.620 N 
ATOM      8  H   LIG    1        0.002  -0.004   0.002  0.00  0.00    +0.420 HD
ATOM      9  O   LIG    1       -1.204   2.840   0.023  0.00  0.00    -0.510 OA
BRANCH   6  12
ATOM     10  C   LIG    1       -4.077   2.845   0.038  0.00  0.00    +0.190 C 
ATOM     11  C   LIG    1       -3.718   1.381   0.027  0.00  0.00    +0.100 A 
ATOM     12  C   LIG    1       -2.453   0.870   0.018  0.00  0.00    -0.260 A 
ATOM     13  C   LIG    1       -2.618  -0.591   0.005  0.00  0.00    -0.030 A 
ATOM     14  C   LIG    1       -3.941  -0.814   0.015  0.00  0.00    +0.180 A 
ATOM     15  O   LIG    1       -4.585   0.364   0.025  0.00  0.00    -0.170 OA
ENDBRANCH   6  12
ENDBRANCH   1   7
BRANCH   3  16
ATOM     16  C   LIG    1        4.822   1.494  -0.034  0.00  0.00    +0.160 C 
BRANCH  16  17
ATOM     17  C   LIG    1        5.050   0.555   1.123  0.00  0.00    +0.520 C 
ATOM     18  N   LIG    1        6.264  -0.000   1.311  0.00  0.00    -0.730 N 
ATOM     19  H   LIG    1        6.990   0.205   0.702  0.00  0.00    +0.400 HD
ATOM     20  O   LIG    1        4.141   0.298   1.884  0.00  0.00    -0.520 OA
BRANCH  18  21
ATOM     21  C   LIG    1        6.486  -0.913   2.435  0.00  0.00    +0.270 C 
BRANCH  21  22
ATOM     22  C   LIG    1        7.937  -1.398   2.420  0.00  0.00    +0.030 C 
ATOM     23  C   LIG    1        8.873  -0.213   2.670  0.00  0.00    +0.030 C 
BRANCH  22  24
ATOM     24  C   LIG    1        8.133  -2.429   3.501  0.00  0.00    -0.080 A 
ATOM     25  C   LIG    1        7.911  -2.095   4.824  0.00  0.00    +0.010 A 
ATOM     26  C   LIG    1        8.088  -3.043   5.815  0.00  0.00    +0.000 A 
ATOM     27  C   LIG    1        8.493  -4.322   5.484  0.00  0.00    +0.000 A 
ATOM     28  C   LIG    1        8.720  -4.655   4.161  0.00  0.00    +0.000 A 
ATOM     29  C   LIG    1        8.540  -3.708   3.170  0.00  0.00    +0.010 A 
ENDBRANCH  22  24
ENDBRANCH  21  22
ENDBRANCH  18  21
ENDBRANCH  16  17
ENDBRANCH   3  16
TORSDOF 7
