REMARK  Name = ZINCpk000005JauE.0
REMARK                            x       y       z     vdW  Elec       q    Type
REMARK                         _______ _______ _______ _____ _____    ______ ____
ROOT
ATOM      1  C   LIG    1       -3.317   2.097   0.052  0.00  0.00    +0.230 C 
ATOM      2  C   LIG    1       -4.414   1.075  -0.250  0.00  0.00    +0.060 C 
ENDROOT
BRANCH   1   3
ATOM      3  N   LIG    1       -3.194   3.029  -1.071  0.00  0.00    -0.610 N 
ATOM      4  C   LIG    1       -3.396   4.348  -0.879  0.00  0.00    +0.500 C 
ATOM      5  O   LIG    1       -3.678   4.763   0.225  0.00  0.00    -0.520 OA
ATOM      6  C   LIG    1       -2.852   2.528  -2.405  0.00  0.00    +0.300 C 
BRANCH   4   7
ATOM      7  C   LIG    1       -3.269   5.306  -2.035  0.00  0.00    +0.230 C 
ATOM      8  C   LIG    1       -4.627   5.448  -2.724  0.00  0.00    +0.040 C 
ATOM      9  C   LIG    1       -4.541   6.586  -3.748  0.00  0.00    +0.050 C 
ATOM     10  C   LIG    1       -4.370   7.906  -2.992  0.00  0.00    +0.060 C 
ATOM     11  C   LIG    1       -3.275   7.772  -1.972  0.00  0.00    +0.520 C 
ATOM     12  O   LIG    1       -2.788   8.785  -1.517  0.00  0.00    -0.540 OA
ATOM     13  N   LIG    1       -2.815   6.600  -1.540  0.00  0.00    -0.590 N 
ATOM     14  C   LIG    1       -1.780   6.614  -0.503  0.00  0.00    +0.280 C 
ENDBRANCH   4   7
ENDBRANCH   1   3
BRANCH   1  15
ATOM     15  C   LIG    1       -1.986   1.371   0.260  0.00  0.00    +0.280 C 
BRANCH  15  17
ATOM     16  C   LIG    1        0.354   1.943   0.630  0.00  0.00    +0.610 C 
ATOM     17  N   LIG    1       -0.914   2.355   0.431  0.00  0.00    -0.720 N 
ATOM     18  H   LIG    1       -1.117   3.303   0.402  0.00  0.00    +0.400 HD
ATOM     19  O   LIG    1        0.608   0.754   0.667  0.00  0.00    -0.520 OA
BRANCH  16  24
ATOM     20  C   LIG    1        2.736   6.332   1.000  0.00  0.00    +0.180 C 
ATOM     21  C   LIG    1        2.477   4.848   0.958  0.00  0.00    +0.030 A 
ATOM     22  C   LIG    1        3.411   3.882   1.100  0.00  0.00    -0.070 A 
ATOM     23  C   LIG    1        2.749   2.649   0.997  0.00  0.00    -0.070 A 
ATOM     24  C   LIG    1        1.427   2.928   0.795  0.00  0.00    -0.100 A 
ATOM     25  C   LIG    1        3.374   1.281   1.091  0.00  0.00    +0.140 C 
ATOM     26  O   LIG    1        1.284   4.269   0.769  0.00  0.00    -0.160 OA
ENDBRANCH  16  24
ENDBRANCH  15  17
ENDBRANCH   1  15
TORSDOF 5
