REMARK  Name = ZINCqH0000007ABV.0
REMARK                            x       y       z     vdW  Elec       q    Type
REMARK                         _______ _______ _______ _____ _____    ______ ____
ROOT
ATOM      1  C   LIG    1        1.147   3.149   0.017  0.00  0.00    +0.140 A 
ATOM      2  C   LIG    1       -0.032   3.860   0.030  0.00  0.00    -0.010 A 
ATOM      3  C   LIG    1       -1.252   3.174   0.029  0.00  0.00    -0.030 A 
ATOM      4  C   LIG    1       -2.489   3.868   0.041  0.00  0.00    -0.080 A 
ATOM      5  C   LIG    1       -3.655   3.113   0.020  0.00  0.00    +0.020 A 
ATOM      6  C   LIG    1       -3.574   1.724   0.007  0.00  0.00    +0.140 A 
ATOM      7  N   LIG    1       -2.423   1.097   0.001  0.00  0.00    -0.450 NA
ATOM      8  C   LIG    1       -4.846   0.916  -0.002  0.00  0.00    +0.130 C 
ATOM      9  C   LIG    1       -1.262   1.756   0.008  0.00  0.00    +0.110 A 
ATOM     10  C   LIG    1       -0.037   1.061   0.002  0.00  0.00    +0.100 A 
ATOM     11  C   LIG    1        1.134   1.750   0.004  0.00  0.00    -0.030 A 
ENDROOT
BRANCH   4  12
ATOM     12  C   LIG    1       -2.535   5.346   0.056  0.00  0.00    +0.570 C 
ATOM     13  N   LIG    1       -3.235   5.988   1.012  0.00  0.00    -0.600 N 
ATOM     14  O   LIG    1       -1.941   5.981  -0.793  0.00  0.00    -0.500 OA
BRANCH  13  15
ATOM     15  C   LIG    1       -3.382   7.445   0.958  0.00  0.00    +0.420 C 
BRANCH  15  16
ATOM     16  C   LIG    1       -4.617   7.796   0.170  0.00  0.00    -0.040 A 
ATOM     17  C   LIG    1       -5.854   7.954   0.675  0.00  0.00    -0.040 A 
ATOM     18  C   LIG    1       -6.702   8.277  -0.410  0.00  0.00    -0.070 A 
ATOM     19  C   LIG    1       -5.932   8.297  -1.513  0.00  0.00    +0.170 A 
ATOM     20  O   LIG    1       -4.670   8.011  -1.155  0.00  0.00    -0.160 OA
ENDBRANCH  15  16
ENDBRANCH  13  15
BRANCH  13  21
ATOM     21  C   LIG    1       -3.850   5.230   2.104  0.00  0.00    +0.300 C 
BRANCH  21  22
ATOM     22  C   LIG    1       -2.909   5.222   3.311  0.00  0.00    +0.180 C 
BRANCH  22  23
ATOM     23  C   LIG    1       -3.527   4.460   4.409  0.00  0.00    +0.200 C 
ATOM     24  N   LIG    1       -4.003   3.872   5.256  0.00  0.00    -0.420 NA
ENDBRANCH  22  23
ENDBRANCH  21  22
ENDBRANCH  13  21
ENDBRANCH   4  12
BRANCH   1  26
ATOM     25  C   LIG    1        3.520   3.015   0.005  0.00  0.00    +0.240 C 
ATOM     26  O   LIG    1        2.333   3.811   0.018  0.00  0.00    -0.310 OA
ENDBRANCH   1  26
TORSDOF 7
