REMARK  Name = ZINCrD000000CVoq.0
REMARK                            x       y       z     vdW  Elec       q    Type
REMARK                         _______ _______ _______ _____ _____    ______ ____
ROOT
ATOM      1  O   LIG    1       -2.240   1.333   0.019  0.00  0.00    -0.530 OA
ATOM      2  C   LIG    1       -1.101   1.755   0.016  0.00  0.00    +0.700 C 
ATOM      3  N   LIG    1       -0.011   0.966   0.007  0.00  0.00    -0.720 N 
ATOM      4  H   LIG    1        0.002  -0.004   0.002  0.00  0.00    +0.440 HD
ATOM      5  C   LIG    1        1.158   1.862   0.001  0.00  0.00    +0.230 C 
ATOM      6  C   LIG    1        0.545   3.248   0.013  0.00  0.00    +0.520 C 
ATOM      7  O   LIG    1        1.132   4.309   0.014  0.00  0.00    -0.460 OA
ATOM      8  N   LIG    1       -0.789   3.056   0.025  0.00  0.00    -0.580 N 
ENDROOT
BRANCH   5   9
ATOM      9  C   LIG    1        2.013   1.641   1.250  0.00  0.00    +0.140 C 
BRANCH   9  10
ATOM     10  C   LIG    1        2.622   0.263   1.205  0.00  0.00    -0.180 A 
ATOM     11  C   LIG    1        2.134  -0.846   1.784  0.00  0.00    +0.230 A 
ATOM     12  N   LIG    1        2.955  -1.909   1.523  0.00  0.00    -0.590 N 
ATOM     13  H   LIG    1        2.808  -2.816   1.833  0.00  0.00    +0.420 HD
ATOM     14  C   LIG    1        4.024  -1.498   0.758  0.00  0.00    +0.100 A 
ATOM     15  C   LIG    1        5.130  -2.153   0.228  0.00  0.00    -0.010 A 
ATOM     16  C   LIG    1        6.052  -1.448  -0.515  0.00  0.00    +0.030 A 
ATOM     17  C   LIG    1        5.888  -0.089  -0.741  0.00  0.00    -0.020 A 
ATOM     18  C   LIG    1        4.808   0.575  -0.230  0.00  0.00    +0.050 A 
ATOM     19  C   LIG    1        3.862  -0.119   0.525  0.00  0.00    -0.100 A 
ENDBRANCH   9  10
ENDBRANCH   5   9
BRANCH   8  20
ATOM     20  C   LIG    1       -1.776   4.138   0.038  0.00  0.00    +0.350 C 
BRANCH  20  21
ATOM     21  C   LIG    1       -2.133   4.521  -1.399  0.00  0.00    +0.200 C 
BRANCH  21  22
ATOM     22  O   LIG    1       -2.786   3.422  -2.037  0.00  0.00    -0.300 OA
BRANCH  22  23
ATOM     23  C   LIG    1       -3.172   3.598  -3.328  0.00  0.00    +0.140 A 
ATOM     24  C   LIG    1       -2.932   4.806  -3.966  0.00  0.00    -0.080 A 
ATOM     25  C   LIG    1       -3.321   4.982  -5.281  0.00  0.00    +0.070 A 
ATOM     26  C   LIG    1       -3.958   3.958  -5.957  0.00  0.00    -0.010 A 
ATOM     27  C   LIG    1       -4.204   2.754  -5.322  0.00  0.00    +0.000 A 
ATOM     28 CL   LIG    1       -5.004   1.471  -6.174  0.00  0.00    -0.060 Cl
ATOM     29  C   LIG    1       -3.812   2.572  -4.008  0.00  0.00    +0.000 A 
ENDBRANCH  22  23
ENDBRANCH  21  22
ENDBRANCH  20  21
ENDBRANCH   8  20
TORSDOF 6
