REMARK  Name = ZINCkj00000y7ERs.0
REMARK                            x       y       z     vdW  Elec       q    Type
REMARK                         _______ _______ _______ _____ _____    ______ ____
ROOT
ATOM      1  C   LIG    1       -1.339  -1.182   3.236  0.00  0.00    +0.180 C 
ATOM      2  C   LIG    1       -1.252  -0.170   2.074  0.00  0.00    +0.260 C 
ATOM      3  N   LIG    1        0.022  -0.501   1.384  0.00  0.00    -0.400 N 
ATOM      4  C   LIG    1        0.072  -1.986   1.402  0.00  0.00    +0.290 C 
ATOM      5  H   LIG    1        0.806  -0.114   1.887  0.00  0.00    +0.420 HD
ATOM      6  C   LIG    1       -0.468  -2.377   2.794  0.00  0.00    +0.130 C 
ENDROOT
BRANCH   6   7
ATOM      7  C   LIG    1        0.671  -2.579   3.760  0.00  0.00    -0.040 A 
ATOM      8  C   LIG    1        1.871  -1.953   3.740  0.00  0.00    +0.120 A 
ATOM      9  N   LIG    1        2.570  -2.443   4.789  0.00  0.00    -0.280 N 
ATOM     10  N   LIG    1        1.837  -3.313   5.391  0.00  0.00    -0.060 NA
ATOM     11  C   LIG    1        3.930  -2.055   5.171  0.00  0.00    +0.380 C 
ATOM     12  N   LIG    1        0.698  -3.418   4.801  0.00  0.00    -0.240 NA
ENDBRANCH   6   7
BRANCH   1  14
ATOM     13  C   LIG    1       -3.414  -0.807   4.376  0.00  0.00    +0.230 C 
ATOM     14  O   LIG    1       -2.692  -1.599   3.431  0.00  0.00    -0.360 OA
ENDBRANCH   1  14
BRANCH   3  15
ATOM     15  C   LIG    1        0.002  -0.004   0.002  0.00  0.00    +0.410 C 
BRANCH  15  16
ATOM     16  C   LIG    1       -0.018   1.503   0.010  0.00  0.00    -0.120 A 
ATOM     17  C   LIG    1        1.062   2.304   0.004  0.00  0.00    +0.030 A 
ATOM     18  C   LIG    1        0.585   3.635   0.016  0.00  0.00    -0.060 A 
ATOM     19  C   LIG    1       -0.759   3.567   0.029  0.00  0.00    +0.050 A 
ATOM     20  C   LIG    1       -1.700   4.744   0.043  0.00  0.00    +0.190 C 
ATOM     21  O   LIG    1       -1.118   2.273   0.019  0.00  0.00    -0.170 OA
ENDBRANCH  15  16
ENDBRANCH   3  15
TORSDOF 4
