REMARK  Name = ZINCkj00000y7ERs.1
REMARK                            x       y       z     vdW  Elec       q    Type
REMARK                         _______ _______ _______ _____ _____    ______ ____
ROOT
ATOM      1  C   LIG    1       -1.545   2.687   1.457  0.00  0.00    +0.190 C 
ATOM      2  C   LIG    1       -1.435   4.226   1.409  0.00  0.00    +0.250 C 
ATOM      3  N   LIG    1       -1.675   4.575  -0.015  0.00  0.00    -0.390 N 
ATOM      4  C   LIG    1       -0.965   3.514  -0.775  0.00  0.00    +0.290 C 
ATOM      5  H   LIG    1       -2.662   4.557  -0.222  0.00  0.00    +0.440 HD
ATOM      6  C   LIG    1       -1.236   2.219   0.020  0.00  0.00    +0.130 C 
ENDROOT
BRANCH   6   7
ATOM      7  C   LIG    1       -0.016   1.333   0.009  0.00  0.00    -0.030 A 
ATOM      8  C   LIG    1        1.276   1.736  -0.001  0.00  0.00    +0.140 A 
ATOM      9  N   LIG    1        2.022   0.607  -0.014  0.00  0.00    -0.280 N 
ATOM     10  N   LIG    1        1.225  -0.404  -0.012  0.00  0.00    -0.060 NA
ATOM     11  C   LIG    1        3.486   0.545  -0.029  0.00  0.00    +0.390 C 
ATOM     12  N   LIG    1        0.002  -0.004   0.002  0.00  0.00    -0.250 NA
ENDBRANCH   6   7
BRANCH   1  14
ATOM     13  C   LIG    1       -3.025   2.054   3.233  0.00  0.00    +0.230 C 
ATOM     14  O   LIG    1       -2.866   2.295   1.833  0.00  0.00    -0.370 OA
ENDBRANCH   1  14
BRANCH   3  15
ATOM     15  C   LIG    1       -1.108   5.895  -0.323  0.00  0.00    +0.400 C 
BRANCH  15  16
ATOM     16  C   LIG    1       -1.921   6.963   0.362  0.00  0.00    -0.120 A 
ATOM     17  C   LIG    1       -1.704   7.445   1.599  0.00  0.00    +0.030 A 
ATOM     18  C   LIG    1       -2.693   8.426   1.836  0.00  0.00    -0.060 A 
ATOM     19  C   LIG    1       -3.461   8.480   0.734  0.00  0.00    +0.050 A 
ATOM     20  C   LIG    1       -4.650   9.383   0.531  0.00  0.00    +0.190 C 
ATOM     21  O   LIG    1       -2.989   7.591  -0.156  0.00  0.00    -0.170 OA
ENDBRANCH  15  16
ENDBRANCH   3  15
TORSDOF 4
