REMARK  Name = ZINCpk00000KfKFu.0
REMARK                            x       y       z     vdW  Elec       q    Type
REMARK                         _______ _______ _______ _____ _____    ______ ____
ROOT
ATOM      1  C   LIG    1       -3.922   2.282  -0.388  0.00  0.00    +0.150 C 
ATOM      2  C   LIG    1       -2.465   1.786  -0.420  0.00  0.00    +0.170 C 
ATOM      3  N   LIG    1       -2.137   1.313   0.942  0.00  0.00    -0.490 NA
ATOM      4  C   LIG    1       -3.043   2.054   1.857  0.00  0.00    +0.180 C 
ATOM      5  C   LIG    1       -4.381   2.091   1.076  0.00  0.00    +0.270 C 
ENDROOT
BRANCH   5   6
ATOM      6  N   LIG    1       -5.205   3.221   1.513  0.00  0.00    -0.720 N 
ATOM      7  H   LIG    1       -5.106   4.087   1.086  0.00  0.00    +0.400 HD
ATOM      8  C   LIG    1       -6.099   3.058   2.508  0.00  0.00    +0.530 C 
ATOM      9  O   LIG    1       -6.222   1.976   3.042  0.00  0.00    -0.530 OA
BRANCH   8  10
ATOM     10  C   LIG    1       -6.946   4.220   2.958  0.00  0.00    -0.030 C 
ATOM     11  C   LIG    1       -6.234   5.154   3.951  0.00  0.00    +0.050 C 
ATOM     12  C   LIG    1       -7.573   5.244   4.704  0.00  0.00    -0.090 C 
ATOM     13  C   LIG    1       -7.423   5.223   6.226  0.00  0.00    +0.040 C 
ATOM     14  C   LIG    1       -8.479   6.374   4.210  0.00  0.00    +0.050 C 
ATOM     15  C   LIG    1       -7.915   3.871   4.100  0.00  0.00    +0.060 C 
ENDBRANCH   8  10
ENDBRANCH   5   6
BRANCH   1  17
ATOM     16  C   LIG    1       -4.828   2.029  -2.592  0.00  0.00    +0.200 C 
ATOM     17  O   LIG    1       -4.732   1.501  -1.268  0.00  0.00    -0.370 OA
ENDBRANCH   1  17
BRANCH   3  18
ATOM     18  C   LIG    1       -0.729   1.579   1.267  0.00  0.00    +0.120 C 
ATOM     19  C   LIG    1       -0.458   1.188   2.721  0.00  0.00    +0.070 C 
BRANCH  18  20
ATOM     20  C   LIG    1        0.158   0.771   0.355  0.00  0.00    +0.520 C 
ATOM     21  N   LIG    1        1.432   1.156   0.140  0.00  0.00    -0.610 N 
ATOM     22  C   LIG    1        1.954   2.359   0.792  0.00  0.00    +0.280 C 
ATOM     23  O   LIG    1       -0.274  -0.225  -0.185  0.00  0.00    -0.510 OA
BRANCH  21  24
ATOM     24  C   LIG    1        2.295   0.370  -0.746  0.00  0.00    +0.230 C 
ATOM     25  C   LIG    1        3.509  -0.132   0.038  0.00  0.00    +0.030 C 
ATOM     26  C   LIG    1        2.764   1.247  -1.909  0.00  0.00    +0.030 C 
ENDBRANCH  21  24
ENDBRANCH  18  20
ENDBRANCH   3  18
TORSDOF 6
