REMARK  Name = ZINCc70000006lrI.0
REMARK                            x       y       z     vdW  Elec       q    Type
REMARK                         _______ _______ _______ _____ _____    ______ ____
ROOT
ATOM      1  C   LIG    1       -1.307   1.933   0.019  0.00  0.00    +0.070 A 
ATOM      2  C   LIG    1       -2.506   1.218   0.015  0.00  0.00    +0.330 A 
ATOM      3  N   LIG    1       -3.657   1.861   0.029  0.00  0.00    -0.400 NA
ATOM      4  C   LIG    1       -3.675   3.191   0.037  0.00  0.00    +0.180 A 
ATOM      5  C   LIG    1       -2.473   3.907   0.035  0.00  0.00    +0.310 A 
ATOM      6  N   LIG    1       -1.324   3.264   0.026  0.00  0.00    -0.380 NA
ENDROOT
BRANCH   1   7
ATOM      7  C   LIG    1       -0.014   1.210   0.009  0.00  0.00    +0.530 C 
ATOM      8  O   LIG    1        0.002  -0.004   0.002  0.00  0.00    -0.480 OA
BRANCH   7  10
ATOM      9  C   LIG    1        2.371   1.125  -0.015  0.00  0.00    +0.280 C 
ATOM     10  O   LIG    1        1.143   1.899   0.001  0.00  0.00    -0.330 OA
ENDBRANCH   7  10
ENDBRANCH   1   7
BRANCH   4  11
ATOM     11  C   LIG    1       -4.925   3.890   0.046  0.00  0.00    +0.260 C 
ATOM     12  N   LIG    1       -5.917   4.445   0.053  0.00  0.00    -0.350 NA
ENDBRANCH   4  11
TORSDOF 3
