REMARK  Name = ZINCvU0000000C6g.0
REMARK                            x       y       z     vdW  Elec       q    Type
REMARK                         _______ _______ _______ _____ _____    ______ ____
ROOT
ATOM      1  C   LIG    1        9.927   2.975   3.366  0.00  0.00    +0.110 C 
ATOM      2  C   LIG    1        8.859   2.086   2.780  0.00  0.00    -0.090 A 
ATOM      3  C   LIG    1        7.728   2.647   2.219  0.00  0.00    +0.040 A 
ATOM      4  C   LIG    1        6.745   1.840   1.681  0.00  0.00    +0.030 A 
ATOM      5  C   LIG    1        6.894   0.453   1.702  0.00  0.00    -0.120 A 
ATOM      6  C   LIG    1        8.033  -0.114   2.273  0.00  0.00    +0.090 A 
ATOM      7  C   LIG    1        9.016   0.705   2.806  0.00  0.00    +0.140 A 
ENDROOT
BRANCH   5   8
ATOM      8  C   LIG    1        5.843  -0.414   1.127  0.00  0.00    +0.560 C 
ATOM      9  N   LIG    1        4.740   0.135   0.582  0.00  0.00    -0.720 N 
ATOM     10  H   LIG    1        4.635   1.099   0.566  0.00  0.00    +0.400 HD
ATOM     11  O   LIG    1        5.974  -1.623   1.147  0.00  0.00    -0.520 OA
BRANCH   9  12
ATOM     12  C   LIG    1        3.699  -0.724   0.012  0.00  0.00    +0.290 C 
ATOM     13  C   LIG    1        4.061  -1.074  -1.433  0.00  0.00    +0.040 C 
BRANCH  12  14
ATOM     14  C   LIG    1        2.379   0.003   0.037  0.00  0.00    -0.110 A 
ATOM     15  C   LIG    1        2.350   1.384   0.043  0.00  0.00    +0.040 A 
ATOM     16  C   LIG    1        1.139   2.051   0.067  0.00  0.00    -0.010 A 
ATOM     17  C   LIG    1       -0.046   1.338   0.084  0.00  0.00    +0.050 A 
ATOM     18  C   LIG    1       -0.022  -0.043   0.077  0.00  0.00    -0.040 A 
ATOM     19  C   LIG    1        1.191  -0.715   0.054  0.00  0.00    +0.120 A 
BRANCH  19  20
ATOM     20  O   LIG    1        1.217  -2.074   0.048  0.00  0.00    -0.320 OA
BRANCH  20  21
ATOM     21  C   LIG    1       -0.043  -2.747   0.067  0.00  0.00    +0.590 C 
ATOM     22  F   LIG    1       -0.785  -2.380  -1.061  0.00  0.00    -0.200 F 
ATOM     23  F   LIG    1       -0.745  -2.389   1.223  0.00  0.00    -0.200 F 
ENDBRANCH  20  21
ENDBRANCH  19  20
ENDBRANCH  12  14
ENDBRANCH   9  12
ENDBRANCH   5   8
BRANCH   7  24
ATOM     24  N   LIG    1       10.164   0.142   3.375  0.00  0.00    -0.670 N 
ATOM     25  H   LIG    1       10.663   0.634   4.045  0.00  0.00    +0.410 HD
ATOM     26  C   LIG    1       10.575  -1.082   2.991  0.00  0.00    +0.560 C 
ATOM     27  O   LIG    1       10.009  -1.656   2.080  0.00  0.00    -0.500 OA
BRANCH  26  28
ATOM     28  C   LIG    1       11.713  -1.728   3.677  0.00  0.00    -0.140 A 
ATOM     29  C   LIG    1       12.369  -1.070   4.718  0.00  0.00    +0.030 A 
ATOM     30  C   LIG    1       13.429  -1.681   5.357  0.00  0.00    +0.000 A 
ATOM     31  C   LIG    1       13.848  -2.938   4.960  0.00  0.00    +0.040 A 
ATOM     32  C   LIG    1       13.206  -3.594   3.925  0.00  0.00    +0.000 A 
ATOM     33  C   LIG    1       12.142  -2.997   3.281  0.00  0.00    +0.080 A 
ENDBRANCH  26  28
ENDBRANCH   7  24
TORSDOF 7
