REMARK  Name = ZINCvU00000005Xo.0
REMARK                            x       y       z     vdW  Elec       q    Type
REMARK                         _______ _______ _______ _____ _____    ______ ____
ROOT
ATOM      1  C   LIG    1        4.756   5.648  -0.017  0.00  0.00    +0.520 C 
ATOM      2  N   LIG    1        5.875   6.399  -0.020  0.00  0.00    -0.660 N 
ATOM      3  H   LIG    1        6.744   5.974   0.045  0.00  0.00    +0.420 HD
ATOM      4  O   LIG    1        3.667   6.182   0.002  0.00  0.00    -0.510 OA
ENDROOT
BRANCH   2   5
ATOM      5  C   LIG    1        5.782   7.793  -0.117  0.00  0.00    +0.130 A 
ATOM      6  C   LIG    1        4.672   8.377  -0.709  0.00  0.00    +0.120 A 
ATOM      7  C   LIG    1        4.581   9.754  -0.800  0.00  0.00    -0.190 A 
ATOM      8  C   LIG    1        5.599  10.551  -0.311  0.00  0.00    +0.100 A 
ATOM      9  C   LIG    1        6.712   9.976   0.275  0.00  0.00    -0.040 A 
ATOM     10  C   LIG    1        6.808   8.598   0.374  0.00  0.00    +0.130 A 
BRANCH   7  11
ATOM     11  C   LIG    1        3.371  10.386  -1.438  0.00  0.00    +0.510 C 
ATOM     12  F   LIG    1        2.224  10.021  -0.726  0.00  0.00    -0.170 F 
ATOM     13  F   LIG    1        3.258   9.946  -2.761  0.00  0.00    -0.170 F 
ATOM     14  F   LIG    1        3.508  11.778  -1.419  0.00  0.00    -0.180 F 
ENDBRANCH   7  11
BRANCH  10  15
ATOM     15  O   LIG    1        7.902   8.031   0.950  0.00  0.00    -0.300 OA
BRANCH  15  16
ATOM     16  C   LIG    1        8.914   8.917   1.432  0.00  0.00    +0.250 C 
BRANCH  16  17
ATOM     17  C   LIG    1       10.057   8.103   2.042  0.00  0.00    +0.470 C 
ATOM     18  F   LIG    1        9.567   7.334   3.103  0.00  0.00    -0.170 F 
ATOM     19  F   LIG    1       11.048   8.971   2.513  0.00  0.00    -0.170 F 
ATOM     20  F   LIG    1       10.601   7.260   1.067  0.00  0.00    -0.170 F 
ENDBRANCH  16  17
ENDBRANCH  15  16
ENDBRANCH  10  15
ENDBRANCH   2   5
BRANCH   1  21
ATOM     21  C   LIG    1        4.857   4.144  -0.038  0.00  0.00    +0.080 C 
BRANCH  21  22
ATOM     22  C   LIG    1        3.452   3.538  -0.030  0.00  0.00    +0.210 C 
BRANCH  22  23
ATOM     23  O   LIG    1        3.549   2.112  -0.050  0.00  0.00    -0.310 OA
BRANCH  23  29
ATOM     24  C   LIG    1        2.400   0.023  -0.065  0.00  0.00    +0.100 A 
ATOM     25  C   LIG    1        1.208  -0.683  -0.061  0.00  0.00    -0.050 A 
ATOM     26  C   LIG    1        0.003  -0.005  -0.038  0.00  0.00    +0.010 A 
ATOM     27  C   LIG    1       -0.016   1.377  -0.019  0.00  0.00    +0.010 A 
ATOM     28  C   LIG    1        1.170   2.088  -0.023  0.00  0.00    -0.030 A 
ATOM     29  C   LIG    1        2.381   1.415  -0.046  0.00  0.00    +0.100 A 
BRANCH  24  30
ATOM     30  O   LIG    1        3.586  -0.642  -0.088  0.00  0.00    -0.310 OA
BRANCH  30  32
ATOM     31  C   LIG    1        4.950  -2.636  -0.131  0.00  0.00    +0.070 C 
ATOM     32  C   LIG    1        3.529  -2.070  -0.107  0.00  0.00    +0.170 C 
ENDBRANCH  30  32
ENDBRANCH  24  30
ENDBRANCH  23  29
ENDBRANCH  22  23
ENDBRANCH  21  22
ENDBRANCH   1  21
TORSDOF 11
