REMARK  Name = ZINCrH000004nxs0.0
REMARK                            x       y       z     vdW  Elec       q    Type
REMARK                         _______ _______ _______ _____ _____    ______ ____
ROOT
ATOM      1  C   LIG    1        5.957   3.104  -0.456  0.00  0.00    +0.210 A 
ATOM      2  N   LIG    1        5.046   3.996  -0.140  0.00  0.00    -0.240 NA
ATOM      3  N   LIG    1        3.881   3.454  -0.146  0.00  0.00    -0.290 NA
ATOM      4  C   LIG    1        3.977   2.181  -0.457  0.00  0.00    +0.170 A 
ATOM      5  N   LIG    1        5.301   1.914  -0.668  0.00  0.00    -0.300 N 
ENDROOT
BRANCH   1  11
ATOM      6  C   LIG    1        8.088   4.044   0.440  0.00  0.00    +0.180 A 
ATOM      7  C   LIG    1        9.453   4.255   0.332  0.00  0.00    -0.070 A 
ATOM      8  C   LIG    1       10.144   3.768  -0.762  0.00  0.00    +0.070 A 
ATOM      9  C   LIG    1        9.481   3.068  -1.754  0.00  0.00    -0.020 A 
ATOM     10  C   LIG    1        8.123   2.845  -1.658  0.00  0.00    +0.060 A 
ATOM     11  C   LIG    1        7.413   3.336  -0.562  0.00  0.00    -0.070 A 
BRANCH   6  13
ATOM     12  C   LIG    1        8.162   5.235   2.496  0.00  0.00    +0.240 C 
ATOM     13  O   LIG    1        7.407   4.522   1.514  0.00  0.00    -0.300 OA
ENDBRANCH   6  13
ENDBRANCH   1  11
BRANCH   5  14
ATOM     14  N   LIG    1        5.856   0.716  -1.017  0.00  0.00    -0.580 N 
ATOM     15  H   LIG    1        6.730   0.568  -0.534  0.00  0.00    +0.380 HD
ATOM     16  H   LIG    1        5.980   0.652  -2.016  0.00  0.00    +0.370 HD
ENDBRANCH   5  14
BRANCH   4  17
ATOM     17  S   LIG    1        2.647   1.032  -0.584  0.00  0.00    +0.120 S 
BRANCH  17  18
ATOM     18  C   LIG    1        1.257   2.115  -0.169  0.00  0.00    +0.100 C 
BRANCH  18  19
ATOM     19  C   LIG    1       -0.026   1.326  -0.215  0.00  0.00    +0.540 C 
ATOM     20  N   LIG    1       -1.200   1.931   0.054  0.00  0.00    -0.670 N 
ATOM     21  H   LIG    1       -1.213   2.856   0.346  0.00  0.00    +0.420 HD
ATOM     22  O   LIG    1       -0.003   0.147  -0.501  0.00  0.00    -0.500 OA
BRANCH  20  23
ATOM     23  C   LIG    1       -2.400   1.224  -0.086  0.00  0.00    +0.160 A 
ATOM     24  C   LIG    1       -2.453  -0.127   0.232  0.00  0.00    +0.060 A 
ATOM     25  C   LIG    1       -3.638  -0.822   0.093  0.00  0.00    +0.070 A 
ATOM     26  C   LIG    1       -4.773  -0.174  -0.363  0.00  0.00    -0.040 A 
ATOM     27  C   LIG    1       -4.723   1.173  -0.680  0.00  0.00    -0.010 A 
ATOM     28 CL   LIG    1       -6.148   1.983  -1.252  0.00  0.00    -0.040 Cl
ATOM     29 CL   LIG    1       -6.261  -1.052  -0.537  0.00  0.00    -0.050 Cl
ATOM     30  C   LIG    1       -3.541   1.874  -0.538  0.00  0.00    +0.030 A 
ENDBRANCH  20  23
ENDBRANCH  18  19
ENDBRANCH  17  18
ENDBRANCH   4  17
TORSDOF 7
