REMARK  Name = ZINCqH0000008w6W.0
REMARK                            x       y       z     vdW  Elec       q    Type
REMARK                         _______ _______ _______ _____ _____    ______ ____
ROOT
ATOM      1  C   LIG    1       -1.843  -0.994  -1.252  0.00  0.00    +0.100 C 
ATOM      2  C   LIG    1       -1.211  -0.819   0.131  0.00  0.00    +0.010 C 
ENDROOT
BRANCH   2   3
ATOM      3  C   LIG    1        0.050  -0.003   0.007  0.00  0.00    +0.540 C 
ATOM      4  N   LIG    1       -0.016   1.344   0.009  0.00  0.00    -0.660 N 
ATOM      5  H   LIG    1       -0.879   1.787   0.019  0.00  0.00    +0.420 HD
ATOM      6  O   LIG    1        1.123  -0.557  -0.094  0.00  0.00    -0.490 OA
BRANCH   4   7
ATOM      7  C   LIG    1        1.160   2.101  -0.008  0.00  0.00    +0.200 A 
ATOM      8  C   LIG    1        1.221   3.307   0.679  0.00  0.00    +0.010 A 
ATOM      9  C   LIG    1        2.385   4.050   0.664  0.00  0.00    +0.130 A 
ATOM     10  C   LIG    1        3.486   3.600  -0.041  0.00  0.00    -0.060 A 
ATOM     11  C   LIG    1        3.426   2.402  -0.730  0.00  0.00    +0.130 A 
ATOM     12  C   LIG    1        2.267   1.652  -0.715  0.00  0.00    +0.040 A 
BRANCH  10  13
ATOM     13  N   LIG    1        4.730   4.402  -0.059  0.00  0.00    +0.030 N 
ATOM     14  O   LIG    1        4.783   5.457   0.547  0.00  0.00    -0.160 OA
ATOM     15  O   LIG    1        5.700   4.006  -0.680  0.00  0.00    -0.160 OA
ENDBRANCH  10  13
ENDBRANCH   4   7
ENDBRANCH   2   3
BRANCH   2  16
ATOM     16  S   LIG    1       -0.813  -2.443   0.822  0.00  0.00    +0.150 S 
BRANCH  16  17
ATOM     17  C   LIG    1       -2.436  -3.108   0.995  0.00  0.00    +0.120 A 
ATOM     18  N   LIG    1       -3.560  -2.505   0.685  0.00  0.00    -0.280 NA
ATOM     19  N   LIG    1       -4.550  -3.287   0.939  0.00  0.00    -0.260 NA
ATOM     20  C   LIG    1       -4.099  -4.415   1.429  0.00  0.00    +0.220 A 
ATOM     21  O   LIG    1       -2.751  -4.326   1.476  0.00  0.00    -0.200 OA
BRANCH  20  22
ATOM     22  C   LIG    1       -4.914  -5.572   1.854  0.00  0.00    -0.030 A 
ATOM     23  C   LIG    1       -4.296  -6.719   2.356  0.00  0.00    +0.050 A 
ATOM     24  C   LIG    1       -5.063  -7.794   2.755  0.00  0.00    +0.020 A 
ATOM     25  C   LIG    1       -6.441  -7.741   2.649  0.00  0.00    +0.040 A 
ATOM     26  C   LIG    1       -7.060  -6.610   2.147  0.00  0.00    +0.020 A 
ATOM     27  C   LIG    1       -6.305  -5.526   1.749  0.00  0.00    +0.080 A 
ENDBRANCH  20  22
ENDBRANCH  16  17
ENDBRANCH   2  16
TORSDOF 6
