REMARK  Name = ZINCrD0000074rZR.0
REMARK                            x       y       z     vdW  Elec       q    Type
REMARK                         _______ _______ _______ _____ _____    ______ ____
ROOT
ATOM      1  C   LIG    1        2.406   0.752  -0.017  0.00  0.00    +0.510 C 
ATOM      2  N   LIG    1        3.671   1.218  -0.026  0.00  0.00    -0.730 N 
ATOM      3  H   LIG    1        3.835   2.174  -0.023  0.00  0.00    +0.410 HD
ATOM      4  O   LIG    1        2.201  -0.443  -0.021  0.00  0.00    -0.530 OA
ENDROOT
BRANCH   1   5
ATOM      5  C   LIG    1        1.248   1.716  -0.001  0.00  0.00    +0.300 C 
BRANCH   5   7
ATOM      6  C   LIG    1       -1.187   1.624   0.017  0.00  0.00    +0.560 C 
ATOM      7  N   LIG    1       -0.011   0.966   0.007  0.00  0.00    -0.720 N 
ATOM      8  H   LIG    1        0.002  -0.004   0.002  0.00  0.00    +0.410 HD
ATOM      9  O   LIG    1       -1.204   2.839   0.023  0.00  0.00    -0.540 OA
BRANCH   6  15
ATOM     10  C   LIG    1       -3.616  -2.735   0.004  0.00  0.00    +0.090 C 
ATOM     11  C   LIG    1       -3.631  -1.228   0.012  0.00  0.00    -0.090 A 
ATOM     12  C   LIG    1       -4.837  -0.550   0.021  0.00  0.00    +0.040 A 
ATOM     13  C   LIG    1       -4.859   0.834   0.029  0.00  0.00    -0.090 A 
ATOM     14  C   LIG    1       -3.677   1.546   0.028  0.00  0.00    +0.070 A 
ATOM     15  C   LIG    1       -2.458   0.867   0.018  0.00  0.00    -0.130 A 
ATOM     16  C   LIG    1       -6.177   1.564   0.039  0.00  0.00    +0.090 C 
ATOM     17  C   LIG    1       -2.442  -0.528   0.005  0.00  0.00    +0.040 A 
ENDBRANCH   6  15
ENDBRANCH   5   7
ENDBRANCH   1   5
BRANCH   2  18
ATOM     18  C   LIG    1        4.797   0.282  -0.042  0.00  0.00    +0.270 C 
BRANCH  18  19
ATOM     19  C   LIG    1        6.111   1.065  -0.051  0.00  0.00    +0.030 C 
BRANCH  19  20
ATOM     20  C   LIG    1        7.287   0.086  -0.067  0.00  0.00    +0.150 C 
BRANCH  20  21
ATOM     21  C   LIG    1        8.582   0.858  -0.075  0.00  0.00    +0.090 A 
ATOM     22  N   LIG    1        9.208   1.225   0.978  0.00  0.00    -0.460 NA
ATOM     23  C   LIG    1       10.358   1.907   0.821  0.00  0.00    +0.080 A 
ATOM     24  C   LIG    1       11.240   2.421   1.793  0.00  0.00    +0.080 A 
ATOM     25  C   LIG    1       12.363   3.094   1.419  0.00  0.00    +0.030 A 
ATOM     26  C   LIG    1       12.661   3.287   0.077  0.00  0.00    +0.040 A 
ATOM     27  C   LIG    1       11.818   2.795  -0.894  0.00  0.00    +0.060 A 
ATOM     28  C   LIG    1       10.665   2.104  -0.530  0.00  0.00    -0.180 A 
ATOM     29  S   LIG    1        9.393   1.356  -1.491  0.00  0.00    +0.100 S 
ENDBRANCH  20  21
ENDBRANCH  19  20
ENDBRANCH  18  19
ENDBRANCH   2  18
TORSDOF 7
