REMARK  Name = ZINC9p0000002p3m.0
REMARK                            x       y       z     vdW  Elec       q    Type
REMARK                         _______ _______ _______ _____ _____    ______ ____
ROOT
ATOM      1  C   LIG    1        0.795   4.073  -1.234  0.00  0.00    +0.120 C 
ATOM      2  C   LIG    1        1.434   3.445   0.006  0.00  0.00    +0.150 C 
ATOM      3  C   LIG    1        0.819   4.061   1.265  0.00  0.00    +0.120 C 
ENDROOT
BRANCH   2   4
ATOM      4  C   LIG    1        1.185   1.958   0.001  0.00  0.00    -0.270 A 
ATOM      5  C   LIG    1       -0.017   1.380   0.010  0.00  0.00    +0.080 A 
ATOM      6  C   LIG    1        0.002  -0.004   0.002  0.00  0.00    +0.020 A 
ATOM      7  C   LIG    1        1.219  -0.550  -0.013  0.00  0.00    +0.020 A 
ATOM      8  S   LIG    1        2.435   0.721  -0.017  0.00  0.00    +0.090 S 
ENDBRANCH   2   4
BRANCH   2   9
ATOM      9  N   LIG    1        2.881   3.699  -0.006  0.00  0.00    -0.640 N 
ATOM     10  H   LIG    1        3.302   3.285   0.812  0.00  0.00    +0.440 HD
ATOM     11  H   LIG    1        3.047   4.694  -0.002  0.00  0.00    +0.440 HD
ATOM     12  H   LIG    1        3.287   3.293  -0.836  0.00  0.00    +0.440 HD
ENDBRANCH   2   9
TORSDOF 2
