REMARK  Name = ZINCnE00000rhngr.0
REMARK                            x       y       z     vdW  Elec       q    Type
REMARK                         _______ _______ _______ _____ _____    ______ ____
ROOT
ATOM      1  C   LIG    1       -2.513   1.286   0.021  0.00  0.00    -0.040 A 
ATOM      2  C   LIG    1       -3.319   2.432   0.030  0.00  0.00    +0.190 A 
ATOM      3  N   LIG    1       -2.516   3.495   0.044  0.00  0.00    -0.490 NA
ATOM      4  C   LIG    1       -1.246   3.102   0.031  0.00  0.00    +0.230 A 
ATOM      5  C   LIG    1       -0.042   3.832   0.023  0.00  0.00    +0.070 A 
ATOM      6  C   LIG    1        1.145   3.163   0.008  0.00  0.00    +0.030 A 
ATOM      7  C   LIG    1        1.153   1.761   0.001  0.00  0.00    +0.000 A 
ATOM      8  C   LIG    1       -0.013   1.076   0.008  0.00  0.00    +0.220 A 
ATOM      9  N   LIG    1       -1.204   1.734   0.017  0.00  0.00    -0.350 N 
ENDROOT
BRANCH   1  17
ATOM     10  O   LIG    1       -4.268   1.471   2.102  0.00  0.00    -0.470 OA
ATOM     11  C   LIG    1       -4.516   0.288   1.941  0.00  0.00    +0.510 C 
ATOM     12  N   LIG    1       -5.389  -0.350   2.700  0.00  0.00    -0.620 NA
ATOM     13  C   LIG    1       -5.619  -1.652   2.473  0.00  0.00    +0.380 C 
ATOM     14  S   LIG    1       -4.581  -2.097   1.105  0.00  0.00    -0.130 S 
ATOM     15  S   LIG    1       -6.697  -2.673   3.324  0.00  0.00    -0.590 S 
ATOM     16  C   LIG    1       -3.886  -0.474   0.932  0.00  0.00    -0.180 C 
ATOM     17  C   LIG    1       -2.947  -0.050   0.015  0.00  0.00    +0.140 C 
ENDBRANCH   1  17
BRANCH   2  18
ATOM     18  C   LIG    1       -4.799   2.457   0.037  0.00  0.00    +0.020 A 
ATOM     19  C   LIG    1       -5.519   1.488  -0.662  0.00  0.00    +0.010 A 
ATOM     20  C   LIG    1       -6.899   1.514  -0.648  0.00  0.00    +0.000 A 
ATOM     21  C   LIG    1       -7.568   2.505   0.049  0.00  0.00    +0.000 A 
ATOM     22  C   LIG    1       -6.859   3.472   0.740  0.00  0.00    +0.000 A 
ATOM     23  C   LIG    1       -5.480   3.454   0.738  0.00  0.00    +0.060 A 
ENDBRANCH   2  18
TORSDOF 2
