REMARK  Name = ZINCnE000001SvFK.0
REMARK                            x       y       z     vdW  Elec       q    Type
REMARK                         _______ _______ _______ _____ _____    ______ ____
ROOT
ATOM      1  C   LIG    1       -3.064   3.668   2.970  0.00  0.00    +0.300 A 
ATOM      2  N   LIG    1       -2.324   3.456   4.015  0.00  0.00    -0.360 NA
ATOM      3  N   LIG    1       -2.729   3.909   5.122  0.00  0.00    -0.220 NA
ATOM      4  C   LIG    1       -3.861   4.538   5.111  0.00  0.00    -0.080 A 
ATOM      5  S   LIG    1       -4.457   4.541   3.451  0.00  0.00    -0.010 S 
ENDROOT
BRANCH   1   8
ATOM      6  O   LIG    1       -0.873   2.316   2.326  0.00  0.00    -0.560 OA
ATOM      7  C   LIG    1       -1.643   2.567   1.423  0.00  0.00    +0.460 C 
ATOM      8  N   LIG    1       -2.777   3.250   1.675  0.00  0.00    -0.680 NA
BRANCH   7   9
ATOM      9  C   LIG    1       -1.332   2.114   0.020  0.00  0.00    +0.100 C 
BRANCH   9  10
ATOM     10  C   LIG    1       -0.017   1.377   0.010  0.00  0.00    -0.080 A 
ATOM     11  C   LIG    1        0.002  -0.004   0.002  0.00  0.00    +0.040 A 
ATOM     12  C   LIG    1        1.208  -0.680  -0.014  0.00  0.00    -0.010 A 
ATOM     13  C   LIG    1        2.397   0.026  -0.021  0.00  0.00    +0.030 A 
ATOM     14  C   LIG    1        2.381   1.408  -0.013  0.00  0.00    -0.030 A 
ATOM     15  C   LIG    1        1.173   2.086   0.002  0.00  0.00    +0.110 A 
ATOM     16  F   LIG    1        1.156   3.437   0.009  0.00  0.00    -0.140 F 
ENDBRANCH   9  10
ENDBRANCH   7   9
ENDBRANCH   1   8
BRANCH   4  17
ATOM     17  C   LIG    1       -4.545   5.157   6.303  0.00  0.00    +0.190 C 
BRANCH  17  18
ATOM     18  C   LIG    1       -4.091   6.586   6.457  0.00  0.00    -0.070 A 
ATOM     19  C   LIG    1       -2.988   6.881   7.236  0.00  0.00    +0.020 A 
ATOM     20  C   LIG    1       -2.569   8.191   7.373  0.00  0.00    +0.000 A 
ATOM     21  C   LIG    1       -3.260   9.207   6.740  0.00  0.00    -0.010 A 
ATOM     22  C   LIG    1       -4.366   8.913   5.965  0.00  0.00    +0.000 A 
ATOM     23  C   LIG    1       -4.782   7.602   5.824  0.00  0.00    +0.010 A 
ENDBRANCH  17  18
ENDBRANCH   4  17
TORSDOF 5
