REMARK  Name = ZINCpk00000xXFwu.0
REMARK                            x       y       z     vdW  Elec       q    Type
REMARK                         _______ _______ _______ _____ _____    ______ ____
ROOT
ATOM      1  C   LIG    1       -3.455   7.332   1.528  0.00  0.00    +0.140 C 
ATOM      2  C   LIG    1       -2.172   8.160   1.437  0.00  0.00    +0.050 C 
ATOM      3  C   LIG    1       -0.961   7.225   1.395  0.00  0.00    +0.030 C 
ATOM      4  C   LIG    1       -1.051   6.334   0.158  0.00  0.00    +0.260 C 
ATOM      5  N   LIG    1       -2.348   5.643   0.159  0.00  0.00    -0.590 N 
ATOM      6  C   LIG    1       -2.411   4.301   0.050  0.00  0.00    +0.570 C 
ATOM      7  O   LIG    1       -3.491   3.747  -0.013  0.00  0.00    -0.520 OA
ATOM      8  C   LIG    1       -3.574   6.442   0.286  0.00  0.00    +0.280 C 
ENDROOT
BRANCH   6   9
ATOM      9  C   LIG    1       -1.168   3.504   0.006  0.00  0.00    -0.170 A 
ATOM     10  C   LIG    1       -1.008   2.407   0.846  0.00  0.00    +0.150 A 
ATOM     11  C   LIG    1        0.196   1.687   0.768  0.00  0.00    -0.080 A 
ATOM     12  C   LIG    1        0.432   0.572   1.589  0.00  0.00    +0.040 A 
ATOM     13  C   LIG    1        1.608  -0.107   1.483  0.00  0.00    +0.050 A 
ATOM     14  C   LIG    1        2.582   0.291   0.571  0.00  0.00    +0.020 A 
ATOM     15  C   LIG    1        2.388   1.369  -0.241  0.00  0.00    +0.120 A 
ATOM     16  F   LIG    1        3.346   1.738  -1.119  0.00  0.00    -0.120 F 
ATOM     17  C   LIG    1        1.185   2.095  -0.162  0.00  0.00    +0.110 A 
ATOM     18  N   LIG    1        0.972   3.156  -0.949  0.00  0.00    -0.460 NA
ATOM     19  C   LIG    1       -0.138   3.845  -0.889  0.00  0.00    +0.330 A 
ENDBRANCH   6   9
BRANCH   1  20
ATOM     20  O   LIG    1       -3.412   6.513   2.699  0.00  0.00    -0.550 OA
ATOM     21  H   LIG    1       -4.195   5.958   2.819  0.00  0.00    +0.390 HD
ENDBRANCH   1  20
BRANCH   1  22
ATOM     22  C   LIG    1       -4.663   8.268   1.603  0.00  0.00    +0.050 C 
BRANCH  22  26
ATOM     23  C   LIG    1       -8.352   7.274   1.848  0.00  0.00    +0.280 C 
ATOM     24  N   LIG    1       -7.123   8.068   1.764  0.00  0.00    -0.730 N 
ATOM     25  H   LIG    1       -7.171   9.037   1.763  0.00  0.00    +0.400 HD
ATOM     26  C   LIG    1       -5.927   7.452   1.689  0.00  0.00    +0.510 C 
ATOM     27  O   LIG    1       -5.867   6.240   1.690  0.00  0.00    -0.530 OA
ENDBRANCH  22  26
ENDBRANCH   1  22
TORSDOF 4
