REMARK  Name = ZINCtj00000sf6cj.0
REMARK                            x       y       z     vdW  Elec       q    Type
REMARK                         _______ _______ _______ _____ _____    ______ ____
ROOT
ATOM      1  C   LIG    1        6.780  -1.799   0.730  0.00  0.00    +0.190 C 
ATOM      2  C   LIG    1        6.294  -3.031   1.524  0.00  0.00    +0.210 C 
ATOM      3  N   LIG    1        5.747  -2.470   2.786  0.00  0.00    -0.450 N 
ATOM      4  C   LIG    1        5.042  -1.233   2.361  0.00  0.00    +0.220 C 
ATOM      5  C   LIG    1        5.957  -0.617   1.281  0.00  0.00    +0.200 C 
ENDROOT
BRANCH   3   6
ATOM      6  C   LIG    1        4.870  -3.360   3.385  0.00  0.00    +0.380 A 
ATOM      7  C   LIG    1        3.720  -3.782   2.715  0.00  0.00    -0.190 A 
ATOM      8  C   LIG    1        2.877  -4.674   3.348  0.00  0.00    +0.390 A 
ATOM      9  N   LIG    1        3.176  -5.092   4.569  0.00  0.00    -0.560 NA
ATOM     10  C   LIG    1        4.271  -4.671   5.185  0.00  0.00    +0.580 A 
ATOM     11  N   LIG    1        5.108  -3.820   4.609  0.00  0.00    -0.540 NA
BRANCH  10  12
ATOM     12  N   LIG    1        4.548  -5.131   6.460  0.00  0.00    -0.580 N 
ATOM     13  C   LIG    1        3.635  -6.073   7.113  0.00  0.00    +0.330 C 
ATOM     14  C   LIG    1        5.754  -4.678   7.157  0.00  0.00    +0.320 C 
ENDBRANCH  10  12
ENDBRANCH   3   6
BRANCH   5  15
ATOM     15  N   LIG    1        5.149  -0.016   0.211  0.00  0.00    -0.490 N 
ATOM     16  H   LIG    1        5.749   0.245  -0.557  0.00  0.00    +0.440 HD
ATOM     17  H   LIG    1        4.464  -0.684  -0.109  0.00  0.00    +0.420 HD
BRANCH  15  18
ATOM     18  C   LIG    1        4.466   1.179   0.725  0.00  0.00    +0.150 C 
ATOM     19  C   LIG    1        3.688   1.954  -0.350  0.00  0.00    +0.170 C 
ATOM     20  C   LIG    1        2.485   1.057  -0.015  0.00  0.00    +0.050 C 
ATOM     21  C   LIG    1        3.106   0.875   1.380  0.00  0.00    +0.130 C 
BRANCH  20  22
ATOM     22  C   LIG    1        1.169   1.792   0.001  0.00  0.00    +0.120 A 
ATOM     23  C   LIG    1       -0.013   1.076   0.008  0.00  0.00    -0.030 A 
ATOM     24  C   LIG    1       -1.218   1.762   0.017  0.00  0.00    +0.080 A 
ATOM     25  C   LIG    1       -1.188   3.147   0.029  0.00  0.00    +0.000 A 
ATOM     26  C   LIG    1        0.033   3.795   0.021  0.00  0.00    +0.280 A 
ATOM     27  N   LIG    1        1.159   3.110   0.007  0.00  0.00    -0.470 NA
ENDBRANCH  20  22
BRANCH  20  28
ATOM     28  C   LIG    1        2.437  -0.184  -0.806  0.00  0.00    +0.180 C 
ATOM     29  N   LIG    1        2.400  -1.142  -1.416  0.00  0.00    -0.360 NA
ENDBRANCH  20  28
ENDBRANCH  15  18
ENDBRANCH   5  15
BRANCH   1  31
ATOM     30  C   LIG    1        7.630  -2.513  -1.395  0.00  0.00    +0.250 C 
ATOM     31  O   LIG    1        6.525  -1.976  -0.664  0.00  0.00    -0.400 OA
ENDBRANCH   1  31
TORSDOF 7
