REMARK  Name = ZINCvU00000005NJ.0
REMARK                            x       y       z     vdW  Elec       q    Type
REMARK                         _______ _______ _______ _____ _____    ______ ____
ROOT
ATOM      1  C   LIG    1       -2.786   2.229  -7.061  0.00  0.00    +0.100 C 
ATOM      2  C   LIG    1       -2.752   2.512  -5.581  0.00  0.00    -0.100 A 
ATOM      3  C   LIG    1       -3.785   3.224  -4.988  0.00  0.00    +0.100 A 
ATOM      4  C   LIG    1       -3.771   3.496  -3.639  0.00  0.00    +0.020 A 
ATOM      5  C   LIG    1       -2.712   3.056  -2.845  0.00  0.00    +0.130 A 
ATOM      6  O   LIG    1       -2.720   3.345  -1.520  0.00  0.00    -0.180 OA
ATOM      7  C   LIG    1       -1.837   2.738  -0.703  0.00  0.00    +0.090 A 
ATOM      8  C   LIG    1       -0.775   2.014  -1.172  0.00  0.00    -0.230 A 
ATOM      9  C   LIG    1       -0.018   1.503   0.010  0.00  0.00    +0.380 C 
ATOM     10  N   LIG    1       -0.741   1.994   1.195  0.00  0.00    -0.500 N 
ATOM     11  C   LIG    1       -0.546   1.849  -2.611  0.00  0.00    +0.460 A 
ATOM     12  O   LIG    1        0.471   1.363  -3.073  0.00  0.00    -0.420 OA
ATOM     13  C   LIG    1       -1.800   2.713   0.769  0.00  0.00    +0.570 C 
ATOM     14  O   LIG    1       -2.607   3.260   1.494  0.00  0.00    -0.450 OA
ATOM     15  C   LIG    1       -1.672   2.330  -3.450  0.00  0.00    -0.200 A 
ATOM     16  C   LIG    1       -1.696   2.064  -4.819  0.00  0.00    +0.120 A 
ENDROOT
BRANCH  10  17
ATOM     17  C   LIG    1       -0.394   1.760   2.518  0.00  0.00    +0.260 A 
ATOM     18  N   LIG    1        0.628   1.067   2.933  0.00  0.00    -0.270 NA
ATOM     19  N   LIG    1        0.793   0.957   4.179  0.00  0.00    -0.240 NA
ATOM     20  C   LIG    1       -0.062   1.538   4.957  0.00  0.00    +0.010 A 
ATOM     21  C   LIG    1       -0.041   1.526   6.464  0.00  0.00    +0.220 C 
ATOM     22  S   LIG    1       -1.253   2.353   3.942  0.00  0.00    +0.140 S 
ENDBRANCH  10  17
BRANCH   9  23
ATOM     23  C   LIG    1        0.002  -0.004   0.002  0.00  0.00    -0.100 A 
ATOM     24  C   LIG    1       -1.102  -0.713   0.437  0.00  0.00    +0.010 A 
ATOM     25  C   LIG    1       -1.085  -2.095   0.426  0.00  0.00    +0.010 A 
ATOM     26  C   LIG    1        0.040  -2.768  -0.012  0.00  0.00    -0.060 A 
ATOM     27  C   LIG    1        1.146  -2.060  -0.443  0.00  0.00    +0.020 A 
ATOM     28  C   LIG    1        1.127  -0.678  -0.435  0.00  0.00    +0.060 A 
BRANCH  26  29
ATOM     29  C   LIG    1        0.060  -4.275  -0.021  0.00  0.00    +0.020 C 
ATOM     30  C   LIG    1       -1.058  -4.795  -0.926  0.00  0.00    +0.040 C 
ATOM     31  C   LIG    1       -0.151  -4.796   1.402  0.00  0.00    +0.040 C 
ENDBRANCH  26  29
ENDBRANCH   9  23
TORSDOF 3
