REMARK  Name = ZINCvU0000000CiB.0
REMARK                            x       y       z     vdW  Elec       q    Type
REMARK                         _______ _______ _______ _____ _____    ______ ____
ROOT
ATOM      1  C   LIG    1        6.822   0.485  -1.889  0.00  0.00    -0.110 A 
ATOM      2  C   LIG    1        6.727   1.873  -1.762  0.00  0.00    +0.040 A 
ATOM      3  C   LIG    1        7.695   2.682  -2.311  0.00  0.00    +0.050 A 
ATOM      4  C   LIG    1        8.769   2.115  -3.004  0.00  0.00    +0.000 A 
ATOM      5  C   LIG    1        8.861   0.726  -3.135  0.00  0.00    +0.080 A 
ATOM      6  C   LIG    1        7.895  -0.083  -2.581  0.00  0.00    +0.090 A 
ENDROOT
BRANCH   4   7
ATOM      7  C   LIG    1        9.806   2.982  -3.597  0.00  0.00    +0.200 A 
ATOM      8  N   LIG    1       10.862   2.583  -4.270  0.00  0.00    -0.260 NA
ATOM      9  N   LIG    1       11.546   3.609  -4.637  0.00  0.00    -0.270 NA
ATOM     10  C   LIG    1       10.953   4.704  -4.214  0.00  0.00    +0.220 A 
ATOM     11  O   LIG    1        9.840   4.330  -3.552  0.00  0.00    -0.210 OA
BRANCH  10  12
ATOM     12  C   LIG    1       11.419   6.089  -4.428  0.00  0.00    -0.040 A 
ATOM     13  C   LIG    1       10.683   7.162  -3.924  0.00  0.00    +0.050 A 
ATOM     14  C   LIG    1       11.126   8.454  -4.124  0.00  0.00    +0.000 A 
ATOM     15  C   LIG    1       12.292   8.686  -4.832  0.00  0.00    +0.050 A 
ATOM     16  C   LIG    1       13.024   7.627  -5.339  0.00  0.00    +0.020 A 
ATOM     17  C   LIG    1       12.595   6.331  -5.142  0.00  0.00    -0.020 A 
ATOM     18  C   LIG    1       13.393   5.179  -5.695  0.00  0.00    +0.110 C 
ENDBRANCH  10  12
ENDBRANCH   4   7
BRANCH   1  21
ATOM     19  N   LIG    1        4.750   0.163  -0.626  0.00  0.00    -0.720 N 
ATOM     20  H   LIG    1        4.686   1.127  -0.535  0.00  0.00    +0.400 HD
ATOM     21  C   LIG    1        5.784  -0.384  -1.295  0.00  0.00    +0.560 C 
ATOM     22  O   LIG    1        5.864  -1.591  -1.409  0.00  0.00    -0.520 OA
BRANCH  19  23
ATOM     23  C   LIG    1        3.721  -0.698  -0.038  0.00  0.00    +0.300 C 
ATOM     24  C   LIG    1        4.153  -1.120   1.368  0.00  0.00    +0.040 C 
BRANCH  23  30
ATOM     25  C   LIG    1        1.214  -0.630   0.013  0.00  0.00    +0.140 A 
ATOM     26  C   LIG    1        0.018   0.068   0.087  0.00  0.00    -0.070 A 
ATOM     27  C   LIG    1        0.029   1.446   0.189  0.00  0.00    +0.050 A 
ATOM     28  C   LIG    1        1.231   2.129   0.218  0.00  0.00    -0.020 A 
ATOM     29  C   LIG    1        2.425   1.435   0.145  0.00  0.00    +0.040 A 
ATOM     30  C   LIG    1        2.419   0.058   0.043  0.00  0.00    -0.130 A 
BRANCH  25  32
ATOM     31  C   LIG    1       -0.070  -2.626  -0.113  0.00  0.00    +0.250 C 
ATOM     32  O   LIG    1        1.207  -1.985  -0.088  0.00  0.00    -0.310 OA
ENDBRANCH  25  32
ENDBRANCH  23  30
ENDBRANCH  19  23
ENDBRANCH   1  21
TORSDOF 6
