REMARK  Name = ZINCtV00000L6kAw.0
REMARK                            x       y       z     vdW  Elec       q    Type
REMARK                         _______ _______ _______ _____ _____    ______ ____
ROOT
ATOM      1  P   LIG    1       -3.456   0.318  -3.362  0.00  0.00    +2.650 P 
ATOM      2  N   LIG    1       -2.596   1.083  -2.318  0.00  0.00    -1.190 NA
ENDROOT
BRANCH   1   3
ATOM      3  N   LIG    1       -3.636   1.265  -4.742  0.00  0.00    -0.940 NA
ATOM      4  C   LIG    1       -2.430   1.190  -5.597  0.00  0.00    +0.190 C 
ATOM      5  C   LIG    1       -2.428   2.219  -6.695  0.00  0.00    +0.040 C 
ATOM      6  C   LIG    1       -1.659   3.461  -6.200  0.00  0.00    +0.010 C 
ATOM      7  C   LIG    1       -2.466   4.292  -5.313  0.00  0.00    +0.000 C 
ATOM      8  C   LIG    1       -2.901   3.534  -4.041  0.00  0.00    +0.020 C 
ATOM      9  C   LIG    1       -4.058   2.639  -4.391  0.00  0.00    +0.220 C 
ENDBRANCH   1   3
BRANCH   1  10
ATOM     10  N   LIG    1       -4.971  -0.013  -2.707  0.00  0.00    -0.850 NA
ATOM     11  C   LIG    1       -5.715  -0.974  -3.552  0.00  0.00    +0.170 C 
ATOM     12  C   LIG    1       -7.163  -1.093  -3.163  0.00  0.00    +0.040 C 
ATOM     13  C   LIG    1       -7.986  -0.119  -4.032  0.00  0.00    +0.000 C 
ATOM     14  C   LIG    1       -7.889   1.258  -3.559  0.00  0.00    +0.010 C 
ATOM     15  C   LIG    1       -6.440   1.786  -3.596  0.00  0.00    -0.010 C 
ATOM     16  C   LIG    1       -5.702   1.238  -2.404  0.00  0.00    +0.230 C 
ENDBRANCH   1  10
BRANCH   1  18
ATOM     17  C   LIG    1       -3.294  -1.843  -5.043  0.00  0.00    +0.050 C 
ATOM     18  C   LIG    1       -2.629  -1.246  -3.801  0.00  0.00    -0.670 C 
ATOM     19  C   LIG    1       -2.747  -2.230  -2.636  0.00  0.00    +0.080 C 
ATOM     20  C   LIG    1       -1.151  -0.977  -4.094  0.00  0.00    +0.060 C 
ENDBRANCH   1  18
BRANCH   2  21
ATOM     21  C   LIG    1       -2.711   0.801  -1.039  0.00  0.00    +0.610 C 
ATOM     22  S   LIG    1       -3.891  -0.322  -0.513  0.00  0.00    -0.750 S 
BRANCH  21  23
ATOM     23  N   LIG    1       -1.901   1.397  -0.143  0.00  0.00    -0.550 N 
ATOM     24  C   LIG    1       -2.053   1.066   1.256  0.00  0.00    +0.290 C 
ATOM     25  C   LIG    1       -3.086   2.019   1.906  0.00  0.00    +0.010 C 
ATOM     26  C   LIG    1       -2.522   3.371   2.035  0.00  0.00    +0.000 C 
ATOM     27  C   LIG    1       -2.180   4.037   0.705  0.00  0.00    +0.010 C 
ATOM     28  C   LIG    1       -0.800   3.606   0.271  0.00  0.00    +0.000 C 
ATOM     29  C   LIG    1       -0.894   2.361  -0.629  0.00  0.00    +0.270 C 
ENDBRANCH  21  23
ENDBRANCH   2  21
TORSDOF 5
