REMARK  Name = ZINCpe000000TKBC.0
REMARK                            x       y       z     vdW  Elec       q    Type
REMARK                         _______ _______ _______ _____ _____    ______ ____
ROOT
ATOM      1  C   LIG    1        3.995   4.382   2.387  0.00  0.00    +0.290 C 
ENDROOT
BRANCH   1   2
ATOM      2  N   LIG    1        3.312   3.119   2.675  0.00  0.00    -0.710 N 
ATOM      3  H   LIG    1        3.813   2.364   3.021  0.00  0.00    +0.410 HD
ATOM      4  C   LIG    1        1.986   3.005   2.459  0.00  0.00    +0.510 C 
ATOM      5  O   LIG    1        1.359   3.949   2.025  0.00  0.00    -0.510 OA
BRANCH   4   6
ATOM      6  C   LIG    1        1.283   1.706   2.755  0.00  0.00    +0.370 C 
BRANCH   6   7
ATOM      7  N   LIG    1       -0.141   1.838   2.438  0.00  0.00    -0.360 N 
ATOM      8  N   LIG    1       -1.145   2.264   3.318  0.00  0.00    -0.290 NA
ATOM      9  C   LIG    1       -2.284   2.253   2.675  0.00  0.00    +0.230 A 
ATOM     10  C   LIG    1       -2.042   1.825   1.365  0.00  0.00    -0.120 A 
ATOM     11  C   LIG    1       -0.718   1.572   1.248  0.00  0.00    +0.090 A 
ATOM     12  C   LIG    1       -0.013   1.086   0.008  0.00  0.00    +0.150 C 
ENDBRANCH   6   7
ENDBRANCH   4   6
ENDBRANCH   1   2
BRANCH   1  13
ATOM     13  C   LIG    1        4.376   4.426   0.929  0.00  0.00    +0.450 C 
ATOM     14  O   LIG    1        4.104   3.498   0.205  0.00  0.00    -0.500 OA
BRANCH  13  15
ATOM     15  O   LIG    1        5.017   5.497   0.435  0.00  0.00    -0.360 OA
BRANCH  15  17
ATOM     16  C   LIG    1        6.073   6.766  -1.355  0.00  0.00    +0.070 C 
ATOM     17  C   LIG    1        5.352   5.470  -0.978  0.00  0.00    +0.200 C 
ENDBRANCH  15  17
ENDBRANCH  13  15
ENDBRANCH   1  13
BRANCH   1  18
ATOM     18  C   LIG    1        5.257   4.487   3.246  0.00  0.00    +0.120 C 
BRANCH  18  19
ATOM     19  C   LIG    1        4.869   4.566   4.700  0.00  0.00    -0.080 A 
ATOM     20  C   LIG    1        4.737   3.409   5.443  0.00  0.00    +0.030 A 
ATOM     21  C   LIG    1        4.381   3.476   6.778  0.00  0.00    +0.010 A 
ATOM     22  C   LIG    1        4.155   4.707   7.373  0.00  0.00    +0.080 A 
ATOM     23  C   LIG    1        4.287   5.873   6.624  0.00  0.00    +0.090 A 
ATOM     24  C   LIG    1        4.650   5.798   5.290  0.00  0.00    +0.020 A 
BRANCH  23  25
ATOM     25  O   LIG    1        4.067   7.083   7.204  0.00  0.00    -0.490 OA
ATOM     26  H   LIG    1        4.856   7.481   7.597  0.00  0.00    +0.390 HD
ENDBRANCH  23  25
BRANCH  22  27
ATOM     27  O   LIG    1        3.805   4.775   8.685  0.00  0.00    -0.490 OA
ATOM     28  H   LIG    1        4.557   4.843   9.290  0.00  0.00    +0.390 HD
ENDBRANCH  22  27
ENDBRANCH  18  19
ENDBRANCH   1  18
TORSDOF 10
