REMARK  Name = ZINCnE000008J9Sw.0
REMARK                            x       y       z     vdW  Elec       q    Type
REMARK                         _______ _______ _______ _____ _____    ______ ____
ROOT
ATOM      1  C   LIG    1       -0.045   2.965   4.756  0.00  0.00    +0.280 C 
ATOM      2  C   LIG    1       -0.710   3.840   5.564  0.00  0.00    -0.260 C 
ATOM      3  S   LIG    1       -2.130   4.827   5.168  0.00  0.00    +0.120 S 
ATOM      4  C   LIG    1       -2.233   5.575   6.772  0.00  0.00    +0.260 C 
ATOM      5  N   LIG    1       -1.229   5.071   7.499  0.00  0.00    -0.500 N 
ATOM      6  S   LIG    1       -3.390   6.725   7.290  0.00  0.00    -0.360 S 
ATOM      7  C   LIG    1       -0.413   4.184   6.955  0.00  0.00    +0.550 C 
ATOM      8  O   LIG    1        0.518   3.690   7.566  0.00  0.00    -0.450 OA
ENDROOT
BRANCH   1  12
ATOM      9  C   LIG    1       -1.491   3.099   1.501  0.00  0.00    +0.070 A 
ATOM     10  C   LIG    1       -0.468   2.253   1.245  0.00  0.00    -0.060 A 
ATOM     11  C   LIG    1        0.235   2.076   2.446  0.00  0.00    +0.040 A 
ATOM     12  C   LIG    1       -0.411   2.841   3.396  0.00  0.00    -0.040 A 
ATOM     13  O   LIG    1       -1.450   3.455   2.793  0.00  0.00    -0.150 OA
BRANCH   9  17
ATOM     14  C   LIG    1       -1.653   5.987   1.018  0.00  0.00    +0.070 C 
ATOM     15  C   LIG    1       -2.601   5.075   0.235  0.00  0.00    -0.010 C 
ATOM     16  C   LIG    1       -3.706   4.365   1.020  0.00  0.00    +0.060 C 
ATOM     17  C   LIG    1       -2.509   3.571   0.495  0.00  0.00    +0.040 C 
ENDBRANCH   9  17
ENDBRANCH   1  12
BRANCH   5  18
ATOM     18  C   LIG    1       -1.036   5.498   8.887  0.00  0.00    +0.290 C 
BRANCH  18  19
ATOM     19  C   LIG    1       -0.108   6.715   8.922  0.00  0.00    +0.030 C 
BRANCH  19  20
ATOM     20  C   LIG    1        0.094   7.161  10.371  0.00  0.00    -0.060 C 
BRANCH  20  21
ATOM     21  C   LIG    1        1.008   8.359  10.405  0.00  0.00    +0.490 C 
ATOM     22  O   LIG    1        1.299   8.873  11.471  0.00  0.00    -0.700 OA
ATOM     23  O   LIG    1        1.456   8.813   9.366  0.00  0.00    -0.700 OA
ENDBRANCH  20  21
ENDBRANCH  19  20
ENDBRANCH  18  19
ENDBRANCH   5  18
TORSDOF 6
