REMARK  Name = ZINCkj000005kRe6.0
REMARK                            x       y       z     vdW  Elec       q    Type
REMARK                         _______ _______ _______ _____ _____    ______ ____
ROOT
ATOM      1  N   LIG    1        3.169  -1.930   0.927  0.00  0.00    -0.510 N 
ATOM      2  H   LIG    1        3.702  -1.143   1.264  0.00  0.00    +0.430 HD
ATOM      3  H   LIG    1        3.459  -2.155  -0.013  0.00  0.00    +0.430 HD
ENDROOT
BRANCH   1   4
ATOM      4  C   LIG    1        3.400  -3.088   1.802  0.00  0.00    +0.390 C 
BRANCH   4  11
ATOM      5  C   LIG    1        4.947  -5.134  -0.184  0.00  0.00    +0.170 C 
ATOM      6  C   LIG    1        5.548  -4.326   0.937  0.00  0.00    +0.050 A 
ATOM      7  N   LIG    1        6.797  -4.306   1.303  0.00  0.00    -0.340 NA
ATOM      8  O   LIG    1        6.975  -3.563   2.239  0.00  0.00    +0.120 OA
ATOM      9  C   LIG    1        5.835  -2.972   2.623  0.00  0.00    +0.040 A 
ATOM     10  C   LIG    1        5.665  -1.986   3.750  0.00  0.00    +0.200 C 
ATOM     11  C   LIG    1        4.866  -3.435   1.798  0.00  0.00    -0.300 A 
ENDBRANCH   4  11
ENDBRANCH   1   4
BRANCH   1  12
ATOM     12  C   LIG    1        1.739  -1.591   0.931  0.00  0.00    +0.300 C 
BRANCH  12  13
ATOM     13  C   LIG    1        1.499  -0.386   0.020  0.00  0.00    +0.120 C 
ATOM     14  C   LIG    1        0.002  -0.004   0.002  0.00  0.00    +0.230 C 
ATOM     15  O   LIG    1       -0.017   1.436   0.010  0.00  0.00    -0.360 OA
ATOM     16  C   LIG    1        1.348   1.873  -0.001  0.00  0.00    +0.260 C 
ATOM     17  C   LIG    1        1.504   3.131   0.853  0.00  0.00    +0.040 C 
ATOM     18  C   LIG    1        0.725   4.279   0.205  0.00  0.00    +0.230 C 
ATOM     19  O   LIG    1        1.191   4.473  -1.131  0.00  0.00    -0.370 OA
ATOM     20  C   LIG    1        1.008   3.343  -1.986  0.00  0.00    +0.230 C 
ATOM     21  C   LIG    1        1.799   2.154  -1.433  0.00  0.00    -0.010 C 
ATOM     22  O   LIG    1        2.131   0.802   0.558  0.00  0.00    -0.370 OA
ENDBRANCH  12  13
ENDBRANCH   1  12
TORSDOF 4
