REMARK  Name = ZINCqH0000037WmL.0
REMARK                            x       y       z     vdW  Elec       q    Type
REMARK                         _______ _______ _______ _____ _____    ______ ____
ROOT
ATOM      1  C   LIG    1        0.754  -2.209  -1.493  0.00  0.00    +0.530 C 
ATOM      2  N   LIG    1       -0.536  -2.595  -1.430  0.00  0.00    -0.650 N 
ATOM      3  H   LIG    1       -0.839  -3.359  -1.946  0.00  0.00    +0.410 HD
ATOM      4  O   LIG    1        1.110  -1.194  -0.933  0.00  0.00    -0.480 OA
ENDROOT
BRANCH   1  11
ATOM      5  C   LIG    1        5.056  -3.525  -7.377  0.00  0.00    +0.100 C 
ATOM      6  C   LIG    1        4.577  -3.227  -5.979  0.00  0.00    -0.110 A 
ATOM      7  C   LIG    1        3.229  -3.309  -5.676  0.00  0.00    +0.070 A 
ATOM      8  C   LIG    1        2.794  -3.037  -4.398  0.00  0.00    -0.180 A 
ATOM      9  C   LIG    1        3.692  -2.672  -3.403  0.00  0.00    +0.100 A 
ATOM     10  O   LIG    1        3.053  -2.427  -2.227  0.00  0.00    -0.270 OA
ATOM     11  C   LIG    1        1.752  -3.038  -2.258  0.00  0.00    +0.190 C 
ATOM     12  C   LIG    1        5.047  -2.595  -3.716  0.00  0.00    +0.000 A 
ATOM     13  C   LIG    1        1.415  -3.048  -3.768  0.00  0.00    +0.100 C 
ATOM     14  C   LIG    1        5.482  -2.871  -4.996  0.00  0.00    -0.050 A 
ATOM     15  C   LIG    1        6.950  -2.785  -5.324  0.00  0.00    +0.110 C 
ENDBRANCH   1  11
BRANCH   2  16
ATOM     16  C   LIG    1       -1.435  -1.898  -0.624  0.00  0.00    +0.290 A 
ATOM     17  C   LIG    1       -1.839  -0.609  -0.796  0.00  0.00    -0.190 A 
ATOM     18  C   LIG    1       -2.735  -0.300   0.231  0.00  0.00    +0.260 A 
ATOM     19  N   LIG    1       -2.875  -1.355   0.992  0.00  0.00    -0.260 NA
ATOM     20  C   LIG    1       -1.394   0.320  -1.895  0.00  0.00    +0.130 C 
ATOM     21  N   LIG    1       -2.071  -2.381   0.478  0.00  0.00    -0.330 N 
BRANCH  21  22
ATOM     22  C   LIG    1       -1.940  -3.672   1.008  0.00  0.00    +0.150 A 
ATOM     23  C   LIG    1       -1.864  -3.855   2.382  0.00  0.00    +0.020 A 
ATOM     24  C   LIG    1       -1.735  -5.128   2.902  0.00  0.00    +0.030 A 
ATOM     25  C   LIG    1       -1.682  -6.220   2.055  0.00  0.00    +0.010 A 
ATOM     26  C   LIG    1       -1.757  -6.040   0.685  0.00  0.00    +0.030 A 
ATOM     27  C   LIG    1       -1.885  -4.770   0.160  0.00  0.00    -0.010 A 
ENDBRANCH  21  22
ENDBRANCH   2  16
TORSDOF 3
