REMARK  Name = ZINC650000002yp5.0
REMARK                            x       y       z     vdW  Elec       q    Type
REMARK                         _______ _______ _______ _____ _____    ______ ____
ROOT
ATOM      1  C   LIG    1       -1.488   3.347   2.579  0.00  0.00    +0.190 C 
ATOM      2  C   LIG    1       -2.855   2.661   2.609  0.00  0.00    +0.100 C 
ENDROOT
BRANCH   1   3
ATOM      3  N   LIG    1       -0.697   2.912   3.737  0.00  0.00    -0.640 N 
ATOM      4  H   LIG    1       -0.571   1.912   3.702  0.00  0.00    +0.440 HD
ATOM      5  H   LIG    1       -1.179   3.161   4.588  0.00  0.00    +0.440 HD
ATOM      6  H   LIG    1        0.205   3.365   3.717  0.00  0.00    +0.430 HD
ENDBRANCH   1   3
BRANCH   1   7
ATOM      7  C   LIG    1       -0.756   2.970   1.290  0.00  0.00    +0.210 C 
BRANCH   7   9
ATOM      8  C   LIG    1       -0.013   1.086   0.008  0.00  0.00    +0.240 C 
ATOM      9  O   LIG    1       -0.682   1.547   1.184  0.00  0.00    -0.400 OA
ENDBRANCH   7   9
ENDBRANCH   1   7
TORSDOF 3
