REMARK  Name = ZINCrH000004mReA.0
REMARK                            x       y       z     vdW  Elec       q    Type
REMARK                         _______ _______ _______ _____ _____    ______ ____
ROOT
ATOM      1  C   LIG    1        6.059  -0.686  -0.274  0.00  0.00    -0.080 A 
ATOM      2  C   LIG    1        6.079  -2.082  -0.276  0.00  0.00    +0.030 A 
ATOM      3  C   LIG    1        7.279  -2.752  -0.401  0.00  0.00    +0.120 A 
ATOM      4  C   LIG    1        8.462  -2.043  -0.513  0.00  0.00    -0.650 A 
ATOM      5  C   LIG    1        8.450  -0.660  -0.506  0.00  0.00    +0.130 A 
ATOM      6  C   LIG    1        7.257   0.022  -0.387  0.00  0.00    +0.070 A 
ENDROOT
BRANCH   1   9
ATOM      7  N   LIG    1        3.623  -0.650  -0.037  0.00  0.00    -0.660 N 
ATOM      8  H   LIG    1        3.639  -1.617   0.035  0.00  0.00    +0.410 HD
ATOM      9  C   LIG    1        4.777   0.038  -0.146  0.00  0.00    +0.550 C 
ATOM     10  O   LIG    1        4.764   1.253  -0.139  0.00  0.00    -0.500 OA
BRANCH   7  14
ATOM     11  C   LIG    1       -0.019   1.381  -0.006  0.00  0.00    +0.130 A 
ATOM     12  C   LIG    1        0.134   0.220   0.736  0.00  0.00    -0.040 A 
ATOM     13  C   LIG    1        1.340  -0.454   0.726  0.00  0.00    +0.040 A 
ATOM     14  C   LIG    1        2.400   0.033  -0.027  0.00  0.00    +0.120 A 
ATOM     15  C   LIG    1        2.248   1.196  -0.770  0.00  0.00    +0.080 A 
ATOM     16  C   LIG    1        1.041   1.869  -0.759  0.00  0.00    -0.050 A 
ATOM     17 CL   LIG    1        0.850   3.323  -1.687  0.00  0.00    -0.050 Cl
BRANCH  11  19
ATOM     18  C   LIG    1       -2.252   1.488   0.806  0.00  0.00    +0.250 C 
ATOM     19  O   LIG    1       -1.205   2.047   0.009  0.00  0.00    -0.300 OA
ENDBRANCH  11  19
ENDBRANCH   7  14
ENDBRANCH   1   9
BRANCH   4  20
ATOM     20  S   LIG    1        9.990  -2.907  -0.665  0.00  0.00    +2.690 S 
ATOM     21  O   LIG    1       10.895  -2.011  -1.297  0.00  0.00    -0.950 OA
ATOM     22  O   LIG    1        9.675  -4.190  -1.187  0.00  0.00    -0.950 OA
BRANCH  20  23
ATOM     23  N   LIG    1       10.569  -3.153   0.867  0.00  0.00    -0.990 NA
ATOM     24  C   LIG    1       11.452  -2.166   1.501  0.00  0.00    +0.290 C 
ATOM     25  C   LIG    1       10.854  -1.778   2.862  0.00  0.00    +0.010 C 
ATOM     26  C   LIG    1       10.628  -3.044   3.692  0.00  0.00    +0.020 C 
ATOM     27  C   LIG    1        9.633  -3.958   2.972  0.00  0.00    +0.010 C 
ATOM     28  C   LIG    1       10.213  -4.367   1.615  0.00  0.00    +0.290 C 
ENDBRANCH  20  23
ENDBRANCH   4  20
TORSDOF 5
