REMARK  Name = ZINCrD00000756pN.0
REMARK                            x       y       z     vdW  Elec       q    Type
REMARK                         _______ _______ _______ _____ _____    ______ ____
ROOT
ATOM      1  N   LIG    1       -0.795   1.556  -1.168  0.00  0.00    -0.740 N 
ATOM      2  H   LIG    1       -1.359   2.343  -1.119  0.00  0.00    +0.390 HD
ATOM      3  C   LIG    1       -0.653   0.901  -2.338  0.00  0.00    +0.710 C 
ATOM      4  N   LIG    1       -1.372   1.280  -3.413  0.00  0.00    -0.630 N 
ATOM      5  C   LIG    1       -2.225   2.474  -3.360  0.00  0.00    +0.280 C 
ATOM      6  C   LIG    1       -1.849   3.396  -4.530  0.00  0.00    +0.000 C 
ATOM      7  C   LIG    1       -1.946   2.612  -5.841  0.00  0.00    +0.160 C 
ATOM      8  C   LIG    1       -0.959   1.443  -5.813  0.00  0.00    +0.040 C 
ATOM      9  C   LIG    1       -1.321   0.502  -4.659  0.00  0.00    +0.310 C 
ATOM     10  O   LIG    1        0.123  -0.031  -2.423  0.00  0.00    -0.580 OA
ENDROOT
BRANCH   1  11
ATOM     11  C   LIG    1       -0.096   1.078   0.028  0.00  0.00    +0.340 C 
ATOM     12  C   LIG    1        1.324   1.646   0.050  0.00  0.00    +0.030 C 
BRANCH  11  19
ATOM     13  C   LIG    1        0.138  -0.195   2.921  0.00  0.00    +0.160 C 
ATOM     14  C   LIG    1       -0.736   0.971   2.535  0.00  0.00    +0.090 A 
ATOM     15  N   LIG    1       -1.527   1.636   3.338  0.00  0.00    -0.290 NA
ATOM     16  N   LIG    1       -2.166   2.636   2.594  0.00  0.00    -0.370 N 
ATOM     17  C   LIG    1       -1.727   2.551   1.321  0.00  0.00    +0.230 A 
ATOM     18  C   LIG    1       -3.139   3.604   3.107  0.00  0.00    +0.360 C 
ATOM     19  C   LIG    1       -0.839   1.532   1.258  0.00  0.00    -0.240 A 
ENDBRANCH  11  19
ENDBRANCH   1  11
BRANCH   7  20
ATOM     20  O   LIG    1       -1.631   3.475  -6.936  0.00  0.00    -0.300 OA
BRANCH  20  21
ATOM     21  C   LIG    1       -2.639   4.248  -7.422  0.00  0.00    +0.090 A 
ATOM     22  C   LIG    1       -3.923   4.113  -6.918  0.00  0.00    -0.010 A 
ATOM     23  C   LIG    1       -4.945   4.903  -7.410  0.00  0.00    +0.030 A 
ATOM     24  C   LIG    1       -4.690   5.823  -8.412  0.00  0.00    +0.090 A 
ATOM     25  C   LIG    1       -3.409   5.957  -8.922  0.00  0.00    +0.010 A 
ATOM     26  F   LIG    1       -5.692   6.590  -8.895  0.00  0.00    -0.130 F 
ATOM     27  C   LIG    1       -2.383   5.172  -8.428  0.00  0.00    +0.100 A 
ATOM     28  F   LIG    1       -1.133   5.302  -8.925  0.00  0.00    -0.120 F 
ENDBRANCH  20  21
ENDBRANCH   7  20
TORSDOF 4
