REMARK  Name = ZINCrH000004kR3k.0
REMARK                            x       y       z     vdW  Elec       q    Type
REMARK                         _______ _______ _______ _____ _____    ______ ____
ROOT
ATOM      1  N   LIG    1        1.392   2.275   0.326  0.00  0.00    -0.670 N 
ATOM      2  H   LIG    1        1.534   3.234   0.344  0.00  0.00    +0.410 HD
ATOM      3  C   LIG    1        0.140   1.778   0.371  0.00  0.00    +0.510 C 
ATOM      4  O   LIG    1       -0.044   0.585   0.254  0.00  0.00    -0.510 OA
ENDROOT
BRANCH   1   7
ATOM      5  C   LIG    1        3.535  -0.684   0.819  0.00  0.00    -0.110 A 
ATOM      6  C   LIG    1        2.443   0.180   0.899  0.00  0.00    +0.090 A 
ATOM      7  C   LIG    1        2.487   1.406   0.254  0.00  0.00    +0.130 A 
ATOM      8  C   LIG    1        3.620   1.775  -0.461  0.00  0.00    +0.030 A 
ATOM      9  C   LIG    1        4.704   0.920  -0.536  0.00  0.00    -0.080 A 
ATOM     10  C   LIG    1        5.929   1.329  -1.313  0.00  0.00    +0.110 C 
ATOM     11  C   LIG    1        4.669  -0.304   0.098  0.00  0.00    -0.030 A 
ATOM     12  C   LIG    1        5.854  -1.232   0.012  0.00  0.00    +0.110 C 
BRANCH   5  13
ATOM     13  C   LIG    1        3.494  -1.995   1.500  0.00  0.00    +0.510 C 
ATOM     14  O   LIG    1        4.486  -2.696   1.527  0.00  0.00    -0.500 OA
BRANCH  13  16
ATOM     15  C   LIG    1        2.390  -3.711   2.739  0.00  0.00    +0.260 C 
ATOM     16  O   LIG    1        2.357  -2.413   2.090  0.00  0.00    -0.350 OA
ENDBRANCH  13  16
ENDBRANCH   5  13
ENDBRANCH   1   7
BRANCH   3  17
ATOM     17  C   LIG    1       -1.033   2.706   0.560  0.00  0.00    +0.070 C 
BRANCH  17  18
ATOM     18  C   LIG    1       -2.329   1.894   0.568  0.00  0.00    +0.060 C 
BRANCH  18  19
ATOM     19  C   LIG    1       -3.520   2.836   0.760  0.00  0.00    +0.190 C 
BRANCH  19  20
ATOM     20  C   LIG    1       -4.797   2.037   0.768  0.00  0.00    +0.180 A 
ATOM     21  N   LIG    1       -5.381   1.508   1.817  0.00  0.00    -0.470 NA
ATOM     22  C   LIG    1       -6.481   0.894   1.347  0.00  0.00    +0.180 A 
ATOM     23  N   LIG    1       -6.510   1.077   0.061  0.00  0.00    -0.380 NA
ATOM     24  O   LIG    1       -5.554   1.736  -0.291  0.00  0.00    +0.080 OA
BRANCH  22  25
ATOM     25  C   LIG    1       -7.495   0.133   2.163  0.00  0.00    +0.020 C 
ATOM     26  C   LIG    1       -6.805  -1.033   2.873  0.00  0.00    +0.060 C 
ATOM     27  C   LIG    1       -8.590  -0.407   1.240  0.00  0.00    +0.050 C 
ATOM     28  C   LIG    1       -8.118   1.067   3.202  0.00  0.00    +0.060 C 
ENDBRANCH  22  25
ENDBRANCH  19  20
ENDBRANCH  18  19
ENDBRANCH  17  18
ENDBRANCH   3  17
TORSDOF 8
