REMARK  Name = ZINCkj000005kCq1.0
REMARK                            x       y       z     vdW  Elec       q    Type
REMARK                         _______ _______ _______ _____ _____    ______ ____
ROOT
ATOM      1  N   LIG    1       -3.368   1.862   0.774  0.00  0.00    -0.620 N 
ATOM      2  H   LIG    1       -3.301   1.736  -0.185  0.00  0.00    +0.410 HD
ATOM      3  C   LIG    1       -4.579   1.978   1.356  0.00  0.00    +0.500 C 
ATOM      4  O   LIG    1       -4.661   2.217   2.542  0.00  0.00    -0.510 OA
ENDROOT
BRANCH   1  12
ATOM      5  C   LIG    1       -2.423  -0.387   2.710  0.00  0.00    +0.150 C 
ATOM      6  C   LIG    1       -1.746   0.932   2.440  0.00  0.00    +0.100 A 
ATOM      7  N   LIG    1       -0.636   1.350   2.992  0.00  0.00    -0.270 NA
ATOM      8  N   LIG    1       -0.339   2.619   2.479  0.00  0.00    -0.460 N 
ATOM      9  H   LIG    1        0.428   3.165   2.714  0.00  0.00    +0.450 HD
ATOM     10  C   LIG    1       -1.315   2.951   1.595  0.00  0.00    +0.120 A 
ATOM     11  C   LIG    1       -1.403   4.230   0.804  0.00  0.00    +0.150 C 
ATOM     12  C   LIG    1       -2.201   1.923   1.559  0.00  0.00    -0.040 A 
ENDBRANCH   1  12
BRANCH   3  13
ATOM     13  C   LIG    1       -5.830   1.812   0.532  0.00  0.00    +0.300 C 
BRANCH  13  14
ATOM     14  N   LIG    1       -7.008   1.984   1.392  0.00  0.00    -0.500 N 
ATOM     15  H   LIG    1       -6.995   2.907   1.800  0.00  0.00    +0.430 HD
ATOM     16  H   LIG    1       -6.994   1.291   2.125  0.00  0.00    +0.430 HD
BRANCH  14  17
ATOM     17  C   LIG    1       -8.228   1.822   0.589  0.00  0.00    +0.180 C 
ATOM     18  C   LIG    1       -8.310   0.384   0.072  0.00  0.00    +0.090 C 
BRANCH  17  19
ATOM     19  C   LIG    1       -9.452   2.124   1.455  0.00  0.00    -0.010 C 
ATOM     20  C   LIG    1       -9.494   1.154   2.639  0.00  0.00    -0.010 C 
ATOM     21  C   LIG    1      -10.764   1.410   3.454  0.00  0.00    +0.230 C 
ATOM     22  O   LIG    1      -11.909   1.263   2.612  0.00  0.00    -0.370 OA
ATOM     23  C   LIG    1      -11.947   2.178   1.514  0.00  0.00    +0.230 C 
ATOM     24  C   LIG    1      -10.725   1.951   0.620  0.00  0.00    +0.030 C 
ENDBRANCH  17  19
ENDBRANCH  14  17
ENDBRANCH  13  14
ENDBRANCH   3  13
TORSDOF 5
