REMARK  Name = ZINCtV00000L6jiD.0
REMARK                            x       y       z     vdW  Elec       q    Type
REMARK                         _______ _______ _______ _____ _____    ______ ____
ROOT
ATOM      1  C   LIG    1        3.758   3.076   0.114  0.00  0.00    +0.260 C 
ENDROOT
BRANCH   1   2
ATOM      2  C   LIG    1        4.915   3.916  -0.362  0.00  0.00    +0.500 C 
ATOM      3  N   LIG    1        6.143   3.372  -0.471  0.00  0.00    -0.630 N 
ATOM      4  H   LIG    1        6.269   2.423  -0.315  0.00  0.00    +0.430 HD
ATOM      5  O   LIG    1        4.741   5.082  -0.647  0.00  0.00    -0.450 OA
BRANCH   3   6
ATOM      6  C   LIG    1        7.226   4.168  -0.806  0.00  0.00    +0.340 A 
ATOM      7  N   LIG    1        7.165   5.434  -1.038  0.00  0.00    -0.470 NA
ATOM      8  C   LIG    1        8.309   6.074  -1.349  0.00  0.00    +0.120 A 
ATOM      9  C   LIG    1        8.504   7.441  -1.640  0.00  0.00    +0.090 A 
ATOM     10  C   LIG    1        9.756   7.915  -1.944  0.00  0.00    +0.080 A 
ATOM     11  C   LIG    1       10.848   7.059  -1.971  0.00  0.00    -0.080 A 
ATOM     12  C   LIG    1       10.680   5.720  -1.691  0.00  0.00    +0.110 A 
ATOM     13 BR   LIG    1       12.565   7.730  -2.392  0.00  0.00    -0.030 Br
ATOM     14  C   LIG    1        9.418   5.223  -1.380  0.00  0.00    -0.180 A 
ATOM     15  S   LIG    1        8.878   3.593  -0.982  0.00  0.00    +0.090 S 
ENDBRANCH   3   6
ENDBRANCH   1   2
BRANCH   1  17
ATOM     16  C   LIG    1        3.817   4.120   2.384  0.00  0.00    +0.040 C 
ATOM     17  C   LIG    1        3.909   2.802   1.612  0.00  0.00    -0.010 C 
ATOM     18  C   LIG    1        2.794   1.861   2.073  0.00  0.00    +0.040 C 
ENDBRANCH   1  17
BRANCH   1  19
ATOM     19  N   LIG    1        2.503   3.792  -0.127  0.00  0.00    -0.710 N 
ATOM     20  H   LIG    1        2.441   4.740   0.066  0.00  0.00    +0.420 HD
BRANCH  19  21
ATOM     21  C   LIG    1        1.395   3.108  -0.635  0.00  0.00    +0.260 A 
ATOM     22  C   LIG    1        1.439   1.729  -0.789  0.00  0.00    -0.050 A 
ATOM     23  C   LIG    1        0.342   1.056  -1.292  0.00  0.00    +0.130 A 
ATOM     24  C   LIG    1       -0.797   1.755  -1.647  0.00  0.00    -0.230 A 
ATOM     25  C   LIG    1       -0.847   3.128  -1.489  0.00  0.00    +0.140 A 
ATOM     26  C   LIG    1        0.246   3.807  -0.987  0.00  0.00    -0.110 A 
ATOM     27 CL   LIG    1        0.185   5.532  -0.796  0.00  0.00    -0.050 Cl
BRANCH  24  28
ATOM     28  C   LIG    1       -1.989   1.017  -2.200  0.00  0.00    +0.510 C 
ATOM     29  F   LIG    1       -1.555  -0.122  -2.886  0.00  0.00    -0.180 F 
ATOM     30  F   LIG    1       -2.688   1.853  -3.079  0.00  0.00    -0.180 F 
ATOM     31  F   LIG    1       -2.831   0.637  -1.150  0.00  0.00    -0.180 F 
ENDBRANCH  24  28
ENDBRANCH  19  21
ENDBRANCH   1  19
TORSDOF 6
