REMARK  Name = ZINCrH000004t5M4.0
REMARK                            x       y       z     vdW  Elec       q    Type
REMARK                         _______ _______ _______ _____ _____    ______ ____
ROOT
ATOM      1  N   LIG    1        6.858   4.795  -2.174  0.00  0.00    -0.730 N 
ATOM      2  H   LIG    1        7.015   5.336  -1.385  0.00  0.00    +0.410 HD
ATOM      3  C   LIG    1        5.812   3.945  -2.210  0.00  0.00    +0.710 C 
ATOM      4  N   LIG    1        4.940   3.906  -1.183  0.00  0.00    -0.630 N 
ATOM      5  C   LIG    1        5.176   4.699   0.031  0.00  0.00    +0.260 C 
ATOM      6  C   LIG    1        5.117   3.769   1.247  0.00  0.00    +0.020 C 
ATOM      7  C   LIG    1        3.788   3.011   1.240  0.00  0.00    +0.030 C 
ATOM      8  C   LIG    1        3.691   2.157  -0.026  0.00  0.00    +0.030 C 
ATOM      9  C   LIG    1        3.734   3.069  -1.257  0.00  0.00    +0.310 C 
ATOM     10  O   LIG    1        5.656   3.213  -3.168  0.00  0.00    -0.580 OA
ENDROOT
BRANCH   8  11
ATOM     11  C   LIG    1        2.396   1.387  -0.016  0.00  0.00    -0.060 A 
ATOM     12  C   LIG    1        1.191   2.063   0.023  0.00  0.00    +0.040 A 
ATOM     13  C   LIG    1        0.001   1.359   0.033  0.00  0.00    +0.030 A 
ATOM     14  C   LIG    1        0.016  -0.025   0.002  0.00  0.00    +0.070 A 
ATOM     15  C   LIG    1        1.225  -0.703  -0.037  0.00  0.00    +0.070 A 
ATOM     16  F   LIG    1        1.242  -2.054  -0.068  0.00  0.00    -0.130 F 
ATOM     17  F   LIG    1       -1.146  -0.714   0.011  0.00  0.00    -0.130 F 
ATOM     18  C   LIG    1        2.414   0.005  -0.047  0.00  0.00    +0.030 A 
ENDBRANCH   8  11
BRANCH   1  19
ATOM     19  C   LIG    1        7.756   4.900  -3.326  0.00  0.00    +0.390 C 
BRANCH  19  25
ATOM     20  C   LIG    1        8.125   6.770  -5.769  0.00  0.00    +0.320 C 
ATOM     21  N   LIG    1        8.568   7.056  -4.402  0.00  0.00    -0.450 N 
ATOM     22  C   LIG    1        9.210   8.188  -3.977  0.00  0.00    +0.130 A 
ATOM     23  C   LIG    1        9.436   8.035  -2.658  0.00  0.00    +0.140 A 
ATOM     24  N   LIG    1        8.941   6.845  -2.287  0.00  0.00    -0.480 NA
ATOM     25  C   LIG    1        8.416   6.255  -3.326  0.00  0.00    +0.190 A 
ENDBRANCH  19  25
BRANCH  19  26
ATOM     26  C   LIG    1        8.827   3.811  -3.240  0.00  0.00    -0.060 C 
ATOM     27  C   LIG    1        9.037   2.927  -4.471  0.00  0.00    +0.010 C 
ATOM     28  C   LIG    1        8.354   2.355  -3.227  0.00  0.00    +0.050 C 
ENDBRANCH  19  26
ENDBRANCH   1  19
TORSDOF 4
