REMARK  Name = ZINCrg00000fSgAu.0
REMARK                            x       y       z     vdW  Elec       q    Type
REMARK                         _______ _______ _______ _____ _____    ______ ____
ROOT
ATOM      1  N   LIG    1       -1.256   6.663   0.049  0.00  0.00    -0.710 N 
ATOM      2  H   LIG    1       -2.089   6.167   0.055  0.00  0.00    +0.410 HD
ATOM      3  C   LIG    1       -0.079   6.005   0.035  0.00  0.00    +0.560 C 
ATOM      4  O   LIG    1        0.965   6.627   0.028  0.00  0.00    -0.520 OA
ENDROOT
BRANCH   3   5
ATOM      5  C   LIG    1       -0.059   4.527   0.027  0.00  0.00    -0.080 A 
ATOM      6  C   LIG    1        1.157   3.842   0.012  0.00  0.00    +0.070 A 
ATOM      7  C   LIG    1        1.169   2.463   0.004  0.00  0.00    +0.120 A 
ATOM      8  C   LIG    1       -0.022   1.758   0.012  0.00  0.00    -0.660 A 
ATOM      9  C   LIG    1       -1.231   2.430   0.021  0.00  0.00    +0.120 A 
ATOM     10  C   LIG    1       -1.257   3.809   0.035  0.00  0.00    +0.030 A 
BRANCH   8  11
ATOM     11  S   LIG    1        0.002  -0.004   0.002  0.00  0.00    +2.690 S 
ATOM     12  O   LIG    1        1.252  -0.385  -0.556  0.00  0.00    -0.950 OA
ATOM     13  O   LIG    1       -1.247  -0.419  -0.533  0.00  0.00    -0.950 OA
BRANCH  11  14
ATOM     14  N   LIG    1        0.024  -0.503   1.581  0.00  0.00    -1.000 NA
ATOM     15  C   LIG    1        1.302  -0.706   2.267  0.00  0.00    +0.310 C 
ATOM     16  C   LIG    1       -1.235  -0.741   2.292  0.00  0.00    +0.300 C 
ENDBRANCH  11  14
ENDBRANCH   8  11
ENDBRANCH   3   5
BRANCH   1  17
ATOM     17  C   LIG    1       -1.276   8.128   0.057  0.00  0.00    +0.290 C 
ATOM     18  C   LIG    1       -1.143   8.632   1.495  0.00  0.00    +0.080 C 
BRANCH  17  19
ATOM     19  C   LIG    1       -2.576   8.616  -0.528  0.00  0.00    +0.470 C 
ATOM     20  O   LIG    1       -3.401   7.821  -0.913  0.00  0.00    -0.500 OA
BRANCH  19  21
ATOM     21  O   LIG    1       -2.817   9.932  -0.623  0.00  0.00    -0.340 OA
BRANCH  21  22
ATOM     22  C   LIG    1       -4.090  10.330  -1.197  0.00  0.00    +0.360 C 
BRANCH  22  27
ATOM     23  C   LIG    1       -3.854  15.255  -2.462  0.00  0.00    +0.160 C 
ATOM     24  C   LIG    1       -4.090  13.950  -1.746  0.00  0.00    +0.010 A 
ATOM     25  N   LIG    1       -4.616  13.791  -0.566  0.00  0.00    -0.350 NA
ATOM     26  O   LIG    1       -4.681  12.623  -0.260  0.00  0.00    +0.110 OA
ATOM     27  C   LIG    1       -4.182  11.834  -1.222  0.00  0.00    -0.050 A 
ATOM     28  C   LIG    1       -3.783  12.654  -2.223  0.00  0.00    -0.010 A 
ENDBRANCH  22  27
ENDBRANCH  21  22
ENDBRANCH  19  21
ENDBRANCH  17  19
ENDBRANCH   1  17
TORSDOF 8
