REMARK  Name = ZINCrH000004mW1M.0
REMARK                            x       y       z     vdW  Elec       q    Type
REMARK                         _______ _______ _______ _____ _____    ______ ____
ROOT
ATOM      1  C   LIG    1       -2.373   2.640   3.670  0.00  0.00    +0.160 A 
ATOM      2  C   LIG    1       -2.569   1.396   3.093  0.00  0.00    -0.070 A 
ATOM      3  C   LIG    1       -1.849   1.034   1.969  0.00  0.00    +0.160 A 
ATOM      4  C   LIG    1       -0.933   1.910   1.419  0.00  0.00    -0.700 A 
ATOM      5  C   LIG    1       -0.728   3.152   1.991  0.00  0.00    +0.170 A 
ATOM      6  C   LIG    1       -1.450   3.524   3.115  0.00  0.00    +0.100 A 
ENDROOT
BRANCH   6   7
ATOM      7  N   LIG    1       -1.248   4.783   3.695  0.00  0.00    -0.660 N 
ATOM      8  H   LIG    1       -1.992   5.257   4.097  0.00  0.00    +0.420 HD
ATOM      9  C   LIG    1       -0.019   5.336   3.693  0.00  0.00    +0.560 C 
ATOM     10  O   LIG    1        0.897   4.781   3.118  0.00  0.00    -0.510 OA
BRANCH   9  11
ATOM     11  C   LIG    1        0.216   6.618   4.390  0.00  0.00    -0.120 A 
ATOM     12  C   LIG    1       -0.835   7.262   5.046  0.00  0.00    +0.050 A 
ATOM     13  C   LIG    1       -0.608   8.456   5.699  0.00  0.00    +0.030 A 
ATOM     14  C   LIG    1        0.654   9.022   5.696  0.00  0.00    +0.060 A 
ATOM     15  C   LIG    1        1.700   8.392   5.042  0.00  0.00    -0.040 A 
ATOM     16 CL   LIG    1        3.280   9.110   5.044  0.00  0.00    -0.050 Cl
ATOM     17  C   LIG    1        1.488   7.194   4.389  0.00  0.00    +0.100 A 
ENDBRANCH   9  11
ENDBRANCH   6   7
BRANCH   4  18
ATOM     18  S   LIG    1       -0.019   1.441  -0.013  0.00  0.00    +2.690 S 
ATOM     19  O   LIG    1        1.162   2.232  -0.012  0.00  0.00    -0.950 OA
ATOM     20  O   LIG    1       -0.003   0.021  -0.032  0.00  0.00    -0.950 OA
BRANCH  18  21
ATOM     21  N   LIG    1       -0.898   1.917  -1.333  0.00  0.00    -1.000 NA
ATOM     22  C   LIG    1       -1.881   1.011  -1.944  0.00  0.00    +0.290 C 
ATOM     23  C   LIG    1       -3.231   1.739  -2.027  0.00  0.00    +0.010 C 
ATOM     24  C   LIG    1       -3.046   3.061  -2.775  0.00  0.00    +0.010 C 
ATOM     25  C   LIG    1       -2.066   3.951  -2.007  0.00  0.00    +0.010 C 
ATOM     26  C   LIG    1       -0.707   3.250  -1.920  0.00  0.00    +0.290 C 
ENDBRANCH  18  21
ENDBRANCH   4  18
BRANCH   1  28
ATOM     27  C   LIG    1       -4.010   2.041   5.288  0.00  0.00    +0.250 C 
ATOM     28  O   LIG    1       -3.081   2.998   4.775  0.00  0.00    -0.310 OA
ENDBRANCH   1  28
TORSDOF 5
