REMARK  Name = ZINCrH000004scnp.0
REMARK                            x       y       z     vdW  Elec       q    Type
REMARK                         _______ _______ _______ _____ _____    ______ ____
ROOT
ATOM      1  N   LIG    1        1.447   8.467   0.032  0.00  0.00    -0.640 N 
ATOM      2  H   LIG    1        1.045   9.350   0.040  0.00  0.00    +0.420 HD
ATOM      3  C   LIG    1        2.789   8.338   0.019  0.00  0.00    +0.510 C 
ATOM      4  O   LIG    1        3.292   7.234   0.009  0.00  0.00    -0.460 OA
ENDROOT
BRANCH   1  10
ATOM      5  C   LIG    1       -1.666   8.529   0.061  0.00  0.00    +0.130 C 
ATOM      6  C   LIG    1       -0.771   7.317   0.046  0.00  0.00    -0.240 A 
ATOM      7  C   LIG    1       -1.178   6.027   0.043  0.00  0.00    +0.250 A 
ATOM      8  N   LIG    1       -0.069   5.243   0.029  0.00  0.00    -0.320 N 
ATOM      9  N   LIG    1        1.052   6.083   0.028  0.00  0.00    -0.260 NA
ATOM     10  C   LIG    1        0.634   7.327   0.034  0.00  0.00    +0.310 A 
BRANCH   8  11
ATOM     11  C   LIG    1       -0.050   3.842   0.022  0.00  0.00    +0.170 A 
ATOM     12  C   LIG    1        1.161   3.163   0.007  0.00  0.00    +0.020 A 
ATOM     13  C   LIG    1        1.176   1.782   0.000  0.00  0.00    +0.040 A 
ATOM     14  C   LIG    1       -0.013   1.076   0.008  0.00  0.00    +0.000 A 
ATOM     15  C   LIG    1       -1.220   1.749   0.017  0.00  0.00    +0.040 A 
ATOM     16  C   LIG    1       -1.242   3.130   0.030  0.00  0.00    -0.010 A 
ENDBRANCH   8  11
ENDBRANCH   1  10
BRANCH   3  17
ATOM     17  C   LIG    1        3.664   9.565   0.017  0.00  0.00    +0.150 C 
ATOM     18  C   LIG    1        3.482  10.358   1.335  0.00  0.00    +0.050 C 
ATOM     19  C   LIG    1        4.824  11.133   1.422  0.00  0.00    +0.010 C 
ATOM     20  C   LIG    1        5.843  10.129   0.843  0.00  0.00    +0.180 C 
ATOM     21  N   LIG    1        5.091   9.179   0.002  0.00  0.00    -0.500 NA
BRANCH  21  22
ATOM     22  C   LIG    1        5.617   9.160  -1.369  0.00  0.00    +0.220 C 
BRANCH  22  23
ATOM     23  C   LIG    1        6.987   8.532  -1.373  0.00  0.00    -0.080 A 
ATOM     24  C   LIG    1        8.109   9.321  -1.207  0.00  0.00    +0.010 A 
ATOM     25  C   LIG    1        9.366   8.745  -1.207  0.00  0.00    +0.000 A 
ATOM     26  C   LIG    1        9.500   7.380  -1.381  0.00  0.00    +0.000 A 
ATOM     27  C   LIG    1        8.378   6.592  -1.553  0.00  0.00    +0.000 A 
ATOM     28  C   LIG    1        7.121   7.168  -1.550  0.00  0.00    +0.030 A 
ENDBRANCH  22  23
ENDBRANCH  21  22
ENDBRANCH   3  17
TORSDOF 5
