REMARK  Name = ZINCtV000002KO1K.0
REMARK                            x       y       z     vdW  Elec       q    Type
REMARK                         _______ _______ _______ _____ _____    ______ ____
ROOT
ATOM      1  C   LIG    1       -2.516   1.668  -0.021  0.00  0.00    +0.220 A 
ATOM      2  N   LIG    1       -2.653   0.365  -0.107  0.00  0.00    -0.240 NA
ATOM      3  N   LIG    1       -3.895   0.048  -0.013  0.00  0.00    -0.280 NA
ATOM      4  C   LIG    1       -4.628   1.129   0.128  0.00  0.00    +0.150 A 
ATOM      5  N   LIG    1       -3.777   2.198   0.128  0.00  0.00    -0.440 N 
ENDROOT
BRANCH   1  12
ATOM      6 CL   LIG    1       -0.645   0.927  -2.271  0.00  0.00    -0.040 Cl
ATOM      7  C   LIG    1       -0.315   2.152  -1.087  0.00  0.00    +0.000 A 
ATOM      8  C   LIG    1        0.865   2.866  -1.139  0.00  0.00    +0.030 A 
ATOM      9  C   LIG    1        1.129   3.843  -0.196  0.00  0.00    +0.050 A 
ATOM     10  C   LIG    1        0.213   4.112   0.806  0.00  0.00    +0.030 A 
ATOM     11  C   LIG    1       -0.971   3.407   0.870  0.00  0.00    +0.040 A 
ATOM     12  C   LIG    1       -1.247   2.423  -0.081  0.00  0.00    -0.010 A 
ENDBRANCH   1  12
BRANCH   5  13
ATOM     13  C   LIG    1       -4.132   3.613   0.260  0.00  0.00    +0.230 C 
ATOM     14  C   LIG    1       -4.853   3.854   1.602  0.00  0.00    +0.030 C 
ATOM     15  C   LIG    1       -5.933   4.913   1.268  0.00  0.00    +0.040 C 
ATOM     16  C   LIG    1       -6.410   4.483  -0.141  0.00  0.00    +0.040 C 
ATOM     17  C   LIG    1       -5.122   4.013  -0.849  0.00  0.00    +0.030 C 
ENDBRANCH   5  13
BRANCH   4  18
ATOM     18  S   LIG    1       -6.381   1.190   0.288  0.00  0.00    +0.060 S 
BRANCH  18  19
ATOM     19  C   LIG    1       -6.767  -0.576   0.198  0.00  0.00    +0.260 C 
BRANCH  19  20
ATOM     20  C   LIG    1       -8.256  -0.772   0.316  0.00  0.00    +0.190 A 
ATOM     21  N   LIG    1       -9.118  -0.794  -0.669  0.00  0.00    -0.450 NA
ATOM     22  C   LIG    1      -10.325  -0.997  -0.092  0.00  0.00    +0.240 A 
ATOM     23  N   LIG    1      -10.126  -1.077   1.199  0.00  0.00    -0.360 NA
ATOM     24  O   LIG    1       -8.946  -0.950   1.447  0.00  0.00    +0.100 OA
BRANCH  22  25
ATOM     25  C   LIG    1      -11.628  -1.102  -0.790  0.00  0.00    -0.050 A 
ATOM     26  C   LIG    1      -11.750  -1.002  -2.126  0.00  0.00    -0.020 A 
ATOM     27  S   LIG    1      -13.383  -1.173  -2.591  0.00  0.00    +0.210 S 
ATOM     28  C   LIG    1      -13.893  -1.372  -0.921  0.00  0.00    -0.060 A 
ATOM     29  C   LIG    1      -12.834  -1.306  -0.117  0.00  0.00    +0.040 A 
ENDBRANCH  22  25
ENDBRANCH  19  20
ENDBRANCH  18  19
ENDBRANCH   4  18
TORSDOF 6
