REMARK  Name = ZINCrH000004r1z0.0
REMARK                            x       y       z     vdW  Elec       q    Type
REMARK                         _______ _______ _______ _____ _____    ______ ____
ROOT
ATOM      1  N   LIG    1       -3.676   3.179   0.051  0.00  0.00    -0.640 N 
ATOM      2  H   LIG    1       -3.664   2.209   0.046  0.00  0.00    +0.410 HD
ATOM      3  C   LIG    1       -2.517   3.866   0.044  0.00  0.00    +0.570 C 
ATOM      4  O   LIG    1       -2.531   5.083   0.049  0.00  0.00    -0.490 OA
ENDROOT
BRANCH   3   5
ATOM      5  C   LIG    1       -1.231   3.145   0.029  0.00  0.00    -0.100 A 
ATOM      6  C   LIG    1       -1.216   1.747   0.017  0.00  0.00    +0.050 A 
ATOM      7  C   LIG    1       -0.013   1.076   0.008  0.00  0.00    +0.090 A 
ATOM      8  C   LIG    1        1.181   1.785   0.000  0.00  0.00    -0.110 A 
ATOM      9  S   LIG    1        2.721   0.924  -0.023  0.00  0.00    -0.060 S 
ATOM     10  C   LIG    1        3.782   2.084  -0.935  0.00  0.00    +0.150 C 
ATOM     11  C   LIG    1        3.552   3.474  -0.410  0.00  0.00    +0.520 C 
ATOM     12  N   LIG    1        2.367   3.914   0.008  0.00  0.00    -0.660 N 
ATOM     13  H   LIG    1        2.326   4.824   0.341  0.00  0.00    +0.420 HD
ATOM     14  O   LIG    1        4.495   4.234  -0.364  0.00  0.00    -0.510 OA
ATOM     15  C   LIG    1        1.180   3.184   0.009  0.00  0.00    +0.160 A 
ATOM     16  C   LIG    1       -0.030   3.859   0.022  0.00  0.00    +0.080 A 
ENDBRANCH   3   5
BRANCH   1  22
ATOM     17  N   LIG    1       -6.130   3.299   0.073  0.00  0.00    -0.340 N 
ATOM     18  N   LIG    1       -7.071   4.337   0.086  0.00  0.00    -0.280 NA
ATOM     19  C   LIG    1       -6.428   5.477   0.086  0.00  0.00    +0.100 A 
ATOM     20  C   LIG    1       -5.056   5.212   0.078  0.00  0.00    -0.080 A 
ATOM     21  C   LIG    1       -7.061   6.844   0.098  0.00  0.00    +0.170 C 
ATOM     22  C   LIG    1       -4.891   3.861   0.065  0.00  0.00    +0.310 A 
BRANCH  17  27
ATOM     23  C   LIG    1       -7.283  -2.258   0.057  0.00  0.00    +0.090 C 
ATOM     24  C   LIG    1       -6.977  -0.783   0.062  0.00  0.00    -0.090 A 
ATOM     25  C   LIG    1       -7.792   0.089   0.760  0.00  0.00    +0.040 A 
ATOM     26  C   LIG    1       -7.513   1.442   0.766  0.00  0.00    +0.040 A 
ATOM     27  C   LIG    1       -6.415   1.926   0.069  0.00  0.00    +0.150 A 
ATOM     28  C   LIG    1       -5.601   1.049  -0.636  0.00  0.00    -0.030 A 
ATOM     29  C   LIG    1       -5.881  -0.303  -0.633  0.00  0.00    +0.050 A 
ENDBRANCH  17  27
ENDBRANCH   1  22
TORSDOF 3
