REMARK  Name = ZINCpe00000gMGoM.0
REMARK                            x       y       z     vdW  Elec       q    Type
REMARK                         _______ _______ _______ _____ _____    ______ ____
ROOT
ATOM      1  C   LIG    1        1.097   1.501  -5.273  0.00  0.00    +0.080 C 
ATOM      2  C   LIG    1        1.804   1.634  -3.923  0.00  0.00    +0.190 C 
ENDROOT
BRANCH   2   3
ATOM      3  C   LIG    1        3.070   0.816  -3.936  0.00  0.00    +0.520 C 
ATOM      4  N   LIG    1        4.077   1.145  -4.769  0.00  0.00    -0.670 N 
ATOM      5  H   LIG    1        3.962   1.867  -5.406  0.00  0.00    +0.420 HD
ATOM      6  O   LIG    1        3.182  -0.139  -3.197  0.00  0.00    -0.490 OA
BRANCH   4   7
ATOM      7  C   LIG    1        5.288   0.446  -4.713  0.00  0.00    +0.140 A 
ATOM      8  C   LIG    1        6.485   1.111  -4.949  0.00  0.00    +0.030 A 
ATOM      9  C   LIG    1        7.685   0.426  -4.890  0.00  0.00    +0.040 A 
ATOM     10  C   LIG    1        7.700  -0.924  -4.608  0.00  0.00    +0.060 A 
ATOM     11  C   LIG    1        6.502  -1.603  -4.375  0.00  0.00    -0.010 A 
ATOM     12  C   LIG    1        5.292  -0.910  -4.429  0.00  0.00    +0.080 A 
BRANCH  11  13
ATOM     13  C   LIG    1        6.515  -3.005  -4.082  0.00  0.00    +0.250 C 
ATOM     14  N   LIG    1        6.526  -4.117  -3.850  0.00  0.00    -0.410 NA
ENDBRANCH  11  13
ENDBRANCH   4   7
ENDBRANCH   2   3
BRANCH   2  15
ATOM     15  O   LIG    1        0.929   1.155  -2.868  0.00  0.00    -0.330 OA
BRANCH  15  16
ATOM     16  C   LIG    1        0.112   2.055  -2.299  0.00  0.00    +0.440 C 
ATOM     17  O   LIG    1        0.127   3.205  -2.669  0.00  0.00    -0.470 OA
BRANCH  16  18
ATOM     18  C   LIG    1       -0.826   1.631  -1.197  0.00  0.00    +0.290 C 
ATOM     19  C   LIG    1       -0.016   1.101   0.005  0.00  0.00    +0.060 C 
ATOM     20  C   LIG    1       -0.809   1.637   1.226  0.00  0.00    +0.040 C 
ATOM     21  C   LIG    1       -1.295   3.012   0.699  0.00  0.00    +0.280 C 
ATOM     22  N   LIG    1       -1.602   2.786  -0.725  0.00  0.00    -1.000 NA
BRANCH  22  23
ATOM     23  S   LIG    1       -2.648   3.686  -1.641  0.00  0.00    +2.620 S 
ATOM     24  O   LIG    1       -2.172   3.530  -2.971  0.00  0.00    -0.930 OA
ATOM     25  O   LIG    1       -2.660   4.959  -1.011  0.00  0.00    -0.940 OA
ATOM     26  C   LIG    1       -4.251   2.861  -1.439  0.00  0.00    -0.290 C 
ENDBRANCH  22  23
ENDBRANCH  16  18
ENDBRANCH  15  16
ENDBRANCH   2  15
TORSDOF 7
