REMARK  Name = ZINCkj00000kIZ0K.0
REMARK                            x       y       z     vdW  Elec       q    Type
REMARK                         _______ _______ _______ _____ _____    ______ ____
ROOT
ATOM      1  N   LIG    1       -3.156   1.612   3.271  0.00  0.00    -0.500 N 
ATOM      2  H   LIG    1       -3.244   0.931   4.011  0.00  0.00    +0.420 HD
ATOM      3  H   LIG    1       -3.047   1.137   2.388  0.00  0.00    +0.430 HD
ENDROOT
BRANCH   1   4
ATOM      4  C   LIG    1       -4.363   2.449   3.231  0.00  0.00    +0.150 C 
ATOM      5  C   LIG    1       -4.286   3.398   2.034  0.00  0.00    +0.110 C 
BRANCH   4   6
ATOM      6  C   LIG    1       -5.598   1.556   3.096  0.00  0.00    +0.410 C 
BRANCH   6   7
ATOM      7  N   LIG    1       -5.608   0.568   4.178  0.00  0.00    -0.490 N 
ATOM      8  N   LIG    1       -5.028  -0.708   4.151  0.00  0.00    -0.310 NA
ATOM      9  C   LIG    1       -5.252  -1.270   5.293  0.00  0.00    +0.290 A 
ATOM     10  O   LIG    1       -5.954  -0.425   6.074  0.00  0.00    -0.260 OA
ATOM     11  C   LIG    1       -4.800  -2.652   5.688  0.00  0.00    +0.260 C 
ATOM     12  C   LIG    1       -6.172   0.713   5.396  0.00  0.00    +0.610 A 
ATOM     13  O   LIG    1       -6.770   1.692   5.803  0.00  0.00    -0.460 OA
ENDBRANCH   6   7
ENDBRANCH   4   6
ENDBRANCH   1   4
BRANCH   1  14
ATOM     14  C   LIG    1       -1.982   2.458   3.521  0.00  0.00    +0.330 C 
BRANCH  14  20
ATOM     15  C   LIG    1       -0.149   1.182   2.380  0.00  0.00    +0.150 A 
ATOM     16  C   LIG    1        0.994   0.397   2.421  0.00  0.00    -0.060 A 
ATOM     17  C   LIG    1        1.534   0.028   3.638  0.00  0.00    +0.100 A 
ATOM     18  C   LIG    1        0.936   0.440   4.814  0.00  0.00    -0.010 A 
ATOM     19  C   LIG    1       -0.204   1.222   4.776  0.00  0.00    +0.090 A 
ATOM     20  C   LIG    1       -0.744   1.599   3.562  0.00  0.00    -0.200 A 
BRANCH  15  22
ATOM     21  C   LIG    1       -0.013   1.086   0.008  0.00  0.00    +0.270 C 
ATOM     22  O   LIG    1       -0.682   1.547   1.184  0.00  0.00    -0.330 OA
ENDBRANCH  15  22
ENDBRANCH  14  20
ENDBRANCH   1  14
TORSDOF 6
