REMARK  Name = ZINCpk000000nDXn.0
REMARK                            x       y       z     vdW  Elec       q    Type
REMARK                         _______ _______ _______ _____ _____    ______ ____
ROOT
ATOM      1  C   LIG    1        8.287   1.841   0.606  0.00  0.00    -0.680 A 
ATOM      2  C   LIG    1        8.587   1.235  -0.600  0.00  0.00    +0.160 A 
ATOM      3  C   LIG    1        7.587   0.643  -1.352  0.00  0.00    +0.000 A 
ATOM      4  C   LIG    1        6.284   0.654  -0.902  0.00  0.00    +0.100 A 
ATOM      5  C   LIG    1        5.974   1.265   0.315  0.00  0.00    -0.160 A 
ATOM      6  C   LIG    1        6.986   1.865   1.065  0.00  0.00    +0.190 A 
ENDROOT
BRANCH   5   7
ATOM      7  C   LIG    1        4.579   1.282   0.803  0.00  0.00    +0.560 C 
ATOM      8  N   LIG    1        3.602   0.706   0.074  0.00  0.00    -0.720 N 
ATOM      9  H   LIG    1        3.815   0.281  -0.772  0.00  0.00    +0.400 HD
ATOM     10  O   LIG    1        4.312   1.814   1.863  0.00  0.00    -0.520 OA
BRANCH   8  11
ATOM     11  C   LIG    1        2.220   0.722   0.558  0.00  0.00    +0.250 C 
ATOM     12  C   LIG    1        1.450   1.947  -0.001  0.00  0.00    +0.000 C 
ATOM     13  C   LIG    1       -0.018   1.470   0.010  0.00  0.00    +0.200 C 
ATOM     14  N   LIG    1        0.002  -0.004   0.002  0.00  0.00    -0.520 NA
ATOM     15  C   LIG    1        1.409  -0.456  -0.038  0.00  0.00    +0.180 C 
BRANCH  14  16
ATOM     16  C   LIG    1       -0.754  -0.534  -1.141  0.00  0.00    +0.180 C 
BRANCH  16  17
ATOM     17  C   LIG    1       -2.247  -0.275  -0.929  0.00  0.00    +0.380 C 
ATOM     18  F   LIG    1       -2.470   1.101  -0.821  0.00  0.00    -0.200 F 
ATOM     19  F   LIG    1       -2.668  -0.910   0.244  0.00  0.00    -0.190 F 
ENDBRANCH  16  17
ENDBRANCH  14  16
ENDBRANCH   8  11
ENDBRANCH   5   7
BRANCH   1  20
ATOM     20  S   LIG    1        9.568   2.592   1.555  0.00  0.00    +2.690 S 
ATOM     21  O   LIG    1       10.780   1.965   1.160  0.00  0.00    -0.950 OA
ATOM     22  O   LIG    1        9.109   2.617   2.900  0.00  0.00    -0.950 OA
BRANCH  20  23
ATOM     23  N   LIG    1        9.678   4.171   1.069  0.00  0.00    -1.110 NA
ATOM     24  H   LIG    1       10.482   4.488   0.629  0.00  0.00    +0.420 HD
BRANCH  23  26
ATOM     25  C   LIG    1        9.103   6.486   1.609  0.00  0.00    +0.040 C 
ATOM     26  C   LIG    1        8.560   5.089   1.303  0.00  0.00    +0.230 C 
ATOM     27  C   LIG    1        7.678   5.147   0.054  0.00  0.00    +0.010 C 
ENDBRANCH  23  26
ENDBRANCH  20  23
ENDBRANCH   1  20
TORSDOF 7
