REMARK  Name = ZINCvU000000079C.0
REMARK                            x       y       z     vdW  Elec       q    Type
REMARK                         _______ _______ _______ _____ _____    ______ ____
ROOT
ATOM      1  C   LIG    1        1.576  -1.785  -0.589  0.00  0.00    +0.410 A 
ATOM      2  C   LIG    1        1.624  -0.891   0.509  0.00  0.00    -0.150 A 
ATOM      3  C   LIG    1        0.811  -0.835   1.717  0.00  0.00    -0.010 A 
ATOM      4  C   LIG    1        1.133   0.151   2.552  0.00  0.00    -0.020 A 
ATOM      5  S   LIG    1        2.467   1.103   1.929  0.00  0.00    +0.190 S 
ATOM      6  C   LIG    1        2.588   0.119   0.478  0.00  0.00    +0.090 A 
ATOM      7  N   LIG    1        3.414   0.198  -0.573  0.00  0.00    -0.490 NA
ATOM      8  C   LIG    1        3.330  -0.656  -1.566  0.00  0.00    +0.540 A 
ATOM      9  N   LIG    1        2.437  -1.628  -1.584  0.00  0.00    -0.550 NA
ENDROOT
BRANCH   3  10
ATOM     10  C   LIG    1       -0.283  -1.796   1.993  0.00  0.00    -0.040 A 
ATOM     11  C   LIG    1       -1.319  -1.958   1.074  0.00  0.00    +0.100 A 
ATOM     12  C   LIG    1       -2.333  -2.858   1.333  0.00  0.00    -0.010 A 
ATOM     13  C   LIG    1       -2.329  -3.591   2.509  0.00  0.00    +0.110 A 
ATOM     14  C   LIG    1       -1.304  -3.428   3.428  0.00  0.00    -0.030 A 
ATOM     15  F   LIG    1       -3.326  -4.466   2.760  0.00  0.00    -0.140 F 
ATOM     16  C   LIG    1       -0.283  -2.535   3.175  0.00  0.00    +0.060 A 
ENDBRANCH   3  10
BRANCH   1  20
ATOM     17  C   LIG    1       -0.593  -5.236  -1.576  0.00  0.00    -0.020 C 
ATOM     18  C   LIG    1        0.209  -5.193  -0.272  0.00  0.00    +0.060 C 
ATOM     19  C   LIG    1        1.283  -4.108  -0.374  0.00  0.00    +0.200 C 
ATOM     20  N   LIG    1        0.645  -2.808  -0.620  0.00  0.00    -0.480 N 
ATOM     21  C   LIG    1       -0.092  -2.810  -1.891  0.00  0.00    +0.200 C 
ATOM     22  C   LIG    1       -1.207  -3.857  -1.834  0.00  0.00    +0.060 C 
BRANCH  17  24
ATOM     23  O   LIG    1       -2.775  -5.943  -1.018  0.00  0.00    -0.530 OA
ATOM     24  C   LIG    1       -1.690  -6.262  -1.459  0.00  0.00    +0.520 C 
ATOM     25  N   LIG    1       -1.468  -7.534  -1.844  0.00  0.00    -0.600 N 
ATOM     26  C   LIG    1       -0.203  -7.859  -2.464  0.00  0.00    +0.270 C 
ATOM     27  C   LIG    1       -0.300  -7.661  -3.991  0.00  0.00    -0.000 C 
ATOM     28  C   LIG    1       -1.141  -8.709  -4.589  0.00  0.00    +0.000 C 
ATOM     29  C   LIG    1       -2.590  -8.701  -4.112  0.00  0.00    +0.000 C 
ATOM     30  C   LIG    1       -2.697  -9.480  -2.825  0.00  0.00    +0.020 C 
ATOM     31  C   LIG    1       -2.527  -8.537  -1.620  0.00  0.00    +0.260 C 
ENDBRANCH  17  24
ENDBRANCH   1  20
TORSDOF 3
