REMARK  Name = ZINCrD0000070XYi.0
REMARK                            x       y       z     vdW  Elec       q    Type
REMARK                         _______ _______ _______ _____ _____    ______ ____
ROOT
ATOM      1  C   LIG    1       -0.079   1.476   0.040  0.00  0.00    -0.000 A 
ATOM      2  C   LIG    1       -1.301   2.143   0.144  0.00  0.00    +0.020 A 
ATOM      3  C   LIG    1       -1.335   3.518   0.164  0.00  0.00    +0.100 A 
ATOM      4  C   LIG    1       -0.147   4.248   0.068  0.00  0.00    -0.130 A 
ATOM      5  C   LIG    1        1.076   3.580  -0.042  0.00  0.00    +0.090 A 
ATOM      6  C   LIG    1        1.108   2.204  -0.056  0.00  0.00    +0.020 A 
ENDROOT
BRANCH   1  10
ATOM      7  C   LIG    1        0.025  -2.774  -0.006  0.00  0.00    +0.090 A 
ATOM      8  C   LIG    1       -1.191  -2.112   0.104  0.00  0.00    +0.010 A 
ATOM      9  C   LIG    1       -1.228  -0.734   0.119  0.00  0.00    +0.050 A 
ATOM     10  C   LIG    1       -0.043  -0.005   0.024  0.00  0.00    -0.060 A 
ATOM     11  C   LIG    1        1.176  -0.673  -0.092  0.00  0.00    +0.050 A 
ATOM     12  C   LIG    1        1.207  -2.051  -0.102  0.00  0.00    +0.020 A 
BRANCH   7  13
ATOM     13  O   LIG    1        0.058  -4.133  -0.021  0.00  0.00    -0.290 OA
BRANCH  13  15
ATOM     14  C   LIG    1       -0.567  -6.245  -1.136  0.00  0.00    +0.180 C 
ATOM     15  C   LIG    1       -0.450  -4.743  -1.103  0.00  0.00    +0.460 C 
ATOM     16  O   LIG    1       -0.812  -4.088  -2.052  0.00  0.00    -0.490 OA
ENDBRANCH  13  15
ENDBRANCH   7  13
ENDBRANCH   1  10
BRANCH   4  17
ATOM     17  C   LIG    1       -0.183   5.723   0.082  0.00  0.00    +0.510 C 
ATOM     18  O   LIG    1        0.850   6.357  -0.002  0.00  0.00    -0.500 OA
BRANCH  17  19
ATOM     19  O   LIG    1       -1.362   6.367   0.188  0.00  0.00    -0.330 OA
BRANCH  19  20
ATOM     20  C   LIG    1       -1.321   7.819   0.196  0.00  0.00    +0.250 C 
BRANCH  20  21
ATOM     21  C   LIG    1       -2.723   8.359   0.321  0.00  0.00    +0.520 C 
ATOM     22  N   LIG    1       -2.931   9.691   0.349  0.00  0.00    -0.720 N 
ATOM     23  H   LIG    1       -2.180  10.301   0.289  0.00  0.00    +0.400 HD
ATOM     24  O   LIG    1       -3.663   7.597   0.395  0.00  0.00    -0.510 OA
BRANCH  22  25
ATOM     25  C   LIG    1       -4.293  10.216   0.469  0.00  0.00    +0.170 C 
ATOM     26  C   LIG    1       -5.133   9.736  -0.716  0.00  0.00    +0.040 C 
ATOM     27  C   LIG    1       -4.251  11.746   0.478  0.00  0.00    +0.040 C 
ATOM     28  C   LIG    1       -4.919   9.716   1.773  0.00  0.00    +0.040 C 
ENDBRANCH  22  25
ENDBRANCH  20  21
ENDBRANCH  19  20
ENDBRANCH  17  19
ENDBRANCH   4  17
TORSDOF 8
