REMARK  Name = ZINCrD00000752DI.0
REMARK                            x       y       z     vdW  Elec       q    Type
REMARK                         _______ _______ _______ _____ _____    ______ ____
ROOT
ATOM      1  C   LIG    1        7.179   3.044   0.611  0.00  0.00    +0.200 C 
ATOM      2  C   LIG    1        5.692   2.974   0.377  0.00  0.00    +0.260 A 
ATOM      3  N   LIG    1        4.886   4.005   0.319  0.00  0.00    -0.320 NA
ATOM      4  N   LIG    1        3.597   3.509   0.087  0.00  0.00    -0.370 N 
ATOM      5  C   LIG    1        3.725   2.148   0.018  0.00  0.00    +0.360 A 
ATOM      6  C   LIG    1        2.511   1.359  -0.221  0.00  0.00    -0.130 A 
ATOM      7  C   LIG    1        1.289   2.054  -0.366  0.00  0.00    +0.190 A 
ATOM      8  N   LIG    1        1.279   3.406  -0.280  0.00  0.00    -0.560 NA
ATOM      9  C   LIG    1        0.115   1.331  -0.595  0.00  0.00    +0.020 A 
ATOM     10  C   LIG    1        0.163  -0.042  -0.676  0.00  0.00    +0.060 A 
ATOM     11  C   LIG    1        1.366  -0.721  -0.534  0.00  0.00    -0.020 A 
ATOM     12  C   LIG    1        2.537  -0.031  -0.308  0.00  0.00    +0.100 A 
ATOM     13  C   LIG    1        2.370   4.094  -0.065  0.00  0.00    +0.660 A 
ATOM     14  N   LIG    1        4.996   1.855   0.196  0.00  0.00    -0.520 NA
ENDROOT
BRANCH  13  15
ATOM     15  N   LIG    1        2.281   5.464   0.010  0.00  0.00    -0.560 N 
BRANCH  15  16
ATOM     16  C   LIG    1        0.969   6.115  -0.014  0.00  0.00    +0.290 C 
BRANCH  16  17
ATOM     17  C   LIG    1        0.444   6.257   1.416  0.00  0.00    +0.110 C 
ATOM     18  C   LIG    1       -0.927   6.937   1.391  0.00  0.00    +0.020 C 
ATOM     19  C   LIG    1        1.419   7.106   2.235  0.00  0.00    +0.060 C 
BRANCH  17  20
ATOM     20  O   LIG    1        0.323   4.963   2.011  0.00  0.00    -0.550 OA
ATOM     21  H   LIG    1       -0.281   4.370   1.543  0.00  0.00    +0.380 HD
ENDBRANCH  17  20
ENDBRANCH  16  17
ENDBRANCH  15  16
BRANCH  15  22
ATOM     22  C   LIG    1        3.498   6.273   0.115  0.00  0.00    +0.340 C 
BRANCH  22  23
ATOM     23  C   LIG    1        3.963   6.661  -1.265  0.00  0.00    -0.110 A 
ATOM     24  C   LIG    1        4.745   5.790  -2.001  0.00  0.00    +0.020 A 
ATOM     25  C   LIG    1        5.168   6.144  -3.268  0.00  0.00    +0.000 A 
ATOM     26  C   LIG    1        4.818   7.373  -3.796  0.00  0.00    +0.010 A 
ATOM     27  C   LIG    1        4.041   8.246  -3.057  0.00  0.00    +0.000 A 
ATOM     28  C   LIG    1        3.614   7.890  -1.792  0.00  0.00    +0.010 A 
ENDBRANCH  22  23
ENDBRANCH  15  22
ENDBRANCH  13  15
TORSDOF 6
