REMARK  Name = ZINCkj000005jGiC.0
REMARK                            x       y       z     vdW  Elec       q    Type
REMARK                         _______ _______ _______ _____ _____    ______ ____
ROOT
ATOM      1  C   LIG    1       -4.079   6.112  -2.827  0.00  0.00    +0.000 C 
ATOM      2  C   LIG    1       -4.835   5.101  -3.692  0.00  0.00    +0.020 C 
ATOM      3  C   LIG    1       -5.281   3.920  -2.827  0.00  0.00    +0.040 C 
ATOM      4  C   LIG    1       -4.047   3.227  -2.240  0.00  0.00    +0.300 C 
ATOM      5  N   LIG    1       -3.238   4.224  -1.528  0.00  0.00    -1.000 NA
ATOM      6  C   LIG    1       -2.836   5.446  -2.239  0.00  0.00    +0.280 C 
ENDROOT
BRANCH   5   7
ATOM      7  S   LIG    1       -2.794   3.981   0.049  0.00  0.00    +2.690 S 
ATOM      8  O   LIG    1       -2.539   5.267   0.597  0.00  0.00    -0.940 OA
ATOM      9  O   LIG    1       -3.742   3.075   0.597  0.00  0.00    -0.930 OA
BRANCH   7  10
ATOM     10  C   LIG    1       -1.249   3.133   0.030  0.00  0.00    -0.680 A 
ATOM     11  C   LIG    1       -1.221   1.750   0.017  0.00  0.00    +0.160 A 
ATOM     12  C   LIG    1       -0.013   1.076   0.008  0.00  0.00    +0.020 A 
ATOM     13  C   LIG    1        1.173   1.780   0.000  0.00  0.00    +0.140 A 
ATOM     14  C   LIG    1        1.153   3.176   0.008  0.00  0.00    -0.040 A 
ATOM     15  C   LIG    1       -0.070   3.850   0.022  0.00  0.00    +0.170 A 
BRANCH  14  16
ATOM     16  C   LIG    1        2.380   3.914  -0.001  0.00  0.00    +0.240 C 
ATOM     17  N   LIG    1        3.353   4.499  -0.007  0.00  0.00    -0.390 NA
ENDBRANCH  14  16
ENDBRANCH   7  10
ENDBRANCH   5   7
BRANCH   1  19
ATOM     18  C   LIG    1       -4.910   8.046  -4.172  0.00  0.00    +0.090 C 
ATOM     19  C   LIG    1       -3.662   7.307  -3.685  0.00  0.00    +0.180 C 
BRANCH  19  20
ATOM     20  N   LIG    1       -2.891   6.834  -4.843  0.00  0.00    -0.640 N 
ATOM     21  H   LIG    1       -3.459   6.207  -5.392  0.00  0.00    +0.430 HD
ATOM     22  H   LIG    1       -2.067   6.347  -4.522  0.00  0.00    +0.430 HD
ATOM     23  H   LIG    1       -2.616   7.623  -5.409  0.00  0.00    +0.440 HD
ENDBRANCH  19  20
ENDBRANCH   1  19
TORSDOF 5
