REMARK  Name = ZINCtV00001bB3tv.0
REMARK                            x       y       z     vdW  Elec       q    Type
REMARK                         _______ _______ _______ _____ _____    ______ ____
ROOT
ATOM      1  C   LIG    1        3.304   9.462   0.134  0.00  0.00    +0.100 A 
ATOM      2  C   LIG    1        4.126  10.467   0.658  0.00  0.00    -0.030 A 
ATOM      3  C   LIG    1        3.715  11.768   0.631  0.00  0.00    +0.070 A 
ATOM      4  C   LIG    1        2.465  12.097   0.088  0.00  0.00    -0.070 A 
ATOM      5  C   LIG    1        1.640  11.089  -0.431  0.00  0.00    +0.040 A 
ATOM      6  C   LIG    1        2.055   9.790  -0.408  0.00  0.00    +0.020 A 
ENDROOT
BRANCH   4   7
ATOM      7  C   LIG    1        2.020  13.494   0.064  0.00  0.00    +0.130 C 
ATOM      8  C   LIG    1        2.139  14.264   1.175  0.00  0.00    -0.200 C 
ATOM      9  C   LIG    1        2.333  13.634   2.408  0.00  0.00    +0.390 C 
ATOM     10  C   LIG    1        2.509  14.399   3.689  0.00  0.00    -0.020 C 
ATOM     11  C   LIG    1        1.997  15.830   3.519  0.00  0.00    +0.020 C 
ATOM     12  C   LIG    1        2.639  16.438   2.267  0.00  0.00    +0.020 C 
ATOM     13  O   LIG    1        2.367  12.421   2.444  0.00  0.00    -0.450 OA
ATOM     14  C   LIG    1        2.051  15.756   1.030  0.00  0.00    +0.030 C 
ATOM     15  C   LIG    1        2.832  16.193  -0.210  0.00  0.00    +0.030 C 
BRANCH  10  16
ATOM     16  C   LIG    1        1.718  13.706   4.801  0.00  0.00    +0.000 C 
ATOM     17  C   LIG    1        0.223  13.783   4.487  0.00  0.00    +0.020 C 
ATOM     18  C   LIG    1        1.996  14.403   6.135  0.00  0.00    +0.020 C 
ENDBRANCH  10  16
ENDBRANCH   4   7
BRANCH   1  20
ATOM     19  C   LIG    1        4.936   7.859  -0.203  0.00  0.00    +0.320 C 
ATOM     20  N   LIG    1        3.718   8.162   0.156  0.00  0.00    -0.490 NA
BRANCH  19  24
ATOM     21  C   LIG    1        6.223   3.818  -0.135  0.00  0.00    +0.150 A 
ATOM     22  C   LIG    1        4.923   4.138   0.242  0.00  0.00    -0.090 A 
ATOM     23  C   LIG    1        4.503   5.449   0.228  0.00  0.00    +0.110 A 
ATOM     24  C   LIG    1        5.382   6.459  -0.179  0.00  0.00    -0.120 A 
ATOM     25  C   LIG    1        6.688   6.131  -0.563  0.00  0.00    +0.100 A 
ATOM     26  C   LIG    1        7.100   4.818  -0.539  0.00  0.00    -0.020 A 
BRANCH  21  27
ATOM     27  O   LIG    1        6.634   2.525  -0.114  0.00  0.00    -0.310 OA
BRANCH  27  29
ATOM     28  C   LIG    1        6.323   0.159   0.270  0.00  0.00    +0.070 C 
ATOM     29  C   LIG    1        5.682   1.548   0.312  0.00  0.00    +0.170 C 
ENDBRANCH  27  29
ENDBRANCH  21  27
ENDBRANCH  19  24
ENDBRANCH   1  20
TORSDOF 6
