REMARK  Name = ZINC560000003Wa6.0
REMARK                            x       y       z     vdW  Elec       q    Type
REMARK                         _______ _______ _______ _____ _____    ______ ____
ROOT
ATOM      1  O   LIG    1        0.002  -0.004   0.002  0.00  0.00    -1.170 OA
ATOM      2  P   LIG    1       -0.019   1.562   0.011  0.00  0.00    +1.990 P 
ATOM      3  F   LIG    1       -0.801   2.101   1.385  0.00  0.00    -0.480 F 
ATOM      4  O   LIG    1       -0.777   2.081  -1.259  0.00  0.00    -1.170 OA
ATOM      5  O   LIG    1        1.451   2.105  -0.001  0.00  0.00    -1.170 OA
ENDROOT
TORSDOF 0
