REMARK  Name = ZINCqH0000051cG3.1
REMARK                            x       y       z     vdW  Elec       q    Type
REMARK                         _______ _______ _______ _____ _____    ______ ____
ROOT
ATOM      1  O   LIG    1        1.591   0.545  -1.997  0.00  0.00    -0.490 OA
ATOM      2  C   LIG    1        2.219   1.170  -1.168  0.00  0.00    +0.510 C 
ATOM      3  N   LIG    1        3.545   1.352  -1.326  0.00  0.00    -0.640 N 
ATOM      4  H   LIG    1        4.035   1.912  -0.703  0.00  0.00    +0.400 HD
ENDROOT
BRANCH   3   5
ATOM      5  C   LIG    1        4.219   0.731  -2.392  0.00  0.00    -0.060 A 
ATOM      6  C   LIG    1        4.923   1.364  -3.376  0.00  0.00    +0.230 A 
ATOM      7  N   LIG    1        5.427   0.400  -4.225  0.00  0.00    -0.490 N 
ATOM      8  H   LIG    1        5.968   0.562  -5.014  0.00  0.00    +0.450 HD
ATOM      9  N   LIG    1        5.022  -0.854  -3.749  0.00  0.00    -0.510 N 
ATOM     10  H   LIG    1        5.234  -1.711  -4.151  0.00  0.00    +0.440 HD
ATOM     11  C   LIG    1        4.293  -0.662  -2.632  0.00  0.00    +0.540 A 
ATOM     12  O   LIG    1        3.783  -1.534  -1.951  0.00  0.00    -0.530 OA
BRANCH   6  13
ATOM     13  C   LIG    1        5.110   2.822  -3.508  0.00  0.00    -0.050 A 
ATOM     14  C   LIG    1        4.579   3.688  -2.549  0.00  0.00    +0.040 A 
ATOM     15  C   LIG    1        4.763   5.049  -2.676  0.00  0.00    +0.010 A 
ATOM     16  C   LIG    1        5.462   5.558  -3.757  0.00  0.00    +0.030 A 
ATOM     17  C   LIG    1        5.986   4.707  -4.713  0.00  0.00    +0.010 A 
ATOM     18  C   LIG    1        5.815   3.343  -4.596  0.00  0.00    +0.020 A 
ENDBRANCH   6  13
ENDBRANCH   3   5
BRANCH   2  19
ATOM     19  C   LIG    1        1.518   1.742   0.037  0.00  0.00    +0.040 C 
BRANCH  19  20
ATOM     20  C   LIG    1        0.029   1.394  -0.027  0.00  0.00    +0.290 C 
BRANCH  20  21
ATOM     21  C   LIG    1       -0.650   1.858   1.236  0.00  0.00    -0.100 A 
ATOM     22  C   LIG    1       -1.090   3.164   1.343  0.00  0.00    +0.040 A 
ATOM     23  C   LIG    1       -1.717   3.590   2.499  0.00  0.00    +0.060 A 
ATOM     24  C   LIG    1       -1.895   2.712   3.553  0.00  0.00    -0.030 A 
ATOM     25  C   LIG    1       -1.450   1.405   3.447  0.00  0.00    -0.030 A 
ATOM     26 CL   LIG    1       -1.673   0.302   4.769  0.00  0.00    -0.040 Cl
ATOM     27 CL   LIG    1       -2.678   3.248   5.007  0.00  0.00    -0.040 Cl
ATOM     28  C   LIG    1       -0.827   0.979   2.288  0.00  0.00    +0.060 A 
ENDBRANCH  20  21
BRANCH  20  29
ATOM     29  O   LIG    1       -0.564   2.043  -1.153  0.00  0.00    -0.530 OA
ATOM     30  H   LIG    1       -0.497   3.007  -1.132  0.00  0.00    +0.370 HD
ENDBRANCH  20  29
ENDBRANCH  19  20
ENDBRANCH   2  19
TORSDOF 6
