REMARK  Name = ZINCpe000027pHwg.0
REMARK                            x       y       z     vdW  Elec       q    Type
REMARK                         _______ _______ _______ _____ _____    ______ ____
ROOT
ATOM      1  C   LIG    1        0.018   1.166   0.022  0.00  0.00    +0.400 C 
ENDROOT
BRANCH   1   2
ATOM      2  C   LIG    1       -0.810   1.506   1.235  0.00  0.00    -0.120 A 
ATOM      3  C   LIG    1       -0.706   2.756   1.815  0.00  0.00    +0.030 A 
ATOM      4  C   LIG    1       -1.468   3.070   2.925  0.00  0.00    +0.030 A 
ATOM      5  C   LIG    1       -2.329   2.129   3.459  0.00  0.00    -0.090 A 
ATOM      6  C   LIG    1       -2.431   0.877   2.882  0.00  0.00    +0.050 A 
ATOM      7  C   LIG    1       -1.671   0.566   1.770  0.00  0.00    +0.040 A 
BRANCH   5   8
ATOM      8  C   LIG    1       -3.157   2.469   4.672  0.00  0.00    +0.380 C 
BRANCH   8   9
ATOM      9  N   LIG    1       -2.414   2.119   5.885  0.00  0.00    -0.380 N 
ATOM     10  C   LIG    1       -2.117   2.934   6.911  0.00  0.00    +0.480 A 
ATOM     11  N   LIG    1       -1.447   2.244   7.797  0.00  0.00    -0.540 NA
ATOM     12  C   LIG    1       -1.290   0.991   7.370  0.00  0.00    +0.420 A 
ATOM     13  N   LIG    1       -1.865   0.866   6.203  0.00  0.00    -0.310 NA
ENDBRANCH   8   9
ENDBRANCH   5   8
ENDBRANCH   1   2
BRANCH   1  18
ATOM     14  C   LIG    1       -0.744   2.559  -1.922  0.00  0.00    +0.180 A 
ATOM     15  N   LIG    1       -1.579   2.376  -2.916  0.00  0.00    -0.290 NA
ATOM     16  N   LIG    1       -2.088   1.199  -2.796  0.00  0.00    -0.070 NA
ATOM     17  N   LIG    1       -1.596   0.624  -1.755  0.00  0.00    -0.080 NA
ATOM     18  N   LIG    1       -0.761   1.429  -1.190  0.00  0.00    -0.300 N 
BRANCH  14  19
ATOM     19  C   LIG    1        0.078   3.793  -1.652  0.00  0.00    +0.160 C 
BRANCH  19  20
ATOM     20  C   LIG    1        1.374   3.730  -2.462  0.00  0.00    +0.340 C 
BRANCH  20  23
ATOM     21  C   LIG    1        3.720   6.394  -1.830  0.00  0.00    -0.120 A 
ATOM     22  C   LIG    1        3.400   5.080  -1.856  0.00  0.00    +0.220 A 
ATOM     23  N   LIG    1        2.124   4.976  -2.283  0.00  0.00    -0.380 N 
ATOM     24  N   LIG    1        1.641   6.269  -2.518  0.00  0.00    -0.290 NA
ATOM     25  C   LIG    1        2.598   7.119  -2.246  0.00  0.00    +0.240 A 
ENDBRANCH  20  23
ENDBRANCH  19  20
ENDBRANCH  14  19
ENDBRANCH   1  18
TORSDOF 7
