REMARK  Name = ZINCrD000000AI6j.0
REMARK                            x       y       z     vdW  Elec       q    Type
REMARK                         _______ _______ _______ _____ _____    ______ ____
ROOT
ATOM      1  O   LIG    1        3.541   3.011  -0.117  0.00  0.00    -0.540 OA
ATOM      2  C   LIG    1        3.556   1.795  -0.124  0.00  0.00    +0.710 C 
ATOM      3  N   LIG    1        4.726   1.136  -0.239  0.00  0.00    -0.640 N 
ATOM      4  H   LIG    1        4.738   0.166  -0.244  0.00  0.00    +0.420 HD
ATOM      5  N   LIG    1        2.402   1.106  -0.015  0.00  0.00    -0.680 N 
ATOM      6  H   LIG    1        2.419   0.139   0.048  0.00  0.00    +0.410 HD
ENDROOT
BRANCH   3   7
ATOM      7  C   LIG    1        5.926   1.852  -0.353  0.00  0.00    +0.310 A 
ATOM      8  N   LIG    1        7.124   1.328  -0.465  0.00  0.00    -0.300 NA
ATOM      9  N   LIG    1        8.057   2.369  -0.556  0.00  0.00    -0.460 N 
ATOM     10  H   LIG    1        9.017   2.269  -0.649  0.00  0.00    +0.440 HD
ATOM     11  C   LIG    1        7.375   3.548  -0.486  0.00  0.00    +0.130 A 
ATOM     12  C   LIG    1        6.049   3.246  -0.359  0.00  0.00    -0.020 A 
BRANCH  11  13
ATOM     13  C   LIG    1        7.964   4.904  -0.537  0.00  0.00    +0.180 A 
ATOM     14  C   LIG    1        9.345   5.054  -0.664  0.00  0.00    -0.030 A 
ATOM     15  C   LIG    1        9.880   6.330  -0.716  0.00  0.00    +0.070 A 
ATOM     16  C   LIG    1        9.018   7.414  -0.629  0.00  0.00    -0.030 A 
ATOM     17  C   LIG    1        7.659   7.192  -0.499  0.00  0.00    +0.280 A 
ATOM     18  N   LIG    1        7.174   5.968  -0.457  0.00  0.00    -0.460 NA
ENDBRANCH  11  13
ENDBRANCH   3   7
BRANCH   5  19
ATOM     19  C   LIG    1        1.181   1.788   0.008  0.00  0.00    +0.170 A 
ATOM     20  C   LIG    1        0.059   1.225  -0.586  0.00  0.00    -0.010 A 
ATOM     21  C   LIG    1       -1.145   1.902  -0.566  0.00  0.00    +0.050 A 
ATOM     22  C   LIG    1       -1.236   3.135   0.054  0.00  0.00    -0.130 A 
ATOM     23  C   LIG    1       -0.121   3.698   0.647  0.00  0.00    +0.050 A 
ATOM     24  C   LIG    1        1.087   3.028   0.626  0.00  0.00    +0.030 A 
BRANCH  22  25
ATOM     25  C   LIG    1       -2.552   3.868   0.080  0.00  0.00    +0.350 C 
BRANCH  25  26
ATOM     26  N   LIG    1       -2.657   4.724  -1.105  0.00  0.00    -0.460 N 
ATOM     27  C   LIG    1       -3.186   4.372  -2.317  0.00  0.00    +0.110 A 
ATOM     28  C   LIG    1       -3.084   5.452  -3.115  0.00  0.00    +0.140 A 
ATOM     29  N   LIG    1       -2.508   6.436  -2.410  0.00  0.00    -0.500 NA
ATOM     30  C   LIG    1       -2.255   6.009  -1.203  0.00  0.00    +0.380 A 
ENDBRANCH  25  26
ENDBRANCH  22  25
ENDBRANCH   5  19
TORSDOF 5
