REMARK  Name = ZINCrH000004muyj.0
REMARK                            x       y       z     vdW  Elec       q    Type
REMARK                         _______ _______ _______ _____ _____    ______ ____
ROOT
ATOM      1  C   LIG    1       -0.017   1.384   0.010  0.00  0.00    +0.270 A 
ATOM      2  N   LIG    1        1.031   2.148   0.004  0.00  0.00    -0.490 NA
ATOM      3  C   LIG    1        0.822   3.457   0.013  0.00  0.00    +0.120 A 
ATOM      4  C   LIG    1       -0.469   3.834   0.027  0.00  0.00    -0.250 A 
ATOM      5  C   LIG    1       -0.974   5.254   0.039  0.00  0.00    +0.150 C 
ATOM      6  S   LIG    1       -1.468   2.382   0.021  0.00  0.00    +0.210 S 
ENDROOT
BRANCH   3   7
ATOM      7  C   LIG    1        1.935   4.438   0.008  0.00  0.00    -0.040 A 
ATOM      8  C   LIG    1        1.801   5.642  -0.681  0.00  0.00    +0.070 A 
ATOM      9  C   LIG    1        2.835   6.555  -0.679  0.00  0.00    -0.050 A 
ATOM     10  C   LIG    1        4.013   6.270  -0.001  0.00  0.00    +0.110 A 
ATOM     11  C   LIG    1        4.151   5.069   0.681  0.00  0.00    +0.010 A 
ATOM     12  C   LIG    1        3.119   4.154   0.687  0.00  0.00    +0.090 A 
BRANCH  10  13
ATOM     13  O   LIG    1        5.032   7.168  -0.006  0.00  0.00    -0.320 OA
BRANCH  13  14
ATOM     14  C   LIG    1        4.822   8.384  -0.727  0.00  0.00    +0.590 C 
ATOM     15  F   LIG    1        3.725   9.063  -0.187  0.00  0.00    -0.200 F 
ATOM     16  F   LIG    1        4.574   8.091  -2.072  0.00  0.00    -0.200 F 
ENDBRANCH  13  14
ENDBRANCH  10  13
ENDBRANCH   3   7
BRANCH   1  18
ATOM     17  C   LIG    1       -1.156  -0.694   0.009  0.00  0.00    +0.590 C 
ATOM     18  N   LIG    1        0.002  -0.004   0.002  0.00  0.00    -0.600 N 
ATOM     19  H   LIG    1        0.849  -0.478  -0.009  0.00  0.00    +0.440 HD
ATOM     20  O   LIG    1       -2.217  -0.100   0.023  0.00  0.00    -0.490 OA
BRANCH  17  24
ATOM     21  C   LIG    1       -1.005  -4.865  -0.015  0.00  0.00    +0.290 A 
ATOM     22  C   LIG    1       -2.266  -4.274   0.001  0.00  0.00    +0.040 A 
ATOM     23  C   LIG    1       -2.337  -2.891   0.015  0.00  0.00    +0.160 A 
ATOM     24  C   LIG    1       -1.136  -2.172   0.001  0.00  0.00    -0.010 A 
ATOM     25  N   LIG    1        0.022  -2.823  -0.013  0.00  0.00    -0.160 NA
ATOM     26  N   LIG    1        0.083  -4.105  -0.021  0.00  0.00    -0.290 NA
BRANCH  21  28
ATOM     27  C   LIG    1        0.435  -6.753  -0.039  0.00  0.00    +0.280 C 
ATOM     28  O   LIG    1       -0.889  -6.215  -0.023  0.00  0.00    -0.290 OA
ENDBRANCH  21  28
ENDBRANCH  17  24
ENDBRANCH   1  18
TORSDOF 6
