REMARK  Name = ZINCpk000000n8GP.0
REMARK                            x       y       z     vdW  Elec       q    Type
REMARK                         _______ _______ _______ _____ _____    ______ ____
ROOT
ATOM      1  C   LIG    1       -0.445   1.363  -4.828  0.00  0.00    +0.330 C 
ENDROOT
BRANCH   1   8
ATOM      2  C   LIG    1       -0.716   4.034  -4.710  0.00  0.00    +0.650 C 
ATOM      3  N   LIG    1       -1.249   3.461  -5.807  0.00  0.00    -0.590 N 
ATOM      4  C   LIG    1       -1.841   4.285  -6.870  0.00  0.00    +0.270 C 
ATOM      5  C   LIG    1       -1.193   3.906  -8.206  0.00  0.00    +0.010 C 
ATOM      6  C   LIG    1       -1.334   2.399  -8.427  0.00  0.00    +0.020 C 
ATOM      7  C   LIG    1       -0.609   1.647  -7.309  0.00  0.00    +0.020 C 
ATOM      8  C   LIG    1       -1.250   2.000  -5.963  0.00  0.00    +0.230 C 
ATOM      9  O   LIG    1       -0.142   3.351  -3.885  0.00  0.00    -0.550 OA
BRANCH   2  10
ATOM     10  O   LIG    1       -0.820   5.364  -4.528  0.00  0.00    -0.360 OA
BRANCH  10  12
ATOM     11  C   LIG    1        1.278   5.612  -3.316  0.00  0.00    +0.040 C 
ATOM     12  C   LIG    1       -0.222   5.913  -3.324  0.00  0.00    +0.140 C 
ATOM     13  C   LIG    1       -0.875   5.277  -2.095  0.00  0.00    +0.040 C 
ATOM     14  C   LIG    1       -0.439   7.427  -3.291  0.00  0.00    +0.080 C 
ENDBRANCH  10  12
ENDBRANCH   2  10
ENDBRANCH   1   8
BRANCH   1  15
ATOM     15  N   LIG    1       -0.448  -0.094  -4.986  0.00  0.00    -0.750 N 
ATOM     16  H   LIG    1       -0.978  -0.505  -5.687  0.00  0.00    +0.390 HD
ATOM     17  C   LIG    1        0.285  -0.863  -4.156  0.00  0.00    +0.710 C 
ATOM     18  N   LIG    1        0.281  -2.203  -4.301  0.00  0.00    -0.740 N 
ATOM     19  H   LIG    1       -0.248  -2.614  -5.002  0.00  0.00    +0.400 HD
ATOM     20  O   LIG    1        0.949  -0.348  -3.277  0.00  0.00    -0.580 OA
BRANCH  18  21
ATOM     21  C   LIG    1        1.078  -3.039  -3.399  0.00  0.00    +0.320 C 
BRANCH  21  22
ATOM     22  C   LIG    1        0.899  -4.511  -3.776  0.00  0.00    +0.120 C 
ATOM     23  C   LIG    1        1.725  -5.386  -2.830  0.00  0.00    +0.210 C 
ATOM     24  O   LIG    1        1.465  -6.763  -3.117  0.00  0.00    -0.380 OA
ATOM     25  C   LIG    1        0.084  -7.121  -3.003  0.00  0.00    +0.190 C 
ATOM     26  C   LIG    1       -0.742  -6.246  -3.950  0.00  0.00    +0.190 C 
ATOM     27  O   LIG    1       -0.482  -4.869  -3.663  0.00  0.00    -0.370 OA
ENDBRANCH  21  22
ENDBRANCH  18  21
ENDBRANCH   1  15
TORSDOF 6
