REMARK  Name = ZINCbw0000000HdD.0
REMARK                            x       y       z     vdW  Elec       q    Type
REMARK                         _______ _______ _______ _____ _____    ______ ____
ROOT
ATOM      1  C   LIG    1        0.002  -0.004   0.002  0.00  0.00    -0.170 A 
ATOM      2  C   LIG    1       -0.017   1.394   0.010  0.00  0.00    +0.070 A 
ATOM      3  C   LIG    1        1.170   2.096   0.002  0.00  0.00    +0.000 A 
ATOM      4  C   LIG    1        2.378   1.421  -0.013  0.00  0.00    +0.040 A 
ATOM      5  C   LIG    1        2.405   0.037  -0.021  0.00  0.00    +0.000 A 
ATOM      6  C   LIG    1        1.227  -0.679  -0.013  0.00  0.00    +0.060 A 
ENDROOT
BRANCH   1   7
ATOM      7  C   LIG    1       -1.260  -0.761   0.011  0.00  0.00    +0.390 C 
ATOM      8  O   LIG    1       -2.320  -0.172   0.024  0.00  0.00    -0.450 OA
BRANCH   7   9
ATOM      9  C   LIG    1       -1.235  -2.268   0.002  0.00  0.00    +0.030 C 
BRANCH   9  11
ATOM     10  C   LIG    1       -2.644  -4.331   0.005  0.00  0.00    +0.030 C 
ATOM     11  C   LIG    1       -2.669  -2.802   0.013  0.00  0.00    +0.020 C 
ENDBRANCH   9  11
ENDBRANCH   7   9
ENDBRANCH   1   7
TORSDOF 3
