REMARK  Name = ZINCrD000000D9mu.0
REMARK                            x       y       z     vdW  Elec       q    Type
REMARK                         _______ _______ _______ _____ _____    ______ ____
ROOT
ATOM      1  C   LIG    1        2.412   0.023  -0.174  0.00  0.00    -0.080 A 
ATOM      2  C   LIG    1        2.400   1.405  -0.169  0.00  0.00    +0.240 A 
ATOM      3  C   LIG    1        1.208   2.087  -0.005  0.00  0.00    -0.690 A 
ATOM      4  C   LIG    1        0.026   1.388   0.153  0.00  0.00    +0.210 A 
ATOM      5  C   LIG    1        0.032   0.007   0.148  0.00  0.00    +0.030 A 
ATOM      6  C   LIG    1        1.226  -0.680  -0.016  0.00  0.00    +0.200 A 
ENDROOT
BRANCH   1   8
ATOM      7  O   LIG    1        4.728  -0.088  -0.489  0.00  0.00    -0.150 OA
ATOM      8  N   LIG    1        3.688  -0.706  -0.349  0.00  0.00    +0.020 N 
ATOM      9  O   LIG    1        3.698  -1.924  -0.354  0.00  0.00    -0.120 OA
ENDBRANCH   1   8
BRANCH   3  10
ATOM     10  S   LIG    1        1.197   3.848   0.001  0.00  0.00    +2.690 S 
ATOM     11  O   LIG    1       -0.117   4.242  -0.369  0.00  0.00    -0.930 OA
ATOM     12  O   LIG    1        2.360   4.260  -0.705  0.00  0.00    -0.930 OA
BRANCH  10  13
ATOM     13  N   LIG    1        1.406   4.335   1.570  0.00  0.00    -1.000 NA
ATOM     14  C   LIG    1        0.251   4.554   2.456  0.00  0.00    +0.270 C 
ATOM     15  C   LIG    1        0.495   3.782   3.762  0.00  0.00    +0.210 C 
ATOM     16  O   LIG    1        1.775   4.142   4.287  0.00  0.00    -0.370 OA
ATOM     17  C   LIG    1        2.874   3.798   3.440  0.00  0.00    +0.210 C 
ATOM     18  C   LIG    1        2.752   4.566   2.119  0.00  0.00    +0.270 C 
ENDBRANCH  10  13
ENDBRANCH   3  10
BRANCH   6  19
ATOM     19  O   LIG    1        1.235  -2.039  -0.020  0.00  0.00    -0.230 OA
BRANCH  19  20
ATOM     20  C   LIG    1        1.465  -2.679   1.156  0.00  0.00    +0.150 A 
ATOM     21  C   LIG    1        1.571  -1.953   2.333  0.00  0.00    -0.030 A 
ATOM     22  C   LIG    1        1.799  -2.607   3.529  0.00  0.00    +0.050 A 
ATOM     23  C   LIG    1        1.933  -3.984   3.552  0.00  0.00    +0.090 A 
ATOM     24  C   LIG    1        1.832  -4.711   2.378  0.00  0.00    +0.070 A 
ATOM     25  F   LIG    1        2.162  -4.620   4.722  0.00  0.00    -0.130 F 
ATOM     26  C   LIG    1        1.599  -4.061   1.181  0.00  0.00    -0.080 A 
ATOM     27 BR   LIG    1        1.462  -5.053  -0.423  0.00  0.00    -0.000 Br
ENDBRANCH  19  20
ENDBRANCH   6  19
TORSDOF 5
