REMARK  Name = ZINCrg000000sJ6M.0
REMARK                            x       y       z     vdW  Elec       q    Type
REMARK                         _______ _______ _______ _____ _____    ______ ____
ROOT
ATOM      1  N   LIG    1        4.111   4.543   4.077  0.00  0.00    -0.750 N 
ATOM      2  H   LIG    1        3.427   4.777   4.724  0.00  0.00    +0.400 HD
ATOM      3  C   LIG    1        4.238   3.267   3.661  0.00  0.00    +0.710 C 
ATOM      4  N   LIG    1        3.415   2.316   4.145  0.00  0.00    -0.740 N 
ATOM      5  H   LIG    1        2.731   2.550   4.792  0.00  0.00    +0.400 HD
ATOM      6  O   LIG    1        5.095   2.974   2.850  0.00  0.00    -0.590 OA
ENDROOT
BRANCH   1   7
ATOM      7  C   LIG    1        5.005   5.577   3.550  0.00  0.00    +0.280 C 
BRANCH   7   8
ATOM      8  C   LIG    1        4.652   6.926   4.180  0.00  0.00    +0.030 C 
BRANCH   8   9
ATOM      9  C   LIG    1        5.586   8.006   3.630  0.00  0.00    +0.170 C 
BRANCH   9  14
ATOM     10  C   LIG    1        3.546  12.499   4.533  0.00  0.00    +0.360 C 
ATOM     11  N   LIG    1        4.359  11.286   4.653  0.00  0.00    -0.390 N 
ATOM     12  C   LIG    1        5.237  10.998   5.630  0.00  0.00    +0.480 A 
ATOM     13  N   LIG    1        5.756   9.824   5.375  0.00  0.00    -0.540 NA
ATOM     14  C   LIG    1        5.237   9.335   4.250  0.00  0.00    +0.230 A 
ATOM     15  N   LIG    1        4.380  10.196   3.768  0.00  0.00    -0.320 NA
ENDBRANCH   9  14
ENDBRANCH   8   9
ENDBRANCH   7   8
ENDBRANCH   1   7
BRANCH   4  16
ATOM     16  C   LIG    1        3.553   0.929   3.694  0.00  0.00    +0.350 C 
BRANCH  16  17
ATOM     17  C   LIG    1        2.521   0.072   4.381  0.00  0.00    -0.100 A 
ATOM     18  C   LIG    1        2.860  -0.706   5.476  0.00  0.00    +0.040 A 
ATOM     19  C   LIG    1        1.887  -1.479   6.082  0.00  0.00    +0.220 A 
ATOM     20  N   LIG    1        0.648  -1.484   5.630  0.00  0.00    -0.440 NA
ATOM     21  C   LIG    1        0.283  -0.753   4.595  0.00  0.00    +0.180 A 
ATOM     22  C   LIG    1        1.204   0.043   3.931  0.00  0.00    +0.100 A 
BRANCH  22  23
ATOM     23  O   LIG    1        0.825   0.790   2.860  0.00  0.00    -0.300 OA
BRANCH  23  24
ATOM     24  C   LIG    1       -0.544   0.704   2.462  0.00  0.00    +0.210 C 
BRANCH  24  25
ATOM     25  C   LIG    1       -0.780   1.606   1.249  0.00  0.00    -0.020 C 
ATOM     26  C   LIG    1       -2.249   1.504   0.749  0.00  0.00    +0.020 C 
ATOM     27  C   LIG    1       -2.107   1.829  -0.754  0.00  0.00    +0.190 C 
ATOM     28  O   LIG    1       -0.746   1.581  -1.124  0.00  0.00    -0.380 OA
ATOM     29  C   LIG    1       -0.013   1.086   0.008  0.00  0.00    +0.210 C 
ENDBRANCH  24  25
ENDBRANCH  23  24
ENDBRANCH  22  23
ENDBRANCH  16  17
ENDBRANCH   4  16
TORSDOF 9
