REMARK  Name = ZINCrg00000z8byl.0
REMARK                            x       y       z     vdW  Elec       q    Type
REMARK                         _______ _______ _______ _____ _____    ______ ____
ROOT
ATOM      1  C   LIG    1        0.688  -0.500  -1.273  0.00  0.00    -0.090 C 
ATOM      2  C   LIG    1        0.002  -0.004   0.002  0.00  0.00    +0.030 C 
ATOM      3  C   LIG    1       -0.019   1.526   0.010  0.00  0.00    +0.010 C 
ATOM      4  C   LIG    1        1.420   2.052  -0.001  0.00  0.00    +0.270 C 
ATOM      5  N   LIG    1        2.130   1.465  -1.145  0.00  0.00    -0.610 N 
ATOM      6  C   LIG    1        2.765   2.251  -2.036  0.00  0.00    +0.530 C 
ATOM      7  O   LIG    1        3.348   1.754  -2.977  0.00  0.00    -0.540 OA
ATOM      8  C   LIG    1       -0.060   0.035  -2.496  0.00  0.00    +0.030 C 
ATOM      9  C   LIG    1        2.135   0.004  -1.299  0.00  0.00    +0.290 C 
ENDROOT
BRANCH   6  10
ATOM     10  C   LIG    1        2.751   3.748  -1.865  0.00  0.00    -0.020 C 
ATOM     11  C   LIG    1        1.474   4.418  -2.403  0.00  0.00    +0.090 C 
ATOM     12  C   LIG    1        2.383   5.529  -2.940  0.00  0.00    -0.170 C 
ATOM     13  C   LIG    1        2.058   6.613  -3.962  0.00  0.00    +0.040 C 
ATOM     14  C   LIG    1        2.436   6.996  -2.528  0.00  0.00    +0.050 C 
ATOM     15  C   LIG    1        3.520   4.502  -2.965  0.00  0.00    +0.090 C 
ENDBRANCH   6  10
BRANCH   1  16
ATOM     16  C   LIG    1        0.679  -2.029  -1.296  0.00  0.00    +0.270 C 
BRANCH  16  18
ATOM     17  C   LIG    1       -0.958  -3.834  -1.282  0.00  0.00    +0.500 C 
ATOM     18  N   LIG    1       -0.705  -2.510  -1.268  0.00  0.00    -0.730 N 
ATOM     19  H   LIG    1       -1.438  -1.876  -1.240  0.00  0.00    +0.400 HD
ATOM     20  O   LIG    1       -0.042  -4.627  -1.317  0.00  0.00    -0.530 OA
BRANCH  17  21
ATOM     21  C   LIG    1       -2.382  -4.328  -1.253  0.00  0.00    +0.330 C 
BRANCH  21  23
ATOM     22  C   LIG    1       -2.364  -6.485  -0.118  0.00  0.00    +0.520 C 
ATOM     23  N   LIG    1       -2.390  -5.793  -1.275  0.00  0.00    -0.600 N 
ATOM     24  C   LIG    1       -2.427  -6.506  -2.554  0.00  0.00    +0.300 C 
ATOM     25  O   LIG    1       -2.334  -5.894   0.941  0.00  0.00    -0.510 OA
BRANCH  22  26
ATOM     26  C   LIG    1       -2.373  -7.992  -0.141  0.00  0.00    +0.210 C 
BRANCH  26  28
ATOM     27  C   LIG    1       -2.346  -9.914   1.289  0.00  0.00    +0.210 C 
ATOM     28  O   LIG    1       -2.341  -8.488   1.198  0.00  0.00    -0.370 OA
ENDBRANCH  26  28
ENDBRANCH  22  26
ENDBRANCH  21  23
ENDBRANCH  17  21
ENDBRANCH  16  18
ENDBRANCH   1  16
TORSDOF 7
