REMARK  Name = ZINCvU00000007mt.0
REMARK                            x       y       z     vdW  Elec       q    Type
REMARK                         _______ _______ _______ _____ _____    ______ ____
ROOT
ATOM      1  N   LIG    1       -4.689  -0.388   0.045  0.00  0.00    -0.210 NA
ATOM      2  C   LIG    1       -5.793  -1.070   0.051  0.00  0.00    +0.120 C 
ATOM      3  C   LIG    1       -7.120  -0.356   0.067  0.00  0.00    +0.100 C 
ENDROOT
BRANCH   2   4
ATOM      4  C   LIG    1       -5.750  -2.544   0.043  0.00  0.00    -0.080 A 
ATOM      5  C   LIG    1       -6.937  -3.280   0.056  0.00  0.00    +0.080 A 
ATOM      6  C   LIG    1       -6.891  -4.658   0.044  0.00  0.00    -0.080 A 
ATOM      7  C   LIG    1       -5.667  -5.314   0.029  0.00  0.00    +0.140 A 
ATOM      8  C   LIG    1       -4.484  -4.586   0.021  0.00  0.00    -0.010 A 
ATOM      9  C   LIG    1       -4.520  -3.208   0.029  0.00  0.00    +0.100 A 
BRANCH   7  10
ATOM     10  O   LIG    1       -5.626  -6.672   0.022  0.00  0.00    -0.290 OA
BRANCH  10  11
ATOM     11  C   LIG    1       -6.880  -7.358   0.031  0.00  0.00    +0.230 C 
BRANCH  11  12
ATOM     12  C   LIG    1       -6.638  -8.846   0.021  0.00  0.00    +0.530 C 
ATOM     13  N   LIG    1       -7.681  -9.698   0.027  0.00  0.00    -0.620 N 
ATOM     14  C   LIG    1       -9.101  -9.315   0.049  0.00  0.00    +0.230 C 
ATOM     15  C   LIG    1       -9.927 -10.618   0.073  0.00  0.00    +0.040 C 
ATOM     16  C   LIG    1       -8.922 -11.654   0.643  0.00  0.00    +0.040 C 
ATOM     17  C   LIG    1       -7.589 -11.170   0.019  0.00  0.00    +0.260 C 
ATOM     18  O   LIG    1       -5.504  -9.276   0.009  0.00  0.00    -0.510 OA
ENDBRANCH  11  12
ENDBRANCH  10  11
ENDBRANCH   7  10
ENDBRANCH   2   4
BRANCH   1  19
ATOM     19  N   LIG    1       -4.731   1.013   0.052  0.00  0.00    -0.560 N 
ATOM     20  H   LIG    1       -5.585   1.472   0.062  0.00  0.00    +0.400 HD
BRANCH  19  24
ATOM     21  C   LIG    1       -2.501   5.378   0.055  0.00  0.00    +0.130 C 
ATOM     22  C   LIG    1       -2.462   3.872   0.046  0.00  0.00    +0.020 A 
ATOM     23  C   LIG    1       -3.612   3.143   0.053  0.00  0.00    -0.070 A 
ATOM     24  C   LIG    1       -3.551   1.741   0.045  0.00  0.00    +0.440 A 
ATOM     25  N   LIG    1       -2.400   1.101   0.031  0.00  0.00    -0.510 NA
ATOM     26  C   LIG    1       -1.238   1.764   0.018  0.00  0.00    +0.180 A 
ATOM     27  C   LIG    1       -0.013   1.076   0.008  0.00  0.00    +0.060 A 
ATOM     28  C   LIG    1        1.156   1.775   0.001  0.00  0.00    +0.060 A 
ATOM     29  C   LIG    1        1.159   3.168   0.008  0.00  0.00    -0.050 A 
ATOM     30  C   LIG    1       -0.010   3.870   0.023  0.00  0.00    +0.070 A 
ATOM     31 CL   LIG    1        2.670   4.022  -0.002  0.00  0.00    -0.070 Cl
ATOM     32  C   LIG    1       -1.232   3.181   0.031  0.00  0.00    -0.140 A 
ENDBRANCH  19  24
ENDBRANCH   1  19
TORSDOF 6
