REMARK  Name = ZINCqH0000001PIK.0
REMARK                            x       y       z     vdW  Elec       q    Type
REMARK                         _______ _______ _______ _____ _____    ______ ____
ROOT
ATOM      1  C   LIG    1        1.661   4.938   5.411  0.00  0.00    +0.580 C 
ATOM      2  N   LIG    1        2.019   6.070   6.049  0.00  0.00    -0.720 N 
ATOM      3  H   LIG    1        1.783   6.933   5.674  0.00  0.00    +0.400 HD
ATOM      4  O   LIG    1        1.956   3.856   5.881  0.00  0.00    -0.520 OA
ENDROOT
BRANCH   1  11
ATOM      5  C   LIG    1       -0.749   3.086   1.275  0.00  0.00    +0.080 A 
ATOM      6  N   LIG    1       -1.285   3.873   0.390  0.00  0.00    -0.300 NA
ATOM      7  O   LIG    1       -1.154   5.047   0.646  0.00  0.00    +0.090 OA
ATOM      8  C   LIG    1       -0.482   5.265   1.790  0.00  0.00    +0.230 A 
ATOM      9  N   LIG    1       -0.103   6.340   2.462  0.00  0.00    -0.460 NA
ATOM     10  C   LIG    1        0.565   6.251   3.591  0.00  0.00    +0.370 A 
ATOM     11  C   LIG    1        0.910   5.011   4.141  0.00  0.00    -0.210 A 
ATOM     12  C   LIG    1        0.534   3.843   3.470  0.00  0.00    +0.230 A 
ATOM     13  C   LIG    1       -0.174   3.979   2.286  0.00  0.00    -0.220 A 
BRANCH   5  15
ATOM     14  C   LIG    1       -0.013   1.086   0.008  0.00  0.00    +0.040 C 
ATOM     15  C   LIG    1       -0.729   1.579   1.267  0.00  0.00    +0.080 C 
ATOM     16  C   LIG    1       -2.164   1.050   1.278  0.00  0.00    +0.040 C 
ENDBRANCH   5  15
ENDBRANCH   1  11
BRANCH   2  17
ATOM     17  C   LIG    1        2.764   5.997   7.309  0.00  0.00    +0.300 C 
ATOM     18  C   LIG    1        4.258   5.866   7.010  0.00  0.00    +0.040 C 
BRANCH  17  19
ATOM     19  C   LIG    1        2.519   7.249   8.110  0.00  0.00    -0.090 A 
ATOM     20  C   LIG    1        2.464   8.476   7.476  0.00  0.00    +0.070 A 
ATOM     21  C   LIG    1        2.239   9.625   8.211  0.00  0.00    +0.040 A 
ATOM     22  C   LIG    1        2.069   9.547   9.581  0.00  0.00    +0.110 A 
ATOM     23  C   LIG    1        2.123   8.320  10.215  0.00  0.00    -0.040 A 
ATOM     24  C   LIG    1        2.343   7.170   9.479  0.00  0.00    +0.120 A 
BRANCH  23  25
ATOM     25  N   LIG    1        1.941   8.236  11.682  0.00  0.00    +0.020 N 
ATOM     26  O   LIG    1        1.989   7.155  12.241  0.00  0.00    -0.150 OA
ATOM     27  O   LIG    1        1.742   9.248  12.329  0.00  0.00    -0.150 OA
ENDBRANCH  23  25
ENDBRANCH  17  19
ENDBRANCH   2  17
TORSDOF 5
