REMARK  Name = ZINCqH00000361Jy.0
REMARK                            x       y       z     vdW  Elec       q    Type
REMARK                         _______ _______ _______ _____ _____    ______ ____
ROOT
ATOM      1  C   LIG    1       -0.715   1.517  -1.310  0.00  0.00    +0.190 C 
ATOM      2  C   LIG    1       -2.005   0.913  -1.869  0.00  0.00    +0.040 C 
ENDROOT
BRANCH   1   6
ATOM      3  N   LIG    1       -1.287   5.014  -2.279  0.00  0.00    -0.690 N 
ATOM      4  H   LIG    1       -1.026   5.485  -1.472  0.00  0.00    +0.400 HD
ATOM      5  C   LIG    1       -1.294   3.667  -2.300  0.00  0.00    +0.710 C 
ATOM      6  N   LIG    1       -0.850   2.974  -1.233  0.00  0.00    -0.740 N 
ATOM      7  H   LIG    1       -0.620   3.439  -0.414  0.00  0.00    +0.400 HD
ATOM      8  O   LIG    1       -1.702   3.076  -3.282  0.00  0.00    -0.560 OA
BRANCH   3  12
ATOM      9  C   LIG    1       -2.387   7.158  -5.683  0.00  0.00    +0.110 A 
ATOM     10  C   LIG    1       -3.018   5.959  -5.385  0.00  0.00    +0.000 A 
ATOM     11  C   LIG    1       -2.654   5.248  -4.258  0.00  0.00    +0.070 A 
ATOM     12  C   LIG    1       -1.657   5.735  -3.423  0.00  0.00    +0.130 A 
ATOM     13  C   LIG    1       -1.030   6.938  -3.719  0.00  0.00    +0.020 A 
ATOM     14  C   LIG    1       -1.391   7.644  -4.849  0.00  0.00    -0.060 A 
BRANCH   9  16
ATOM     15  C   LIG    1       -2.055   9.084  -7.038  0.00  0.00    +0.250 C 
ATOM     16  O   LIG    1       -2.746   7.858  -6.792  0.00  0.00    -0.320 OA
ENDBRANCH   9  16
ENDBRANCH   3  12
ENDBRANCH   1   6
BRANCH   1  17
ATOM     17  C   LIG    1        0.455   1.161  -2.230  0.00  0.00    -0.020 C 
ATOM     18  C   LIG    1        1.757   1.693  -1.628  0.00  0.00    +0.020 C 
ATOM     19  C   LIG    1        0.233   1.795  -3.605  0.00  0.00    +0.040 C 
ENDBRANCH   1  17
BRANCH   1  20
ATOM     20  C   LIG    1       -0.453   0.954   0.088  0.00  0.00    +0.300 C 
BRANCH  20  21
ATOM     21  N   LIG    1       -1.573   1.294   0.969  0.00  0.00    -0.710 N 
ATOM     22  H   LIG    1       -2.323   1.804   0.625  0.00  0.00    +0.410 HD
ATOM     23  C   LIG    1       -1.561   0.900   2.258  0.00  0.00    +0.650 C 
ATOM     24  O   LIG    1       -0.621   0.262   2.689  0.00  0.00    -0.560 OA
BRANCH  23  25
ATOM     25  O   LIG    1       -2.590   1.212   3.067  0.00  0.00    -0.360 OA
BRANCH  25  26
ATOM     26  C   LIG    1       -2.509   0.755   4.443  0.00  0.00    +0.140 C 
ATOM     27  C   LIG    1       -2.416  -0.772   4.468  0.00  0.00    +0.040 C 
ATOM     28  C   LIG    1       -3.760   1.202   5.203  0.00  0.00    +0.080 C 
ATOM     29  C   LIG    1       -1.268   1.352   5.107  0.00  0.00    +0.040 C 
ENDBRANCH  25  26
ENDBRANCH  23  25
ENDBRANCH  20  21
ENDBRANCH   1  20
TORSDOF 8
