REMARK  Name = ZINCrH000004jNnU.2
REMARK                            x       y       z     vdW  Elec       q    Type
REMARK                         _______ _______ _______ _____ _____    ______ ____
ROOT
ATOM      1  C   LIG    1        3.625   1.335  -0.917  0.00  0.00    +0.510 C 
ATOM      2  N   LIG    1        4.538   0.697  -1.676  0.00  0.00    -0.680 N 
ATOM      3  H   LIG    1        4.249   0.140  -2.415  0.00  0.00    +0.410 HD
ATOM      4  O   LIG    1        3.988   2.105  -0.052  0.00  0.00    -0.490 OA
ENDROOT
BRANCH   2   5
ATOM      5  C   LIG    1        5.903   0.837  -1.396  0.00  0.00    +0.160 A 
ATOM      6  C   LIG    1        6.828   0.815  -2.431  0.00  0.00    +0.000 A 
ATOM      7  C   LIG    1        8.177   0.958  -2.160  0.00  0.00    +0.040 A 
ATOM      8  C   LIG    1        8.603   1.115  -0.852  0.00  0.00    +0.050 A 
ATOM      9  O   LIG    1        9.933   1.253  -0.574  0.00  0.00    -0.320 OA
ATOM     10  C   LIG    1       10.541   0.166   0.127  0.00  0.00    +0.220 C 
ATOM     11  C   LIG    1       10.328   0.303   1.626  0.00  0.00    -0.020 C 
ATOM     12  C   LIG    1        8.861   0.199   2.014  0.00  0.00    +0.230 C 
ATOM     13  O   LIG    1        8.114   1.288   1.470  0.00  0.00    -0.320 OA
ATOM     14  C   LIG    1        7.681   1.132   0.185  0.00  0.00    +0.090 A 
ATOM     15  C   LIG    1        6.331   0.994  -0.084  0.00  0.00    +0.030 A 
ENDBRANCH   2   5
BRANCH   1  16
ATOM     16  C   LIG    1        2.155   1.093  -1.142  0.00  0.00    +0.220 C 
BRANCH  16  18
ATOM     17  C   LIG    1        1.411   3.323  -0.561  0.00  0.00    +0.200 C 
ATOM     18  N   LIG    1        1.375   1.901  -0.195  0.00  0.00    -0.510 NA
BRANCH  18  19
ATOM     19  C   LIG    1       -0.009   1.416  -0.104  0.00  0.00    +0.230 C 
ATOM     20  C   LIG    1       -0.604   1.327  -1.508  0.00  0.00    -0.010 C 
ATOM     21  C   LIG    1       -1.960   0.618  -1.414  0.00  0.00    +0.020 C 
ATOM     22  C   LIG    1       -1.714  -0.851  -1.077  0.00  0.00    +0.070 C 
ATOM     23  C   LIG    1       -0.804  -0.975   0.118  0.00  0.00    -0.070 A 
ATOM     24  C   LIG    1       -0.770  -2.194   0.781  0.00  0.00    -0.010 A 
ATOM     25  C   LIG    1        0.046  -2.373   1.880  0.00  0.00    +0.010 A 
ATOM     26  C   LIG    1        0.837  -1.330   2.323  0.00  0.00    -0.010 A 
ATOM     27  C   LIG    1        0.804  -0.117   1.666  0.00  0.00    +0.040 A 
ATOM     28  C   LIG    1       -0.019   0.065   0.561  0.00  0.00    -0.080 A 
ENDBRANCH  18  19
ENDBRANCH  16  18
ENDBRANCH   1  16
TORSDOF 4
