REMARK  Name = ZINCvU0000000G6N.0
REMARK                            x       y       z     vdW  Elec       q    Type
REMARK                         _______ _______ _______ _____ _____    ______ ____
ROOT
ATOM      1  C   LIG    1        1.582   3.662   0.006  0.00  0.00    +0.180 C 
ENDROOT
BRANCH   1   4
ATOM      2  C   LIG    1        1.764   0.025  -0.015  0.00  0.00    +0.110 A 
ATOM      3  N   LIG    1        2.168   1.263  -0.012  0.00  0.00    -0.450 NA
ATOM      4  C   LIG    1        1.242   2.194   0.002  0.00  0.00    +0.070 A 
ATOM      5  C   LIG    1       -0.022   1.758   0.012  0.00  0.00    -0.070 A 
ATOM      6  S   LIG    1        0.002  -0.004   0.002  0.00  0.00    +0.170 S 
BRANCH   2  11
ATOM      7  C   LIG    1        2.918  -3.560  -0.043  0.00  0.00    +0.120 A 
ATOM      8  C   LIG    1        4.294  -3.394  -0.054  0.00  0.00    -0.040 A 
ATOM      9  C   LIG    1        4.844  -2.124  -0.054  0.00  0.00    +0.060 A 
ATOM     10  C   LIG    1        4.029  -1.012  -0.041  0.00  0.00    +0.050 A 
ATOM     11  C   LIG    1        2.641  -1.165  -0.029  0.00  0.00    -0.010 A 
ATOM     12  C   LIG    1        2.084  -2.448  -0.025  0.00  0.00    +0.080 A 
BRANCH   7  14
ATOM     13  C   LIG    1        3.299  -5.907  -0.056  0.00  0.00    +0.240 C 
ATOM     14  O   LIG    1        2.384  -4.811  -0.043  0.00  0.00    -0.300 OA
ENDBRANCH   7  14
BRANCH  12  15
ATOM     15  O   LIG    1        0.735  -2.606  -0.008  0.00  0.00    -0.320 OA
ATOM     16  C   LIG    1        0.074  -2.679  -1.273  0.00  0.00    +0.230 C 
ENDBRANCH  12  15
ENDBRANCH   2  11
ENDBRANCH   1   4
BRANCH   1  17
ATOM     17  S   LIG    1        1.735   4.242   1.718  0.00  0.00    +0.050 S 
BRANCH  17  18
ATOM     18  C   LIG    1        2.129   5.949   1.524  0.00  0.00    +0.210 A 
ATOM     19  N   LIG    1        2.262   6.577   0.379  0.00  0.00    -0.320 NA
ATOM     20  N   LIG    1        2.575   7.912   0.683  0.00  0.00    -0.320 N 
ATOM     21  C   LIG    1        2.610   7.999   2.027  0.00  0.00    +0.330 A 
ATOM     22  N   LIG    1        2.335   6.818   2.519  0.00  0.00    -0.510 NA
BRANCH  20  23
ATOM     23  C   LIG    1        2.806   8.949  -0.231  0.00  0.00    +0.140 A 
ATOM     24  C   LIG    1        2.397  10.242   0.067  0.00  0.00    +0.020 A 
ATOM     25  C   LIG    1        2.631  11.263  -0.834  0.00  0.00    +0.040 A 
ATOM     26  C   LIG    1        3.262  10.996  -2.035  0.00  0.00    +0.020 A 
ATOM     27  C   LIG    1        3.665   9.708  -2.337  0.00  0.00    +0.030 A 
ATOM     28  C   LIG    1        3.439   8.684  -1.438  0.00  0.00    +0.030 A 
ENDBRANCH  20  23
BRANCH  21  29
ATOM     29  C   LIG    1        2.907   9.242   2.825  0.00  0.00    +0.020 C 
ATOM     30  C   LIG    1        3.099   9.084   4.334  0.00  0.00    +0.080 C 
ATOM     31  C   LIG    1        1.827   9.738   3.788  0.00  0.00    +0.060 C 
ENDBRANCH  21  29
ENDBRANCH  17  18
ENDBRANCH   1  17
TORSDOF 8
