REMARK  Name = ZINCpk000000n1I2.0
REMARK                            x       y       z     vdW  Elec       q    Type
REMARK                         _______ _______ _______ _____ _____    ______ ____
ROOT
ATOM      1  C   LIG    1        4.760   0.996  -0.039  0.00  0.00    +0.520 C 
ATOM      2  N   LIG    1        6.001   1.522  -0.048  0.00  0.00    -0.610 N 
ATOM      3  C   LIG    1        6.196   2.978  -0.048  0.00  0.00    +0.280 C 
ATOM      4  C   LIG    1        7.095   3.348   1.145  0.00  0.00    +0.280 C 
ATOM      5  N   LIG    1        8.277   2.474   1.128  0.00  0.00    -0.610 N 
ATOM      6  C   LIG    1        8.081   1.018   1.122  0.00  0.00    +0.290 C 
ATOM      7  C   LIG    1        9.518   3.000   1.119  0.00  0.00    +0.550 C 
ATOM      8  O   LIG    1       10.486   2.269   1.106  0.00  0.00    -0.530 OA
ATOM      9  C   LIG    1        7.183   0.649  -0.065  0.00  0.00    +0.290 C 
ATOM     10  O   LIG    1        4.611  -0.207  -0.044  0.00  0.00    -0.510 OA
ENDROOT
BRANCH   7  11
ATOM     11  C   LIG    1        9.703   4.495   1.125  0.00  0.00    -0.070 C 
ATOM     12  C   LIG    1       10.268   5.143  -0.141  0.00  0.00    +0.060 C 
ATOM     13  C   LIG    1       11.136   5.030   1.114  0.00  0.00    +0.070 C 
ENDBRANCH   7  11
BRANCH   1  14
ATOM     14  C   LIG    1        3.557   1.904  -0.022  0.00  0.00    +0.240 C 
BRANCH  14  15
ATOM     15  O   LIG    1        2.365   1.116  -0.015  0.00  0.00    -0.280 OA
BRANCH  15  19
ATOM     16  C   LIG    1       -1.230   3.139   0.031  0.00  0.00    -0.250 A 
ATOM     17  C   LIG    1       -1.206   1.739   0.017  0.00  0.00    +0.150 A 
ATOM     18  C   LIG    1       -0.013   1.076   0.008  0.00  0.00    -0.020 A 
ATOM     19  C   LIG    1        1.185   1.784   0.000  0.00  0.00    +0.190 A 
ATOM     20  C   LIG    1        1.177   3.174   0.008  0.00  0.00    -0.120 A 
ATOM     21  C   LIG    1       -0.023   3.856   0.023  0.00  0.00    +0.200 A 
ATOM     22  F   LIG    1       -0.035   5.207   0.030  0.00  0.00    -0.110 F 
BRANCH  16  24
ATOM     23  C   LIG    1       -3.804   3.082   0.054  0.00  0.00    +0.080 C 
ATOM     24  C   LIG    1       -2.510   3.854   0.046  0.00  0.00    +0.390 C 
ATOM     25  O   LIG    1       -2.528   5.067   0.052  0.00  0.00    -0.450 OA
ENDBRANCH  16  24
ENDBRANCH  15  19
ENDBRANCH  14  15
ENDBRANCH   1  14
TORSDOF 5
