REMARK  Name = ZINCrH000004p1Pe.0
REMARK                            x       y       z     vdW  Elec       q    Type
REMARK                         _______ _______ _______ _____ _____    ______ ____
ROOT
ATOM      1  C   LIG    1        4.219   2.196  -0.835  0.00  0.00    +0.500 C 
ATOM      2  N   LIG    1        5.328   1.791  -1.484  0.00  0.00    -0.670 N 
ATOM      3  H   LIG    1        5.868   1.072  -1.119  0.00  0.00    +0.410 HD
ATOM      4  O   LIG    1        3.596   3.156  -1.239  0.00  0.00    -0.490 OA
ENDROOT
BRANCH   2   5
ATOM      5  C   LIG    1        5.701   2.406  -2.686  0.00  0.00    +0.120 A 
ATOM      6  C   LIG    1        4.727   2.872  -3.559  0.00  0.00    +0.040 A 
ATOM      7  C   LIG    1        5.094   3.483  -4.742  0.00  0.00    -0.020 A 
ATOM      8  C   LIG    1        6.438   3.622  -5.063  0.00  0.00    +0.100 A 
ATOM      9  C   LIG    1        7.412   3.152  -4.192  0.00  0.00    +0.010 A 
ATOM     10  C   LIG    1        7.045   2.546  -3.007  0.00  0.00    +0.020 A 
BRANCH   8  11
ATOM     11  N   LIG    1        6.810   4.236  -6.263  0.00  0.00    -0.490 N 
ATOM     12  C   LIG    1        7.714   5.368  -6.018  0.00  0.00    +0.180 C 
ATOM     13  C   LIG    1        8.214   5.922  -7.354  0.00  0.00    +0.020 C 
ATOM     14  C   LIG    1        7.016   6.374  -8.194  0.00  0.00    +0.010 C 
ATOM     15  C   LIG    1        6.067   5.189  -8.394  0.00  0.00    +0.020 C 
ATOM     16  C   LIG    1        5.629   4.656  -7.028  0.00  0.00    +0.180 C 
ENDBRANCH   8  11
ENDBRANCH   2   5
BRANCH   1  18
ATOM     17  C   LIG    1        4.845   1.505   1.463  0.00  0.00    +0.080 C 
ATOM     18  C   LIG    1        3.752   1.458   0.393  0.00  0.00    +0.280 C 
BRANCH  18  19
ATOM     19  N   LIG    1        2.535   2.090   0.910  0.00  0.00    -0.540 N 
ATOM     20  C   LIG    1        2.415   3.365   1.328  0.00  0.00    +0.650 A 
ATOM     21  O   LIG    1        1.154   3.587   1.731  0.00  0.00    -0.240 OA
ATOM     22  C   LIG    1        0.432   2.450   1.580  0.00  0.00    +0.040 A 
ATOM     23  C   LIG    1       -0.892   2.130   1.836  0.00  0.00    +0.060 A 
ATOM     24  C   LIG    1       -1.356   0.855   1.574  0.00  0.00    +0.030 A 
ATOM     25  C   LIG    1       -0.505  -0.105   1.056  0.00  0.00    +0.040 A 
ATOM     26  C   LIG    1        0.817   0.205   0.797  0.00  0.00    +0.030 A 
ATOM     27  O   LIG    1        3.310   4.188   1.337  0.00  0.00    -0.470 OA
ATOM     28  C   LIG    1        1.289   1.481   1.058  0.00  0.00    +0.070 A 
ENDBRANCH  18  19
ENDBRANCH   1  18
TORSDOF 4
