REMARK  Name = ZINCvU0000000BNg.0
REMARK                            x       y       z     vdW  Elec       q    Type
REMARK                         _______ _______ _______ _____ _____    ______ ____
ROOT
ATOM      1  C   LIG    1        2.193   1.538   0.561  0.00  0.00    -0.170 A 
ATOM      2  C   LIG    1        2.314   0.146   0.605  0.00  0.00    +0.090 A 
ATOM      3  C   LIG    1        1.196  -0.645   0.456  0.00  0.00    -0.020 A 
ATOM      4  C   LIG    1       -0.049  -0.068   0.262  0.00  0.00    +0.090 A 
ATOM      5  C   LIG    1       -0.182   1.306   0.216  0.00  0.00    -0.080 A 
ATOM      6  C   LIG    1        0.932   2.118   0.365  0.00  0.00    +0.190 A 
ENDROOT
BRANCH   1   9
ATOM      7  N   LIG    1        4.596   1.829   0.909  0.00  0.00    -0.670 N 
ATOM      8  H   LIG    1        4.674   0.867   1.007  0.00  0.00    +0.410 HD
ATOM      9  C   LIG    1        3.386   2.391   0.720  0.00  0.00    +0.550 C 
ATOM     10  O   LIG    1        3.277   3.601   0.681  0.00  0.00    -0.480 OA
BRANCH   7  17
ATOM     11  C   LIG    1       10.453   5.221   0.861  0.00  0.00    +0.180 C 
ATOM     12  C   LIG    1        9.005   5.262   1.275  0.00  0.00    +0.130 A 
ATOM     13  N   LIG    1        8.408   6.239   1.887  0.00  0.00    -0.290 NA
ATOM     14  O   LIG    1        7.052   5.909   2.106  0.00  0.00    -0.090 OA
ATOM     15  C   LIG    1        6.806   4.679   1.610  0.00  0.00    +0.110 A 
ATOM     16  C   LIG    1        5.671   3.883   1.555  0.00  0.00    +0.020 A 
ATOM     17  C   LIG    1        5.738   2.632   0.964  0.00  0.00    +0.210 A 
ATOM     18  C   LIG    1        6.938   2.166   0.428  0.00  0.00    -0.030 A 
ATOM     19  C   LIG    1        8.060   2.942   0.470  0.00  0.00    +0.120 A 
ATOM     20  C   LIG    1        8.012   4.206   1.063  0.00  0.00    -0.210 A 
ENDBRANCH   7  17
ENDBRANCH   1   9
BRANCH   6  21
ATOM     21  O   LIG    1        0.802   3.467   0.320  0.00  0.00    -0.260 OA
BRANCH  21  22
ATOM     22  C   LIG    1       -0.513   3.986   0.116  0.00  0.00    +0.240 C 
BRANCH  22  23
ATOM     23  C   LIG    1       -0.462   5.492   0.094  0.00  0.00    +0.510 C 
ATOM     24  N   LIG    1       -1.593   6.203  -0.086  0.00  0.00    -0.670 N 
ATOM     25  H   LIG    1       -2.449   5.749  -0.128  0.00  0.00    +0.410 HD
ATOM     26  O   LIG    1        0.598   6.065   0.239  0.00  0.00    -0.470 OA
BRANCH  24  27
ATOM     27  C   LIG    1       -1.531   7.595  -0.212  0.00  0.00    +0.160 A 
ATOM     28  C   LIG    1       -2.566   8.384   0.274  0.00  0.00    +0.000 A 
ATOM     29  C   LIG    1       -2.500   9.758   0.152  0.00  0.00    +0.070 A 
ATOM     30  C   LIG    1       -1.410  10.348  -0.462  0.00  0.00    -0.110 A 
ATOM     31  C   LIG    1       -0.381   9.565  -0.953  0.00  0.00    +0.070 A 
ATOM     32 BR   LIG    1       -1.328  12.230  -0.634  0.00  0.00    -0.050 Br
ATOM     33  C   LIG    1       -0.439   8.190  -0.829  0.00  0.00    +0.020 A 
ENDBRANCH  24  27
ENDBRANCH  22  23
ENDBRANCH  21  22
ENDBRANCH   6  21
TORSDOF 6
