REMARK  Name = ZINCqH0000035ff3.0
REMARK                            x       y       z     vdW  Elec       q    Type
REMARK                         _______ _______ _______ _____ _____    ______ ____
ROOT
ATOM      1  N   LIG    1       -2.401   5.732  -1.193  0.00  0.00    -0.670 N 
ATOM      2  H   LIG    1       -1.720   6.243  -1.657  0.00  0.00    +0.410 HD
ATOM      3  C   LIG    1       -3.453   6.363  -0.633  0.00  0.00    +0.580 C 
ATOM      4  O   LIG    1       -4.318   5.720  -0.069  0.00  0.00    -0.470 OA
ENDROOT
BRANCH   3   5
ATOM      5  C   LIG    1       -3.555   7.826  -0.705  0.00  0.00    +0.050 A 
ATOM      6  C   LIG    1       -4.713   8.539  -0.680  0.00  0.00    -0.090 A 
ATOM      7  C   LIG    1       -4.377   9.912  -0.770  0.00  0.00    -0.100 A 
ATOM      8  C   LIG    1       -5.136  11.088  -0.792  0.00  0.00    +0.070 A 
ATOM      9  C   LIG    1       -4.512  12.298  -0.888  0.00  0.00    -0.010 A 
ATOM     10  C   LIG    1       -3.127  12.375  -0.968  0.00  0.00    +0.050 A 
ATOM     11  C   LIG    1       -2.358  11.232  -0.949  0.00  0.00    +0.000 A 
ATOM     12  C   LIG    1       -2.972   9.987  -0.850  0.00  0.00    +0.120 A 
ATOM     13 BR   LIG    1       -6.459   7.824  -0.548  0.00  0.00    +0.010 Br
ATOM     14  N   LIG    1       -2.488   8.701  -0.803  0.00  0.00    -0.460 N 
ATOM     15  C   LIG    1       -1.075   8.319  -0.852  0.00  0.00    +0.340 C 
ENDBRANCH   3   5
BRANCH   1  20
ATOM     16  C   LIG    1       -0.941   2.368  -0.889  0.00  0.00    +0.160 A 
ATOM     17  C   LIG    1       -2.086   1.583  -0.929  0.00  0.00    -0.020 A 
ATOM     18  C   LIG    1       -3.328   2.175  -1.055  0.00  0.00    +0.050 A 
ATOM     19  C   LIG    1       -3.434   3.550  -1.143  0.00  0.00    +0.010 A 
ATOM     20  C   LIG    1       -2.293   4.341  -1.104  0.00  0.00    +0.160 A 
ATOM     21  C   LIG    1       -1.045   3.749  -0.971  0.00  0.00    -0.010 A 
BRANCH  16  23
ATOM     22  C   LIG    1        1.383   2.294  -1.393  0.00  0.00    +0.510 C 
ATOM     23  N   LIG    1        0.317   1.767  -0.761  0.00  0.00    -0.670 N 
ATOM     24  H   LIG    1        0.421   0.972  -0.214  0.00  0.00    +0.410 HD
ATOM     25  O   LIG    1        1.239   3.236  -2.145  0.00  0.00    -0.500 OA
BRANCH  22  26
ATOM     26  C   LIG    1        2.756   1.715  -1.167  0.00  0.00    +0.220 C 
BRANCH  26  28
ATOM     27  C   LIG    1        5.054   1.969  -1.799  0.00  0.00    +0.220 C 
ATOM     28  O   LIG    1        3.713   2.440  -1.942  0.00  0.00    -0.370 OA
ENDBRANCH  26  28
ENDBRANCH  22  26
ENDBRANCH  16  23
ENDBRANCH   1  20
TORSDOF 5
