REMARK  Name = ZINCpk00000y6umt.0
REMARK                            x       y       z     vdW  Elec       q    Type
REMARK                         _______ _______ _______ _____ _____    ______ ____
ROOT
ATOM      1  C   LIG    1       -0.225   1.517  -0.162  0.00  0.00    +0.270 C 
ATOM      2  C   LIG    1        1.271   1.809  -0.022  0.00  0.00    +0.020 C 
ATOM      3  C   LIG    1        1.470   3.308   0.222  0.00  0.00    +0.050 C 
ATOM      4  C   LIG    1        0.695   3.723   1.475  0.00  0.00    +0.190 C 
ATOM      5  N   LIG    1       -0.731   3.424   1.290  0.00  0.00    -0.490 N 
ATOM      6  C   LIG    1       -0.952   1.984   1.101  0.00  0.00    +0.200 C 
ENDROOT
BRANCH   1  10
ATOM      7  N   LIG    1       -1.074  -1.816  -1.327  0.00  0.00    -0.620 N 
ATOM      8  C   LIG    1       -0.456  -2.188  -0.042  0.00  0.00    +0.320 C 
ATOM      9  C   LIG    1       -0.046  -0.857   0.555  0.00  0.00    +0.520 C 
ATOM     10  N   LIG    1       -0.428   0.077  -0.339  0.00  0.00    -0.570 N 
ATOM     11  O   LIG    1        0.510  -0.670   1.616  0.00  0.00    -0.470 OA
ATOM     12  C   LIG    1       -1.011  -0.474  -1.409  0.00  0.00    +0.700 C 
ATOM     13  O   LIG    1       -1.435   0.165  -2.352  0.00  0.00    -0.540 OA
BRANCH   7  14
ATOM     14  C   LIG    1       -1.645  -2.728  -2.321  0.00  0.00    +0.360 C 
BRANCH  14  15
ATOM     15  C   LIG    1       -0.559  -3.146  -3.313  0.00  0.00    +0.170 C 
BRANCH  15  17
ATOM     16  C   LIG    1        1.508  -4.348  -3.474  0.00  0.00    +0.200 C 
ATOM     17  O   LIG    1        0.441  -3.906  -2.633  0.00  0.00    -0.390 OA
ENDBRANCH  15  17
ENDBRANCH  14  15
ENDBRANCH   7  14
ENDBRANCH   1  10
BRANCH   5  18
ATOM     18  C   LIG    1       -1.484   3.907   2.355  0.00  0.00    +0.160 A 
ATOM     19  C   LIG    1       -2.122   3.025   3.216  0.00  0.00    -0.040 A 
ATOM     20  C   LIG    1       -2.864   3.507   4.276  0.00  0.00    +0.070 A 
ATOM     21  C   LIG    1       -2.987   4.872   4.482  0.00  0.00    -0.010 A 
ATOM     22  C   LIG    1       -2.365   5.763   3.635  0.00  0.00    +0.090 A 
ATOM     23  C   LIG    1       -1.606   5.290   2.562  0.00  0.00    -0.050 A 
BRANCH  23  24
ATOM     24  C   LIG    1       -0.957   6.211   1.677  0.00  0.00    +0.260 C 
ATOM     25  N   LIG    1       -0.443   6.942   0.976  0.00  0.00    -0.410 NA
ENDBRANCH  23  24
ENDBRANCH   5  18
TORSDOF 6
