REMARK  Name = ZINCnE000001TyRA.0
REMARK                            x       y       z     vdW  Elec       q    Type
REMARK                         _______ _______ _______ _____ _____    ______ ____
ROOT
ATOM      1  N   LIG    1       -3.734   1.690  -0.495  0.00  0.00    -0.550 N 
ATOM      2  C   LIG    1       -3.362   0.673  -1.296  0.00  0.00    +0.720 C 
ATOM      3  N   LIG    1       -3.457  -0.599  -0.859  0.00  0.00    -0.530 N 
ATOM      4  O   LIG    1       -2.941   0.901  -2.414  0.00  0.00    -0.560 OA
ENDROOT
BRANCH   3   5
ATOM      5  C   LIG    1       -3.989  -0.865   0.408  0.00  0.00    +0.150 A 
ATOM      6  C   LIG    1       -3.146  -0.994   1.504  0.00  0.00    +0.030 A 
ATOM      7  C   LIG    1       -3.674  -1.253   2.754  0.00  0.00    +0.020 A 
ATOM      8  C   LIG    1       -5.040  -1.393   2.913  0.00  0.00    +0.010 A 
ATOM      9  C   LIG    1       -5.882  -1.270   1.823  0.00  0.00    +0.020 A 
ATOM     10  C   LIG    1       -5.361  -1.007   0.572  0.00  0.00    +0.000 A 
ENDBRANCH   3   5
BRANCH   3  11
ATOM     11  C   LIG    1       -3.024  -1.653  -1.673  0.00  0.00    +0.180 A 
ATOM     12  C   LIG    1       -2.457  -1.388  -2.912  0.00  0.00    +0.020 A 
ATOM     13  C   LIG    1       -2.027  -2.430  -3.710  0.00  0.00    +0.020 A 
ATOM     14  C   LIG    1       -2.170  -3.736  -3.281  0.00  0.00    -0.040 A 
ATOM     15  C   LIG    1       -2.739  -4.004  -2.049  0.00  0.00    +0.020 A 
ATOM     16  C   LIG    1       -3.167  -2.966  -1.244  0.00  0.00    -0.040 A 
ENDBRANCH   3  11
BRANCH   1  17
ATOM     17  C   LIG    1       -4.074   1.433   0.907  0.00  0.00    +0.180 C 
ATOM     18  C   LIG    1       -4.263   2.644   1.822  0.00  0.00    +0.010 C 
ATOM     19  C   LIG    1       -3.017   1.765   1.962  0.00  0.00    +0.020 C 
ENDBRANCH   1  17
BRANCH   1  20
ATOM     20  C   LIG    1       -3.799   3.055  -1.025  0.00  0.00    +0.220 C 
BRANCH  20  22
ATOM     21  O   LIG    1       -1.544   3.126  -0.314  0.00  0.00    -0.680 OA
ATOM     22  C   LIG    1       -2.464   3.729  -0.840  0.00  0.00    +0.490 C 
ATOM     23  O   LIG    1       -2.302   4.876  -1.221  0.00  0.00    -0.700 OA
ENDBRANCH  20  22
ENDBRANCH   1  20
TORSDOF 5
