REMARK  Name = ZINCrH000004rCFs.0
REMARK                            x       y       z     vdW  Elec       q    Type
REMARK                         _______ _______ _______ _____ _____    ______ ____
ROOT
ATOM      1  C   LIG    1       -3.180   1.340   1.081  0.00  0.00    +0.200 C 
ATOM      2  C   LIG    1       -2.413   1.106  -0.226  0.00  0.00    +0.280 C 
ATOM      3  N   LIG    1       -1.131   1.826  -0.147  0.00  0.00    -0.600 N 
ATOM      4  C   LIG    1       -1.157   3.242   0.253  0.00  0.00    +0.250 C 
ATOM      5  C   LIG    1       -1.986   3.373   1.531  0.00  0.00    +0.220 C 
ATOM      6  C   LIG    1        0.032   1.205  -0.427  0.00  0.00    +0.590 C 
ATOM      7  O   LIG    1        0.033   0.030  -0.745  0.00  0.00    -0.530 OA
ATOM      8  O   LIG    1       -3.255   2.744   1.337  0.00  0.00    -0.370 OA
ENDROOT
BRANCH   1  13
ATOM      9  C   LIG    1       -8.514  -0.829   0.602  0.00  0.00    +0.090 C 
ATOM     10  C   LIG    1       -7.123  -0.263   0.727  0.00  0.00    -0.080 A 
ATOM     11  C   LIG    1       -6.895   1.075   0.466  0.00  0.00    -0.010 A 
ATOM     12  C   LIG    1       -5.620   1.595   0.586  0.00  0.00    +0.050 A 
ATOM     13  C   LIG    1       -4.571   0.774   0.956  0.00  0.00    -0.100 A 
ATOM     14  C   LIG    1       -4.799  -0.564   1.217  0.00  0.00    -0.070 A 
ATOM     15  C   LIG    1       -3.657  -1.457   1.627  0.00  0.00    +0.090 C 
ATOM     16  C   LIG    1       -6.075  -1.083   1.103  0.00  0.00    +0.000 A 
ENDBRANCH   1  13
BRANCH   6  17
ATOM     17  C   LIG    1        1.295   1.947  -0.354  0.00  0.00    -0.080 A 
ATOM     18  C   LIG    1        1.460   3.298  -0.475  0.00  0.00    +0.230 A 
ATOM     19  N   LIG    1        2.760   3.564  -0.347  0.00  0.00    -0.490 NA
ATOM     20  C   LIG    1        3.422   2.451  -0.159  0.00  0.00    +0.440 A 
ATOM     21  N   LIG    1        2.558   1.418  -0.156  0.00  0.00    -0.380 N 
BRANCH  21  22
ATOM     22  C   LIG    1        2.877   0.064   0.016  0.00  0.00    +0.110 A 
ATOM     23  C   LIG    1        2.267  -0.671   1.024  0.00  0.00    +0.030 A 
ATOM     24  C   LIG    1        2.580  -2.006   1.188  0.00  0.00    +0.030 A 
ATOM     25  C   LIG    1        3.507  -2.608   0.357  0.00  0.00    +0.030 A 
ATOM     26  C   LIG    1        4.119  -1.877  -0.644  0.00  0.00    +0.030 A 
ATOM     27  C   LIG    1        3.807  -0.543  -0.817  0.00  0.00    +0.020 A 
ENDBRANCH  21  22
ENDBRANCH   6  17
TORSDOF 3
