REMARK  Name = ZINCvU00000003Nm.0
REMARK                            x       y       z     vdW  Elec       q    Type
REMARK                         _______ _______ _______ _____ _____    ______ ____
ROOT
ATOM      1  N   LIG    1        0.073  -0.458   1.143  0.00  0.00    -0.610 N 
ATOM      2  C   LIG    1       -1.074  -0.564   1.843  0.00  0.00    +0.560 C 
ATOM      3  O   LIG    1       -2.110  -0.124   1.382  0.00  0.00    -0.520 OA
ATOM      4  C   LIG    1        1.337  -0.901   1.737  0.00  0.00    +0.280 C 
ENDROOT
BRANCH   2   5
ATOM      5  C   LIG    1       -1.073  -1.215   3.170  0.00  0.00    -0.120 A 
ATOM      6  C   LIG    1       -0.039  -0.963   4.073  0.00  0.00    +0.030 A 
ATOM      7  C   LIG    1       -0.040  -1.572   5.311  0.00  0.00    +0.030 A 
ATOM      8  C   LIG    1       -1.063  -2.433   5.662  0.00  0.00    -0.090 A 
ATOM      9  C   LIG    1       -2.098  -2.690   4.770  0.00  0.00    +0.140 A 
ATOM     10  C   LIG    1       -1.058  -3.093   7.017  0.00  0.00    +0.100 C 
ATOM     11  C   LIG    1       -2.108  -2.079   3.526  0.00  0.00    +0.080 A 
BRANCH   9  12
ATOM     12  N   LIG    1       -3.131  -3.561   5.131  0.00  0.00    -0.660 N 
ATOM     13  H   LIG    1       -2.947  -4.322   5.703  0.00  0.00    +0.420 HD
ATOM     14  C   LIG    1       -4.383  -3.343   4.682  0.00  0.00    +0.600 C 
ATOM     15  O   LIG    1       -4.600  -2.440   3.896  0.00  0.00    -0.490 OA
BRANCH  14  16
ATOM     16  C   LIG    1       -5.485  -4.194   5.142  0.00  0.00    -0.090 A 
ATOM     17  C   LIG    1       -6.794  -4.084   4.769  0.00  0.00    +0.050 A 
ATOM     18  C   LIG    1       -7.494  -5.095   5.446  0.00  0.00    -0.060 A 
ATOM     19  C   LIG    1       -6.593  -5.770   6.193  0.00  0.00    +0.210 A 
ATOM     20  O   LIG    1       -5.383  -5.228   6.003  0.00  0.00    -0.170 OA
ENDBRANCH  14  16
ENDBRANCH   9  12
ENDBRANCH   2   5
BRANCH   1  21
ATOM     21  C   LIG    1        0.057   0.102  -0.211  0.00  0.00    +0.380 C 
BRANCH  21  23
ATOM     22  C   LIG    1        1.423   2.252  -0.173  0.00  0.00    +0.050 A 
ATOM     23  C   LIG    1        0.256   1.594  -0.141  0.00  0.00    -0.190 A 
ATOM     24  C   LIG    1       -0.788   2.619  -0.029  0.00  0.00    -0.110 A 
ATOM     25  C   LIG    1       -2.179   2.587   0.059  0.00  0.00    +0.080 A 
ATOM     26  C   LIG    1       -2.882   3.767   0.165  0.00  0.00    -0.010 A 
ATOM     27  C   LIG    1       -2.210   4.981   0.192  0.00  0.00    +0.040 A 
ATOM     28  C   LIG    1       -0.835   5.026   0.113  0.00  0.00    +0.020 A 
ATOM     29  C   LIG    1       -0.107   3.847   0.005  0.00  0.00    +0.050 A 
ATOM     30  O   LIG    1        1.210   3.577  -0.088  0.00  0.00    -0.190 OA
BRANCH  22  32
ATOM     31  C   LIG    1        3.151   1.460  -1.765  0.00  0.00    +0.040 C 
ATOM     32  C   LIG    1        2.777   1.601  -0.288  0.00  0.00    +0.130 C 
ENDBRANCH  22  32
ENDBRANCH  21  23
ENDBRANCH   1  21
TORSDOF 6
