REMARK  Name = ZINCvU00000004M0.0
REMARK                            x       y       z     vdW  Elec       q    Type
REMARK                         _______ _______ _______ _____ _____    ______ ____
ROOT
ATOM      1  C   LIG    1        1.002   6.747   0.017  0.00  0.00    +0.210 A 
ATOM      2  N   LIG    1       -0.108   6.034   0.006  0.00  0.00    -0.460 NA
ATOM      3  C   LIG    1       -0.099   4.701  -0.012  0.00  0.00    +0.150 A 
ATOM      4  C   LIG    1       -1.300   3.967  -0.025  0.00  0.00    +0.070 A 
ATOM      5  C   LIG    1       -1.259   2.607  -0.050  0.00  0.00    +0.060 A 
ATOM      6  C   LIG    1       -0.045   1.923  -0.051  0.00  0.00    -0.090 A 
ATOM      7  C   LIG    1        1.139   2.602  -0.038  0.00  0.00    +0.090 A 
ATOM      8 BR   LIG    1       -0.037   0.032  -0.077  0.00  0.00    -0.040 Br
ATOM      9  C   LIG    1        1.134   4.000  -0.019  0.00  0.00    -0.080 A 
ATOM     10  C   LIG    1        2.380   4.768  -0.006  0.00  0.00    -0.050 A 
ATOM     11  C   LIG    1        2.276   6.150   0.012  0.00  0.00    +0.020 A 
ENDROOT
BRANCH  10  12
ATOM     12  C   LIG    1        3.698   4.096  -0.012  0.00  0.00    +0.560 C 
ATOM     13  N   LIG    1        4.609   4.391   0.936  0.00  0.00    -0.600 N 
ATOM     14  C   LIG    1        5.965   3.829   0.872  0.00  0.00    +0.290 C 
ATOM     15  C   LIG    1        6.274   3.134   2.202  0.00  0.00    -0.020 C 
ATOM     16  C   LIG    1        6.056   4.120   3.351  0.00  0.00    +0.030 C 
ATOM     17  C   LIG    1        4.593   4.570   3.370  0.00  0.00    -0.020 C 
ATOM     18  C   LIG    1        4.370   5.530   4.539  0.00  0.00    +0.030 C 
ATOM     19  C   LIG    1        4.267   5.286   2.050  0.00  0.00    +0.270 C 
ATOM     20  O   LIG    1        3.959   3.279  -0.872  0.00  0.00    -0.510 OA
BRANCH  15  21
ATOM     21  C   LIG    1        7.728   2.659   2.204  0.00  0.00    +0.180 C 
BRANCH  21  22
ATOM     22  O   LIG    1        7.902   1.654   1.202  0.00  0.00    -0.570 OA
ATOM     23  H   LIG    1        8.803   1.306   1.147  0.00  0.00    +0.380 HD
ENDBRANCH  21  22
ENDBRANCH  15  21
ENDBRANCH  10  12
BRANCH   1  25
ATOM     24  C   LIG    1       -0.301   8.809   0.043  0.00  0.00    +0.100 C 
ATOM     25  C   LIG    1        0.904   8.216   0.037  0.00  0.00    +0.000 C 
BRANCH  24  31
ATOM     26  C   LIG    1       -3.084  12.947   0.091  0.00  0.00    +0.090 C 
ATOM     27  C   LIG    1       -1.735  12.276   0.086  0.00  0.00    -0.090 A 
ATOM     28  C   LIG    1       -0.583  13.042   0.099  0.00  0.00    +0.010 A 
ATOM     29  C   LIG    1        0.660  12.435   0.094  0.00  0.00    +0.010 A 
ATOM     30  C   LIG    1        0.760  11.060   0.076  0.00  0.00    +0.020 A 
ATOM     31  C   LIG    1       -0.399  10.279   0.063  0.00  0.00    -0.070 A 
ATOM     32  C   LIG    1       -1.651  10.899   0.063  0.00  0.00    +0.030 A 
ENDBRANCH  24  31
ENDBRANCH   1  25
TORSDOF 5
