REMARK  Name = ZINCtV000002PPqu.0
REMARK                            x       y       z     vdW  Elec       q    Type
REMARK                         _______ _______ _______ _____ _____    ______ ____
ROOT
ATOM      1  C   LIG    1        6.038   1.633   0.286  0.00  0.00    +0.150 C 
ENDROOT
BRANCH   1   2
ATOM      2  C   LIG    1        7.364   0.922   0.382  0.00  0.00    -0.130 A 
ATOM      3  C   LIG    1        8.009   0.508  -0.768  0.00  0.00    +0.080 A 
ATOM      4  C   LIG    1        9.227  -0.138  -0.683  0.00  0.00    -0.080 A 
ATOM      5  C   LIG    1        9.796  -0.383   0.558  0.00  0.00    +0.140 A 
ATOM      6  C   LIG    1        9.144   0.029   1.711  0.00  0.00    -0.010 A 
ATOM      7  C   LIG    1        7.929   0.681   1.621  0.00  0.00    +0.090 A 
BRANCH   5   8
ATOM      8  O   LIG    1       10.991  -1.024   0.645  0.00  0.00    -0.310 OA
BRANCH   8   9
ATOM      9  C   LIG    1       11.606  -1.419  -0.583  0.00  0.00    +0.260 C 
BRANCH   9  10
ATOM     10  C   LIG    1       12.913  -2.111  -0.291  0.00  0.00    -0.050 A 
ATOM     11  C   LIG    1       14.095  -1.391  -0.213  0.00  0.00    -0.010 A 
ATOM     12  C   LIG    1       15.273  -2.058   0.061  0.00  0.00    +0.260 A 
ATOM     13  N   LIG    1       15.283  -3.365   0.237  0.00  0.00    -0.480 NA
ATOM     14  C   LIG    1       14.179  -4.083   0.165  0.00  0.00    +0.260 A 
ATOM     15  C   LIG    1       12.962  -3.483  -0.101  0.00  0.00    -0.010 A 
ENDBRANCH   9  10
ENDBRANCH   8   9
ENDBRANCH   5   8
ENDBRANCH   1   2
BRANCH   1  16
ATOM     16  S   LIG    1        6.317   3.418   0.171  0.00  0.00    +0.090 S 
BRANCH  16  20
ATOM     17  S   LIG    1        1.034   6.291  -0.214  0.00  0.00    -0.390 S 
ATOM     18  C   LIG    1        2.374   5.232  -0.093  0.00  0.00    +0.220 A 
ATOM     19  S   LIG    1        4.095   5.661  -0.063  0.00  0.00    +0.150 S 
ATOM     20  C   LIG    1        4.651   3.982   0.074  0.00  0.00    +0.040 A 
ATOM     21  N   LIG    1        3.575   3.257   0.092  0.00  0.00    -0.260 NA
ATOM     22  N   LIG    1        2.356   3.889   0.000  0.00  0.00    -0.300 N 
BRANCH  22  23
ATOM     23  C   LIG    1        1.155   3.171   0.008  0.00  0.00    +0.120 A 
ATOM     24  C   LIG    1        0.997   2.069  -0.823  0.00  0.00    +0.060 A 
ATOM     25  C   LIG    1       -0.190   1.363  -0.814  0.00  0.00    +0.050 A 
ATOM     26  C   LIG    1       -1.223   1.755   0.019  0.00  0.00    -0.020 A 
ATOM     27  C   LIG    1       -1.067   2.849   0.853  0.00  0.00    +0.050 A 
ATOM     28 CL   LIG    1       -2.716   0.869   0.024  0.00  0.00    -0.050 Cl
ATOM     29  C   LIG    1        0.117   3.559   0.847  0.00  0.00    +0.090 A 
ENDBRANCH  22  23
ENDBRANCH  16  20
ENDBRANCH   1  16
TORSDOF 7
