REMARK  Name = ZINCpe00000MJL7Z.0
REMARK                            x       y       z     vdW  Elec       q    Type
REMARK                         _______ _______ _______ _____ _____    ______ ____
ROOT
ATOM      1  C   LIG    1       -0.513   1.327  -1.210  0.00  0.00    +0.240 C 
ATOM      2  C   LIG    1       -2.031   1.133  -1.253  0.00  0.00    +0.010 C 
ATOM      3  C   LIG    1       -2.685   1.979  -0.158  0.00  0.00    +0.020 C 
ATOM      4  C   LIG    1       -2.177   1.517   1.211  0.00  0.00    +0.290 C 
ATOM      5  N   LIG    1       -0.706   1.562   1.213  0.00  0.00    -0.570 N 
ATOM      6  C   LIG    1        0.019   0.857   0.147  0.00  0.00    +0.290 C 
ENDROOT
BRANCH   5   7
ATOM      7  C   LIG    1       -0.017   2.258   2.197  0.00  0.00    +0.350 A 
ATOM      8  N   LIG    1        1.287   2.417   2.113  0.00  0.00    -0.510 NA
ATOM      9  C   LIG    1        1.954   3.087   3.052  0.00  0.00    +0.200 A 
ATOM     10  C   LIG    1        1.329   3.619   4.124  0.00  0.00    +0.150 A 
ATOM     11  N   LIG    1       -0.019   3.491   4.282  0.00  0.00    -0.480 N 
ATOM     12  C   LIG    1       -0.688   4.072   5.449  0.00  0.00    +0.330 C 
ATOM     13  C   LIG    1       -0.731   2.822   3.348  0.00  0.00    +0.480 A 
ATOM     14  O   LIG    1       -1.938   2.690   3.459  0.00  0.00    -0.530 OA
ENDBRANCH   5   7
BRANCH   1  16
ATOM     15  C   LIG    1        0.213   1.054  -3.520  0.00  0.00    +0.680 C 
ATOM     16  N   LIG    1        0.110   0.541  -2.278  0.00  0.00    -0.710 N 
ATOM     17  H   LIG    1        0.449  -0.349  -2.091  0.00  0.00    +0.400 HD
ATOM     18  O   LIG    1       -0.213   2.171  -3.755  0.00  0.00    -0.650 OA
BRANCH  15  25
ATOM     19  C   LIG    1        1.857   0.761  -9.292  0.00  0.00    +0.180 C 
ATOM     20  C   LIG    1        1.365   1.048  -7.897  0.00  0.00    +0.180 A 
ATOM     21  C   LIG    1        1.455   0.207  -6.845  0.00  0.00    -0.100 A 
ATOM     22  C   LIG    1        0.883   0.842  -5.721  0.00  0.00    +0.490 A 
ATOM     23  N   LIG    1        0.445   2.079  -6.131  0.00  0.00    -0.490 N 
ATOM     24  H   LIG    1        0.004   2.744  -5.580  0.00  0.00    +0.450 HD
ATOM     25  N   LIG    1        0.782   0.336  -4.496  0.00  0.00    -0.660 NA
ATOM     26  N   LIG    1        0.757   2.200  -7.492  0.00  0.00    -0.390 N 
ATOM     27  C   LIG    1        0.472   3.363  -8.337  0.00  0.00    +0.360 C 
ENDBRANCH  15  25
ENDBRANCH   1  16
TORSDOF 3
