REMARK  Name = ZINCvU00000006Rj.0
REMARK                            x       y       z     vdW  Elec       q    Type
REMARK                         _______ _______ _______ _____ _____    ______ ____
ROOT
ATOM      1  C   LIG    1        1.162   5.598  -1.459  0.00  0.00    +0.520 C 
ATOM      2  N   LIG    1        1.750   6.002  -2.603  0.00  0.00    -0.610 N 
ATOM      3  C   LIG    1        1.528   5.271  -3.858  0.00  0.00    +0.280 C 
ATOM      4  C   LIG    1        2.881   4.899  -4.462  0.00  0.00    +0.010 C 
ATOM      5  C   LIG    1        3.735   6.160  -4.612  0.00  0.00    +0.030 C 
ATOM      6  C   LIG    1        3.974   6.782  -3.234  0.00  0.00    +0.030 C 
ATOM      7  C   LIG    1        2.630   7.179  -2.617  0.00  0.00    +0.330 C 
ATOM      8  O   LIG    1        1.423   6.154  -0.414  0.00  0.00    -0.510 OA
ENDROOT
BRANCH   7   9
ATOM      9  C   LIG    1        2.845   7.665  -1.207  0.00  0.00    +0.130 A 
ATOM     10  N   LIG    1        2.264   8.686  -0.701  0.00  0.00    -0.470 NA
ATOM     11  C   LIG    1        2.552   9.006   0.575  0.00  0.00    +0.100 A 
ATOM     12  C   LIG    1        2.065  10.063   1.370  0.00  0.00    +0.060 A 
ATOM     13  C   LIG    1        2.490  10.212   2.656  0.00  0.00    +0.020 A 
ATOM     14  C   LIG    1        3.409   9.331   3.206  0.00  0.00    +0.020 A 
ATOM     15  C   LIG    1        3.902   8.289   2.453  0.00  0.00    +0.060 A 
ATOM     16  C   LIG    1        3.478   8.120   1.137  0.00  0.00    -0.180 A 
ATOM     17  S   LIG    1        3.890   6.919  -0.083  0.00  0.00    +0.120 S 
ENDBRANCH   7   9
BRANCH   1  18
ATOM     18  C   LIG    1        0.180   4.455  -1.480  0.00  0.00    +0.070 C 
BRANCH  18  19
ATOM     19  C   LIG    1       -0.336   4.200  -0.063  0.00  0.00    +0.220 C 
BRANCH  19  23
ATOM     20  C   LIG    1       -2.219   1.139  -0.024  0.00  0.00    +0.220 A 
ATOM     21  N   LIG    1       -3.140   2.044  -0.226  0.00  0.00    -0.370 NA
ATOM     22  O   LIG    1       -2.639   3.148  -0.263  0.00  0.00    +0.080 OA
ATOM     23  C   LIG    1       -1.317   3.057  -0.083  0.00  0.00    +0.190 A 
ATOM     24  N   LIG    1       -1.036   1.787   0.070  0.00  0.00    -0.470 NA
BRANCH  20  29
ATOM     25  C   LIG    1       -3.046  -4.546   0.397  0.00  0.00    +0.100 C 
ATOM     26  C   LIG    1       -2.830  -3.059   0.286  0.00  0.00    -0.060 A 
ATOM     27  C   LIG    1       -3.908  -2.220   0.069  0.00  0.00    +0.010 A 
ATOM     28  C   LIG    1       -3.715  -0.857  -0.033  0.00  0.00    +0.050 A 
ATOM     29  C   LIG    1       -2.432  -0.326   0.085  0.00  0.00    -0.030 A 
ATOM     30  C   LIG    1       -1.349  -1.177   0.298  0.00  0.00    +0.070 A 
ATOM     31  C   LIG    1       -1.554  -2.537   0.403  0.00  0.00    +0.010 A 
ENDBRANCH  20  29
ENDBRANCH  19  23
ENDBRANCH  18  19
ENDBRANCH   1  18
TORSDOF 5
