REMARK  Name = ZINCrH000004v8FN.0
REMARK                            x       y       z     vdW  Elec       q    Type
REMARK                         _______ _______ _______ _____ _____    ______ ____
ROOT
ATOM      1  O   LIG    1       -4.578   1.488  -1.065  0.00  0.00    -0.500 OA
ATOM      2  C   LIG    1       -3.597   1.977  -0.538  0.00  0.00    +0.560 C 
ATOM      3  N   LIG    1       -3.682   3.185   0.054  0.00  0.00    -0.670 N 
ATOM      4  H   LIG    1       -2.919   3.545   0.532  0.00  0.00    +0.410 HD
ENDROOT
BRANCH   2   5
ATOM      5  C   LIG    1       -2.312   1.247  -0.546  0.00  0.00    -0.140 A 
ATOM      6  C   LIG    1       -1.186   1.803   0.063  0.00  0.00    +0.090 A 
ATOM      7  C   LIG    1        0.012   1.118   0.047  0.00  0.00    +0.030 A 
ATOM      8  C   LIG    1        0.096  -0.121  -0.562  0.00  0.00    +0.110 A 
ATOM      9  C   LIG    1       -1.018  -0.681  -1.163  0.00  0.00    -0.190 A 
ATOM     10  C   LIG    1       -2.221  -0.005  -1.159  0.00  0.00    +0.140 A 
BRANCH   9  11
ATOM     11  C   LIG    1       -0.917  -2.031  -1.823  0.00  0.00    +0.510 C 
ATOM     12  F   LIG    1       -1.245  -1.914  -3.178  0.00  0.00    -0.170 F 
ATOM     13  F   LIG    1       -1.804  -2.920  -1.205  0.00  0.00    -0.170 F 
ATOM     14  F   LIG    1        0.389  -2.515  -1.699  0.00  0.00    -0.170 F 
ENDBRANCH   9  11
ENDBRANCH   2   5
BRANCH   3  15
ATOM     15  C   LIG    1       -4.871   3.918  -0.022  0.00  0.00    +0.200 A 
ATOM     16  C   LIG    1       -4.829   5.304  -0.106  0.00  0.00    -0.020 A 
ATOM     17  C   LIG    1       -6.004   6.025  -0.186  0.00  0.00    +0.150 A 
ATOM     18  C   LIG    1       -7.222   5.370  -0.172  0.00  0.00    -0.690 A 
ATOM     19  C   LIG    1       -7.267   3.990  -0.082  0.00  0.00    +0.140 A 
ATOM     20  C   LIG    1       -6.095   3.263  -0.007  0.00  0.00    +0.010 A 
BRANCH  18  21
ATOM     21  S   LIG    1       -8.719   6.294  -0.267  0.00  0.00    +2.710 S 
ATOM     22  O   LIG    1       -9.706   5.408  -0.777  0.00  0.00    -0.950 OA
ATOM     23  O   LIG    1       -8.389   7.529  -0.886  0.00  0.00    -0.950 OA
BRANCH  21  24
ATOM     24  N   LIG    1       -9.171   6.655   1.285  0.00  0.00    -1.010 NA
ATOM     25  C   LIG    1      -10.040   5.830   2.137  0.00  0.00    +0.270 C 
ATOM     26  C   LIG    1      -10.202   6.573   3.480  0.00  0.00    +0.030 C 
ATOM     27  C   LIG    1       -9.885   8.044   3.102  0.00  0.00    +0.030 C 
ATOM     28  C   LIG    1       -8.775   7.859   2.037  0.00  0.00    +0.270 C 
ENDBRANCH  21  24
ENDBRANCH  18  21
ENDBRANCH   3  15
TORSDOF 5
