REMARK  Name = ZINCrD000000gDNq.0
REMARK                            x       y       z     vdW  Elec       q    Type
REMARK                         _______ _______ _______ _____ _____    ______ ____
ROOT
ATOM      1  C   LIG    1       -1.290   1.681   0.017  0.00  0.00    +0.300 C 
ENDROOT
BRANCH   1   3
ATOM      2  C   LIG    1        1.147   1.655   0.000  0.00  0.00    +0.650 C 
ATOM      3  N   LIG    1       -0.011   0.966   0.007  0.00  0.00    -0.700 N 
ATOM      4  H   LIG    1        0.002  -0.004   0.002  0.00  0.00    +0.410 HD
ATOM      5  O   LIG    1        1.130   2.870   0.007  0.00  0.00    -0.550 OA
BRANCH   2   6
ATOM      6  O   LIG    1        2.322   0.998  -0.015  0.00  0.00    -0.370 OA
BRANCH   6   8
ATOM      7  C   LIG    1        3.563   2.682   1.232  0.00  0.00    +0.040 C 
ATOM      8  C   LIG    1        3.529   1.806  -0.022  0.00  0.00    +0.140 C 
ATOM      9  C   LIG    1        3.540   2.695  -1.267  0.00  0.00    +0.040 C 
ATOM     10  C   LIG    1        4.755   0.890  -0.039  0.00  0.00    +0.070 C 
ENDBRANCH   6   8
ENDBRANCH   2   6
ENDBRANCH   1   3
BRANCH   1  11
ATOM     11  C   LIG    1       -2.360   0.806  -0.583  0.00  0.00    +0.490 C 
ATOM     12  O   LIG    1       -2.081  -0.309  -0.981  0.00  0.00    -0.600 OA
BRANCH  11  13
ATOM     13  N   LIG    1       -3.608   1.252  -0.677  0.00  0.00    -0.640 NA
ATOM     14  C   LIG    1       -4.554   0.478  -1.208  0.00  0.00    +0.490 A 
ATOM     15  C   LIG    1       -5.915   0.811  -1.368  0.00  0.00    -0.070 A 
ATOM     16  C   LIG    1       -6.542  -0.236  -1.947  0.00  0.00    +0.220 A 
ATOM     17  N   LIG    1       -5.635  -1.233  -2.155  0.00  0.00    -0.490 N 
ATOM     18  H   LIG    1       -5.823  -2.097  -2.554  0.00  0.00    +0.440 HD
ATOM     19  N   LIG    1       -4.386  -0.795  -1.695  0.00  0.00    -0.480 N 
ATOM     20  H   LIG    1       -3.557  -1.297  -1.717  0.00  0.00    +0.460 HD
BRANCH  16  21
ATOM     21  C   LIG    1       -8.006  -0.296  -2.298  0.00  0.00    +0.040 C 
ATOM     22  C   LIG    1       -8.569  -1.644  -2.752  0.00  0.00    +0.030 C 
ATOM     23  C   LIG    1       -8.372  -0.516  -3.767  0.00  0.00    +0.050 C 
ENDBRANCH  16  21
ENDBRANCH  11  13
ENDBRANCH   1  11
BRANCH   1  24
ATOM     24  C   LIG    1       -1.667   2.032   1.458  0.00  0.00    +0.090 C 
BRANCH  24  25
ATOM     25  C   LIG    1       -0.661   3.005   2.018  0.00  0.00    -0.060 A 
ATOM     26  C   LIG    1        0.461   2.538   2.675  0.00  0.00    +0.000 A 
ATOM     27  C   LIG    1        1.386   3.430   3.184  0.00  0.00    +0.000 A 
ATOM     28  C   LIG    1        1.183   4.790   3.045  0.00  0.00    -0.010 A 
ATOM     29  C   LIG    1        0.058   5.258   2.392  0.00  0.00    +0.010 A 
ATOM     30  C   LIG    1       -0.864   4.365   1.878  0.00  0.00    +0.020 A 
ENDBRANCH  24  25
ENDBRANCH   1  24
TORSDOF 8
