REMARK  Name = ZINCqH0000000vzW.0
REMARK                            x       y       z     vdW  Elec       q    Type
REMARK                         _______ _______ _______ _____ _____    ______ ____
ROOT
ATOM      1  C   LIG    1       -0.812   2.701   4.689  0.00  0.00    +0.590 C 
ATOM      2  N   LIG    1        0.392   2.468   5.247  0.00  0.00    -0.630 N 
ATOM      3  H   LIG    1        1.086   2.025   4.735  0.00  0.00    +0.420 HD
ATOM      4  O   LIG    1       -1.683   3.258   5.331  0.00  0.00    -0.490 OA
ENDROOT
BRANCH   1   9
ATOM      5  C   LIG    1       -2.054   1.919   1.333  0.00  0.00    -0.260 A 
ATOM      6  C   LIG    1       -0.760   1.423   1.286  0.00  0.00    +0.120 A 
ATOM      7  N   LIG    1       -0.178   1.649   2.473  0.00  0.00    -0.530 N 
ATOM      8  H   LIG    1        0.731   1.405   2.708  0.00  0.00    +0.420 HD
ATOM      9  C   LIG    1       -1.073   2.285   3.306  0.00  0.00    -0.070 A 
ATOM     10  C   LIG    1       -0.116   0.750   0.101  0.00  0.00    +0.160 C 
ATOM     11  C   LIG    1       -2.242   2.460   2.627  0.00  0.00    -0.010 A 
ATOM     12  C   LIG    1       -3.495   3.112   3.153  0.00  0.00    +0.140 C 
BRANCH   5  14
ATOM     13  C   LIG    1       -3.926   0.680   0.072  0.00  0.00    +0.070 C 
ATOM     14  C   LIG    1       -3.040   1.887   0.249  0.00  0.00    +0.440 C 
ATOM     15  O   LIG    1       -3.144   2.831  -0.506  0.00  0.00    -0.450 OA
ENDBRANCH   5  14
ENDBRANCH   1   9
BRANCH   2  16
ATOM     16  C   LIG    1        0.639   2.862   6.556  0.00  0.00    +0.240 A 
ATOM     17  N   LIG    1        1.756   2.682   7.188  0.00  0.00    -0.490 NA
ATOM     18  C   LIG    1        1.819   3.123   8.430  0.00  0.00    +0.110 A 
ATOM     19  C   LIG    1        0.698   3.696   8.872  0.00  0.00    -0.140 A 
ATOM     20  S   LIG    1       -0.489   3.650   7.571  0.00  0.00    +0.250 S 
BRANCH  18  21
ATOM     21  C   LIG    1        3.054   2.986   9.282  0.00  0.00    +0.270 C 
BRANCH  21  22
ATOM     22  N   LIG    1        3.064   1.663   9.920  0.00  0.00    -0.530 NA
ATOM     23  C   LIG    1        1.958   1.530  10.876  0.00  0.00    +0.160 C 
ATOM     24  C   LIG    1        1.912   0.097  11.410  0.00  0.00    +0.020 C 
ATOM     25  C   LIG    1        3.243  -0.230  12.093  0.00  0.00    +0.000 C 
ATOM     26  C   LIG    1        4.384  -0.037  11.090  0.00  0.00    -0.010 C 
ATOM     27  C   LIG    1        5.722  -0.304  11.781  0.00  0.00    +0.020 C 
ATOM     28  C   LIG    1        4.357   1.400  10.565  0.00  0.00    +0.170 C 
ENDBRANCH  21  22
ENDBRANCH  18  21
ENDBRANCH   2  16
TORSDOF 5
