REMARK  Name = ZINCtV000002KKCy.0
REMARK                            x       y       z     vdW  Elec       q    Type
REMARK                         _______ _______ _______ _____ _____    ______ ____
ROOT
ATOM      1  C   LIG    1        1.248   1.770   0.170  0.00  0.00    +0.170 A 
ATOM      2  N   LIG    1        2.049   0.732   0.190  0.00  0.00    -0.470 NA
ATOM      3  C   LIG    1        1.325  -0.382  -0.054  0.00  0.00    +0.060 A 
ATOM      4  C   LIG    1        0.016   0.015  -0.231  0.00  0.00    +0.010 A 
ATOM      5  O   LIG    1       -0.005   1.361  -0.087  0.00  0.00    -0.170 OA
ENDROOT
BRANCH   4   6
ATOM      6  C   LIG    1       -1.136  -0.858  -0.522  0.00  0.00    -0.020 A 
ATOM      7  C   LIG    1       -2.318  -0.728   0.212  0.00  0.00    +0.040 A 
ATOM      8  C   LIG    1       -3.394  -1.544  -0.069  0.00  0.00    +0.010 A 
ATOM      9  C   LIG    1       -3.301  -2.497  -1.068  0.00  0.00    +0.030 A 
ATOM     10  C   LIG    1       -2.132  -2.636  -1.795  0.00  0.00    +0.010 A 
ATOM     11  C   LIG    1       -1.050  -1.823  -1.529  0.00  0.00    +0.050 A 
ENDBRANCH   4   6
BRANCH   3  12
ATOM     12  C   LIG    1        1.840  -1.769  -0.120  0.00  0.00    -0.020 A 
ATOM     13  C   LIG    1        1.127  -2.810   0.474  0.00  0.00    +0.030 A 
ATOM     14  C   LIG    1        1.610  -4.101   0.405  0.00  0.00    +0.010 A 
ATOM     15  C   LIG    1        2.804  -4.362  -0.243  0.00  0.00    +0.010 A 
ATOM     16  C   LIG    1        3.519  -3.333  -0.829  0.00  0.00    +0.010 A 
ATOM     17  C   LIG    1        3.044  -2.038  -0.771  0.00  0.00    +0.040 A 
ENDBRANCH   3  12
BRANCH   1  18
ATOM     18  S   LIG    1        1.739   3.441   0.436  0.00  0.00    +0.070 S 
BRANCH  18  19
ATOM     19  C   LIG    1        3.513   3.207   0.709  0.00  0.00    +0.210 C 
BRANCH  19  25
ATOM     20 CL   LIG    1        6.479   9.658   3.446  0.00  0.00    -0.030 Cl
ATOM     21  C   LIG    1        5.971   8.413   2.347  0.00  0.00    -0.060 A 
ATOM     22  C   LIG    1        5.357   7.308   2.821  0.00  0.00    +0.250 A 
ATOM     23  N   LIG    1        4.951   6.320   1.970  0.00  0.00    -0.360 N 
ATOM     24  C   LIG    1        4.321   5.123   2.175  0.00  0.00    +0.130 A 
ATOM     25  C   LIG    1        4.162   4.543   0.966  0.00  0.00    +0.060 A 
ATOM     26  N   LIG    1        4.682   5.347   0.035  0.00  0.00    -0.470 NA
ATOM     27  C   LIG    1        5.162   6.436   0.621  0.00  0.00    +0.230 A 
ATOM     28  C   LIG    1        5.802   7.583   0.111  0.00  0.00    +0.100 A 
ATOM     29  C   LIG    1        6.202   8.560   0.968  0.00  0.00    +0.060 A 
ENDBRANCH  19  25
ENDBRANCH  18  19
ENDBRANCH   1  18
TORSDOF 5
