REMARK  Name = ZINCpk00000y18ig.0
REMARK                            x       y       z     vdW  Elec       q    Type
REMARK                         _______ _______ _______ _____ _____    ______ ____
ROOT
ATOM      1  C   LIG    1        1.147   1.655   0.000  0.00  0.00    +0.500 C 
ATOM      2  N   LIG    1       -0.011   0.966   0.007  0.00  0.00    -0.720 N 
ATOM      3  H   LIG    1        0.002  -0.004   0.002  0.00  0.00    +0.410 HD
ATOM      4  O   LIG    1        1.130   2.868   0.007  0.00  0.00    -0.520 OA
ENDROOT
BRANCH   1   5
ATOM      5  C   LIG    1        2.462   0.920  -0.017  0.00  0.00    +0.330 C 
BRANCH   5   9
ATOM      6  N   LIG    1        5.972   3.347  -0.040  0.00  0.00    -0.600 N 
ATOM      7  C   LIG    1        5.635   2.533   1.129  0.00  0.00    +0.290 C 
ATOM      8  C   LIG    1        4.123   2.362   1.244  0.00  0.00    +0.290 C 
ATOM      9  N   LIG    1        3.562   1.887  -0.022  0.00  0.00    -0.590 N 
ATOM     10  C   LIG    1        4.060   2.333  -1.193  0.00  0.00    +0.520 C 
ATOM     11  O   LIG    1        3.534   2.024  -2.242  0.00  0.00    -0.480 OA
ATOM     12  C   LIG    1        5.266   3.218  -1.181  0.00  0.00    +0.520 C 
ATOM     13  O   LIG    1        5.607   3.809  -2.185  0.00  0.00    -0.480 OA
BRANCH   6  15
ATOM     14  C   LIG    1        8.377   3.614  -0.393  0.00  0.00    +0.020 C 
ATOM     15  C   LIG    1        7.079   4.304   0.031  0.00  0.00    +0.290 C 
ENDBRANCH   6  15
ENDBRANCH   5   9
ENDBRANCH   1   5
BRANCH   2  16
ATOM     16  C   LIG    1       -1.290   1.681   0.017  0.00  0.00    +0.350 C 
BRANCH  16  17
ATOM     17  C   LIG    1       -2.360   0.806  -0.583  0.00  0.00    -0.020 A 
ATOM     18  C   LIG    1       -3.340   1.215  -1.407  0.00  0.00    -0.040 A 
ATOM     19  C   LIG    1       -4.112   0.074  -1.725  0.00  0.00    -0.060 A 
ATOM     20  C   LIG    1       -3.557  -0.965  -1.075  0.00  0.00    -0.010 A 
ATOM     21  C   LIG    1       -4.042  -2.391  -1.116  0.00  0.00    +0.170 C 
ATOM     22  O   LIG    1       -2.492  -0.517  -0.390  0.00  0.00    -0.170 OA
ENDBRANCH  16  17
BRANCH  16  23
ATOM     23  C   LIG    1       -1.667   2.032   1.458  0.00  0.00    -0.080 C 
ATOM     24  C   LIG    1       -1.794   0.747   2.279  0.00  0.00    +0.030 C 
ATOM     25  C   LIG    1       -3.002   2.779   1.468  0.00  0.00    +0.040 C 
ATOM     26  C   LIG    1       -0.580   2.921   2.067  0.00  0.00    +0.030 C 
ENDBRANCH  16  23
ENDBRANCH   2  16
TORSDOF 6
