REMARK  Name = ZINCrH00000No511.0
REMARK                            x       y       z     vdW  Elec       q    Type
REMARK                         _______ _______ _______ _____ _____    ______ ____
ROOT
ATOM      1  C   LIG    1       -1.300   2.150   0.009  0.00  0.00    +0.510 C 
ATOM      2  O   LIG    1       -2.354   1.548   0.003  0.00  0.00    -0.470 OA
ENDROOT
BRANCH   1   7
ATOM      3  C   LIG    1        1.237  -0.665  -0.026  0.00  0.00    +0.160 A 
ATOM      4  N   LIG    1        2.365   0.029  -0.024  0.00  0.00    -0.460 NA
ATOM      5  C   LIG    1        2.377   1.346  -0.010  0.00  0.00    +0.210 A 
ATOM      6  C   LIG    1        1.202   2.077   0.003  0.00  0.00    +0.050 A 
ATOM      7  C   LIG    1       -0.021   1.404   0.002  0.00  0.00    -0.010 A 
ATOM      8  C   LIG    1       -0.005  -0.006  -0.014  0.00  0.00    -0.010 A 
BRANCH   5   9
ATOM      9  C   LIG    1        3.697   2.072  -0.008  0.00  0.00    +0.010 C 
ATOM     10  C   LIG    1        3.687   3.559  -0.372  0.00  0.00    +0.040 C 
ATOM     11  C   LIG    1        4.253   2.533  -1.357  0.00  0.00    +0.050 C 
ENDBRANCH   5   9
BRANCH   3  13
ATOM     12  C   LIG    1        3.084  -2.684  -0.057  0.00  0.00    +0.150 C 
ATOM     13  S   LIG    1        1.292  -2.426  -0.046  0.00  0.00    -0.030 S 
ENDBRANCH   3  13
BRANCH   8  14
ATOM     14  C   LIG    1       -1.228  -0.751  -0.016  0.00  0.00    +0.240 C 
ATOM     15  N   LIG    1       -2.198  -1.342  -0.017  0.00  0.00    -0.360 NA
ENDBRANCH   8  14
ENDBRANCH   1   7
BRANCH   1  16
ATOM     16  O   LIG    1       -1.293   3.497   0.024  0.00  0.00    -0.320 OA
BRANCH  16  17
ATOM     17  C   LIG    1       -2.584   4.162   0.031  0.00  0.00    +0.190 C 
ATOM     18  C   LIG    1       -3.037   4.412  -1.409  0.00  0.00    +0.080 C 
BRANCH  17  19
ATOM     19  C   LIG    1       -2.466   5.479   0.755  0.00  0.00    +0.520 C 
ATOM     20  N   LIG    1       -3.566   6.227   0.975  0.00  0.00    -0.670 N 
ATOM     21  H   LIG    1       -4.421   5.952   0.609  0.00  0.00    +0.410 HD
ATOM     22  O   LIG    1       -1.383   5.864   1.141  0.00  0.00    -0.490 OA
BRANCH  20  23
ATOM     23  C   LIG    1       -3.473   7.401   1.731  0.00  0.00    +0.140 A 
ATOM     24  C   LIG    1       -4.523   7.782   2.557  0.00  0.00    -0.010 A 
ATOM     25  C   LIG    1       -4.426   8.938   3.306  0.00  0.00    +0.030 A 
ATOM     26  C   LIG    1       -3.290   9.722   3.227  0.00  0.00    +0.000 A 
ATOM     27  C   LIG    1       -2.245   9.348   2.402  0.00  0.00    +0.030 A 
ATOM     28  C   LIG    1       -2.333   8.190   1.654  0.00  0.00    +0.020 A 
ENDBRANCH  20  23
ENDBRANCH  17  19
ENDBRANCH  16  17
ENDBRANCH   1  16
TORSDOF 8
