REMARK  Name = ZINCkj000005jk7F.1
REMARK                            x       y       z     vdW  Elec       q    Type
REMARK                         _______ _______ _______ _____ _____    ______ ____
ROOT
ATOM      1  C   LIG    1        0.044  -0.457   1.814  0.00  0.00    +0.070 C 
ATOM      2  C   LIG    1       -0.508  -0.066   0.441  0.00  0.00    +0.130 C 
ATOM      3  C   LIG    1       -0.092   1.372   0.113  0.00  0.00    +0.240 C 
ATOM      4  N   LIG    1       -0.786   1.787  -1.117  0.00  0.00    -0.630 N 
ATOM      5  C   LIG    1       -2.242   1.589  -1.190  0.00  0.00    +0.280 C 
ATOM      6  C   LIG    1       -2.554   0.140  -0.799  0.00  0.00    +0.230 C 
ATOM      7  C   LIG    1       -0.107   2.331  -2.146  0.00  0.00    +0.710 C 
ATOM      8  N   LIG    1        1.208   2.598  -2.020  0.00  0.00    -0.760 N 
ATOM      9  H   LIG    1        1.682   2.332  -1.217  0.00  0.00    +0.390 HD
ATOM     10  O   LIG    1       -0.681   2.582  -3.188  0.00  0.00    -0.570 OA
ATOM     11  O   LIG    1       -1.935  -0.151   0.457  0.00  0.00    -0.370 OA
ENDROOT
BRANCH   8  12
ATOM     12  C   LIG    1        1.922   3.288  -3.097  0.00  0.00    +0.340 C 
BRANCH  12  13
ATOM     13  C   LIG    1        3.413   3.352  -2.761  0.00  0.00    +0.300 C 
BRANCH  13  14
ATOM     14  C   LIG    1        3.617   4.213  -1.542  0.00  0.00    -0.110 A 
ATOM     15  C   LIG    1        4.015   5.498  -1.543  0.00  0.00    +0.040 A 
ATOM     16  C   LIG    1        4.073   5.911  -0.192  0.00  0.00    -0.050 A 
ATOM     17  C   LIG    1        3.708   4.853   0.554  0.00  0.00    +0.230 A 
ATOM     18  O   LIG    1        3.427   3.830  -0.269  0.00  0.00    -0.190 OA
ENDBRANCH  13  14
BRANCH  13  19
ATOM     19  N   LIG    1        3.913   1.997  -2.494  0.00  0.00    -0.390 N 
ATOM     20  C   LIG    1        5.318   2.069  -2.068  0.00  0.00    +0.330 C 
ATOM     21  C   LIG    1        3.813   1.188  -3.715  0.00  0.00    +0.330 C 
ATOM     22  H   LIG    1        3.362   1.574  -1.763  0.00  0.00    +0.420 HD
ENDBRANCH  13  19
ENDBRANCH  12  13
ENDBRANCH   8  12
TORSDOF 4
