REMARK  Name = ZINCqH0000034Udp.0
REMARK                            x       y       z     vdW  Elec       q    Type
REMARK                         _______ _______ _______ _____ _____    ______ ____
ROOT
ATOM      1  N   LIG    1       -4.862   1.207   0.224  0.00  0.00    -0.690 N 
ATOM      2  H   LIG    1       -4.875   0.256   0.416  0.00  0.00    +0.410 HD
ATOM      3  C   LIG    1       -6.019   1.881   0.077  0.00  0.00    +0.700 C 
ATOM      4  N   LIG    1       -7.193   1.219   0.105  0.00  0.00    -0.740 N 
ATOM      5  H   LIG    1       -7.205   0.257   0.230  0.00  0.00    +0.400 HD
ATOM      6  O   LIG    1       -6.005   3.087  -0.079  0.00  0.00    -0.570 OA
ENDROOT
BRANCH   1  11
ATOM      7  C   LIG    1       -1.343   1.907  -0.600  0.00  0.00    +0.170 A 
ATOM      8  C   LIG    1       -1.225   3.215  -0.147  0.00  0.00    -0.030 A 
ATOM      9  C   LIG    1       -2.311   3.849   0.425  0.00  0.00    +0.050 A 
ATOM     10  C   LIG    1       -3.516   3.186   0.550  0.00  0.00    +0.010 A 
ATOM     11  C   LIG    1       -3.640   1.878   0.098  0.00  0.00    +0.180 A 
ATOM     12  C   LIG    1       -2.554   1.240  -0.482  0.00  0.00    -0.010 A 
BRANCH   7  14
ATOM     13  C   LIG    1       -0.074  -0.063  -1.016  0.00  0.00    +0.650 C 
ATOM     14  N   LIG    1       -0.243   1.264  -1.179  0.00  0.00    -0.650 N 
ATOM     15  H   LIG    1        0.401   1.775  -1.695  0.00  0.00    +0.420 HD
ATOM     16  O   LIG    1       -0.826  -0.686  -0.293  0.00  0.00    -0.550 OA
BRANCH  13  18
ATOM     17  C   LIG    1        1.048  -2.127  -1.431  0.00  0.00    +0.310 C 
ATOM     18  O   LIG    1        0.927  -0.698  -1.654  0.00  0.00    -0.370 OA
ENDBRANCH  13  18
ENDBRANCH   7  14
ENDBRANCH   1  11
BRANCH   4  19
ATOM     19  C   LIG    1       -8.451   1.952  -0.054  0.00  0.00    +0.280 C 
BRANCH  19  20
ATOM     20  C   LIG    1       -9.625   0.972   0.015  0.00  0.00    +0.110 C 
BRANCH  20  21
ATOM     21  C   LIG    1      -10.919   1.726  -0.148  0.00  0.00    -0.170 A 
ATOM     22  C   LIG    1      -11.706   2.184   0.838  0.00  0.00    +0.230 A 
ATOM     23  N   LIG    1      -12.796   2.820   0.308  0.00  0.00    -0.590 N 
ATOM     24  H   LIG    1      -13.506   3.233   0.824  0.00  0.00    +0.420 HD
ATOM     25  C   LIG    1      -12.735   2.785  -1.067  0.00  0.00    +0.090 A 
ATOM     26  C   LIG    1      -13.563   3.268  -2.075  0.00  0.00    -0.010 A 
ATOM     27  C   LIG    1      -13.222   3.070  -3.395  0.00  0.00    +0.030 A 
ATOM     28  C   LIG    1      -12.058   2.392  -3.732  0.00  0.00    -0.020 A 
ATOM     29  C   LIG    1      -11.230   1.908  -2.757  0.00  0.00    +0.050 A 
ATOM     30  C   LIG    1      -11.554   2.103  -1.414  0.00  0.00    -0.100 A 
ENDBRANCH  20  21
ENDBRANCH  19  20
ENDBRANCH   4  19
TORSDOF 6
