REMARK  Name = ZINCpe00000MJIo2.0
REMARK                            x       y       z     vdW  Elec       q    Type
REMARK                         _______ _______ _______ _____ _____    ______ ____
ROOT
ATOM      1  C   LIG    1       -2.510  -0.023   0.258  0.00  0.00    +0.130 C 
ATOM      2  C   LIG    1       -1.186  -0.730   0.120  0.00  0.00    -0.170 A 
ATOM      3  C   LIG    1       -1.113  -2.108   0.160  0.00  0.00    +0.340 A 
ATOM      4  N   LIG    1        0.067  -2.699   0.041  0.00  0.00    -0.490 NA
ATOM      5  C   LIG    1        1.172  -1.986  -0.119  0.00  0.00    +0.490 A 
ATOM      6  N   LIG    1        1.145  -0.663  -0.167  0.00  0.00    -0.570 NA
ATOM      7  C   LIG    1       -0.004  -0.005  -0.055  0.00  0.00    +0.350 A 
ENDROOT
BRANCH   5   8
ATOM      8  N   LIG    1        2.385  -2.641  -0.240  0.00  0.00    -0.460 N 
ATOM      9  C   LIG    1        3.340  -2.172   0.775  0.00  0.00    +0.160 C 
ATOM     10  C   LIG    1        4.638  -2.974   0.659  0.00  0.00    +0.260 C 
ATOM     11  N   LIG    1        5.191  -2.815  -0.693  0.00  0.00    -0.670 NA
ATOM     12  H   LIG    1        5.458  -1.857  -0.864  0.00  0.00    +0.350 HD
ATOM     13  C   LIG    1        4.236  -3.284  -1.707  0.00  0.00    +0.170 C 
ATOM     14  C   LIG    1        2.938  -2.482  -1.592  0.00  0.00    +0.180 C 
BRANCH  13  15
ATOM     15  C   LIG    1        4.836  -3.087  -3.101  0.00  0.00    +0.400 C 
ATOM     16  F   LIG    1        5.104  -1.730  -3.306  0.00  0.00    -0.200 F 
ATOM     17  F   LIG    1        3.927  -3.534  -4.067  0.00  0.00    -0.200 F 
ENDBRANCH  13  15
ENDBRANCH   5   8
BRANCH   7  18
ATOM     18  N   LIG    1       -0.030   1.379  -0.105  0.00  0.00    -0.470 N 
ATOM     19  C   LIG    1        0.214   1.959   1.224  0.00  0.00    +0.160 C 
ATOM     20  C   LIG    1        0.099   3.482   1.141  0.00  0.00    +0.260 C 
ATOM     21  N   LIG    1        1.069   3.992   0.162  0.00  0.00    -0.670 NA
ATOM     22  H   LIG    1        2.015   3.817   0.465  0.00  0.00    +0.350 HD
ATOM     23  C   LIG    1        0.826   3.413  -1.167  0.00  0.00    +0.160 C 
ATOM     24  C   LIG    1        0.940   1.889  -1.084  0.00  0.00    +0.190 C 
BRANCH  23  25
ATOM     25  C   LIG    1        1.862   3.950  -2.155  0.00  0.00    +0.400 C 
ATOM     26  F   LIG    1        1.564   3.486  -3.441  0.00  0.00    -0.200 F 
ATOM     27  F   LIG    1        3.136   3.506  -1.783  0.00  0.00    -0.200 F 
ENDBRANCH  23  25
ENDBRANCH   7  18
TORSDOF 4
