REMARK  Name = ZINCrg000009DEGI.0
REMARK                            x       y       z     vdW  Elec       q    Type
REMARK                         _______ _______ _______ _____ _____    ______ ____
ROOT
ATOM      1  N   LIG    1       -0.011   0.966   0.007  0.00  0.00    -0.710 N 
ATOM      2  H   LIG    1        0.002  -0.004   0.002  0.00  0.00    +0.410 HD
ATOM      3  C   LIG    1        1.147   1.655   0.000  0.00  0.00    +0.610 C 
ATOM      4  O   LIG    1        1.130   2.872   0.007  0.00  0.00    -0.520 OA
ENDROOT
BRANCH   3   5
ATOM      5  C   LIG    1        2.427   0.940  -0.016  0.00  0.00    -0.070 A 
ATOM      6  C   LIG    1        3.666   1.512  -0.030  0.00  0.00    +0.040 A 
ATOM      7  C   LIG    1        4.596   0.461  -0.039  0.00  0.00    -0.010 A 
ATOM      8  C   LIG    1        3.893  -0.693  -0.039  0.00  0.00    -0.010 A 
ATOM      9  O   LIG    1        2.586  -0.400  -0.025  0.00  0.00    -0.160 OA
BRANCH   8  10
ATOM     10  C   LIG    1        4.481  -2.080  -0.053  0.00  0.00    +0.460 C 
BRANCH  10  11
ATOM     11  N   LIG    1        4.685  -2.538   1.323  0.00  0.00    -0.380 N 
ATOM     12  C   LIG    1        4.197  -3.675   1.862  0.00  0.00    +0.240 A 
ATOM     13  C   LIG    1        4.612  -3.732   3.149  0.00  0.00    -0.120 A 
ATOM     14  C   LIG    1        5.372  -2.587   3.408  0.00  0.00    +0.230 A 
ATOM     15  N   LIG    1        5.417  -1.870   2.314  0.00  0.00    -0.290 NA
ENDBRANCH  10  11
ENDBRANCH   8  10
ENDBRANCH   3   5
BRANCH   1  16
ATOM     16  C   LIG    1       -1.290   1.681   0.017  0.00  0.00    +0.290 C 
BRANCH  16  23
ATOM     17  C   LIG    1       -6.825   1.176  -3.635  0.00  0.00    +0.570 C 
ATOM     18  N   LIG    1       -5.980   1.275  -2.589  0.00  0.00    -0.640 N 
ATOM     19  C   LIG    1       -6.018   0.816  -1.183  0.00  0.00    +0.310 C 
ATOM     20  C   LIG    1       -4.496   0.896  -1.240  0.00  0.00    -0.130 C 
ATOM     21  C   LIG    1       -3.757  -0.412  -1.560  0.00  0.00    +0.250 C 
ATOM     22  O   LIG    1       -2.389  -0.127  -1.179  0.00  0.00    -0.370 OA
ATOM     23  C   LIG    1       -2.439   0.671   0.017  0.00  0.00    +0.140 C 
ATOM     24  C   LIG    1       -3.792   1.415   0.020  0.00  0.00    +0.050 C 
ATOM     25  C   LIG    1       -4.648   1.885  -2.389  0.00  0.00    +0.300 C 
ATOM     26  O   LIG    1       -7.888   0.600  -3.506  0.00  0.00    -0.540 OA
BRANCH  17  28
ATOM     27  C   LIG    1       -7.294   1.669  -5.964  0.00  0.00    +0.150 C 
ATOM     28  C   LIG    1       -6.460   1.766  -4.932  0.00  0.00    -0.090 C 
ENDBRANCH  17  28
ENDBRANCH  16  23
ENDBRANCH   1  16
TORSDOF 6
