REMARK  Name = ZINCwJ0000000ntx.1
REMARK                            x       y       z     vdW  Elec       q    Type
REMARK                         _______ _______ _______ _____ _____    ______ ____
ROOT
ATOM      1  C   LIG    1        5.195  -2.007  -2.389  0.00  0.00    +0.500 C 
ATOM      2  N   LIG    1        4.433  -1.592  -1.358  0.00  0.00    -0.690 N 
ATOM      3  H   LIG    1        4.173  -2.219  -0.664  0.00  0.00    +0.410 HD
ATOM      4  O   LIG    1        5.520  -1.224  -3.257  0.00  0.00    -0.530 OA
ENDROOT
BRANCH   1   5
ATOM      5  C   LIG    1        5.644  -3.444  -2.464  0.00  0.00    +0.290 C 
BRANCH   5   6
ATOM      6  N   LIG    1        6.457  -3.640  -3.672  0.00  0.00    -0.370 N 
ATOM      7  C   LIG    1        7.692  -2.852  -3.566  0.00  0.00    +0.320 C 
ATOM      8  H   LIG    1        5.934  -3.340  -4.481  0.00  0.00    +0.430 HD
BRANCH   6   9
ATOM      9  C   LIG    1        6.795  -5.064  -3.809  0.00  0.00    +0.270 C 
BRANCH   9  10
ATOM     10  C   LIG    1        7.533  -5.288  -5.130  0.00  0.00    +0.030 C 
BRANCH  10  11
ATOM     11  C   LIG    1        7.885  -6.770  -5.272  0.00  0.00    +0.370 C 
BRANCH  11  18
ATOM     12  C   LIG    1       10.928  -6.398  -5.720  0.00  0.00    +0.240 C 
ATOM     13  C   LIG    1        9.916  -6.828  -6.751  0.00  0.00    +0.320 C 
ATOM     14  N   LIG    1       10.175  -7.114  -7.998  0.00  0.00    -0.470 N 
ATOM     15  C   LIG    1        9.036  -7.451  -8.620  0.00  0.00    +0.250 C 
ATOM     16  C   LIG    1        8.033  -7.376  -7.724  0.00  0.00    +0.250 C 
ATOM     17  H   LIG    1       11.052  -7.084  -8.410  0.00  0.00    +0.470 HD
ATOM     18  N   LIG    1        8.592  -6.985  -6.537  0.00  0.00    -0.420 N 
ENDBRANCH  11  18
ENDBRANCH  10  11
ENDBRANCH   9  10
ENDBRANCH   6   9
ENDBRANCH   5   6
ENDBRANCH   1   5
BRANCH   2  19
ATOM     19  C   LIG    1        3.996  -0.196  -1.285  0.00  0.00    +0.300 C 
BRANCH  19  20
ATOM     20  C   LIG    1        3.150   0.009  -0.027  0.00  0.00    +0.110 C 
BRANCH  20  21
ATOM     21  C   LIG    1        2.600   1.412  -0.015  0.00  0.00    -0.180 A 
ATOM     22  C   LIG    1        3.312   2.549  -0.016  0.00  0.00    +0.240 A 
ATOM     23  N   LIG    1        2.470   3.628  -0.002  0.00  0.00    -0.590 N 
ATOM     24  H   LIG    1        2.753   4.556  -0.001  0.00  0.00    +0.420 HD
ATOM     25  C   LIG    1        1.161   3.199   0.008  0.00  0.00    +0.100 A 
ATOM     26  C   LIG    1       -0.062   3.860   0.022  0.00  0.00    +0.000 A 
ATOM     27  C   LIG    1       -1.233   3.133   0.030  0.00  0.00    +0.040 A 
ATOM     28  C   LIG    1       -1.204   1.745   0.017  0.00  0.00    -0.010 A 
ATOM     29  C   LIG    1       -0.013   1.076   0.008  0.00  0.00    +0.040 A 
ATOM     30  C   LIG    1        1.185   1.793   0.000  0.00  0.00    -0.100 A 
ENDBRANCH  20  21
BRANCH  20  31
ATOM     31  C   LIG    1        4.007  -0.205   1.194  0.00  0.00    -0.080 A 
ATOM     32  C   LIG    1        5.122   0.585   1.404  0.00  0.00    +0.000 A 
ATOM     33  C   LIG    1        5.905   0.391   2.527  0.00  0.00    +0.010 A 
ATOM     34  C   LIG    1        5.578  -0.598   3.435  0.00  0.00    +0.000 A 
ATOM     35  C   LIG    1        4.465  -1.391   3.223  0.00  0.00    +0.020 A 
ATOM     36  C   LIG    1        3.680  -1.195   2.103  0.00  0.00    +0.000 A 
ENDBRANCH  20  31
ENDBRANCH  19  20
ENDBRANCH   2  19
TORSDOF 10
