REMARK  Name = ZINCwJ0000000ntx.2
REMARK                            x       y       z     vdW  Elec       q    Type
REMARK                         _______ _______ _______ _____ _____    ______ ____
ROOT
ATOM      1  C   LIG    1       -0.540   1.752   6.132  0.00  0.00    +0.500 C 
ATOM      2  N   LIG    1        0.002   1.530   7.346  0.00  0.00    -0.690 N 
ATOM      3  H   LIG    1        0.804   0.990   7.428  0.00  0.00    +0.410 HD
ATOM      4  O   LIG    1       -1.543   2.427   6.030  0.00  0.00    -0.530 OA
ENDROOT
BRANCH   1   5
ATOM      5  C   LIG    1        0.099   1.161   4.902  0.00  0.00    +0.290 C 
BRANCH   5   6
ATOM      6  N   LIG    1       -0.676   1.546   3.715  0.00  0.00    -0.370 N 
ATOM      7  C   LIG    1       -2.014   0.942   3.786  0.00  0.00    +0.320 C 
ATOM      8  H   LIG    1       -0.763   2.551   3.681  0.00  0.00    +0.430 HD
BRANCH   6   9
ATOM      9  C   LIG    1        0.011   1.072   2.506  0.00  0.00    +0.270 C 
BRANCH   9  10
ATOM     10  C   LIG    1       -0.729   1.579   1.267  0.00  0.00    +0.030 C 
BRANCH  10  11
ATOM     11  C   LIG    1       -0.013   1.086   0.008  0.00  0.00    +0.370 C 
BRANCH  11  18
ATOM     12  C   LIG    1        0.382   3.858  -1.318  0.00  0.00    +0.240 C 
ATOM     13  C   LIG    1       -0.563   2.775  -1.770  0.00  0.00    +0.320 C 
ATOM     14  N   LIG    1       -1.361   2.843  -2.801  0.00  0.00    -0.470 N 
ATOM     15  C   LIG    1       -2.057   1.700  -2.897  0.00  0.00    +0.250 C 
ATOM     16  C   LIG    1       -1.672   0.892  -1.892  0.00  0.00    +0.250 C 
ATOM     17  H   LIG    1       -1.441   3.601  -3.400  0.00  0.00    +0.470 HD
ATOM     18  N   LIG    1       -0.721   1.571  -1.179  0.00  0.00    -0.420 N 
ENDBRANCH  11  18
ENDBRANCH  10  11
ENDBRANCH   9  10
ENDBRANCH   6   9
ENDBRANCH   5   6
ENDBRANCH   1   5
BRANCH   2  19
ATOM     19  C   LIG    1       -0.619   2.104   8.542  0.00  0.00    +0.300 C 
BRANCH  19  20
ATOM     20  C   LIG    1        0.188   1.703   9.778  0.00  0.00    +0.110 C 
BRANCH  20  21
ATOM     21  C   LIG    1       -0.517   2.189  11.018  0.00  0.00    -0.180 A 
ATOM     22  C   LIG    1       -0.811   3.463  11.322  0.00  0.00    +0.240 A 
ATOM     23  N   LIG    1       -1.454   3.519  12.529  0.00  0.00    -0.590 N 
ATOM     24  H   LIG    1       -1.766   4.331  12.957  0.00  0.00    +0.420 HD
ATOM     25  C   LIG    1       -1.593   2.249  13.044  0.00  0.00    +0.100 A 
ATOM     26  C   LIG    1       -2.158   1.746  14.211  0.00  0.00    +0.000 A 
ATOM     27  C   LIG    1       -2.155   0.388  14.442  0.00  0.00    +0.040 A 
ATOM     28  C   LIG    1       -1.583  -0.485  13.527  0.00  0.00    -0.010 A 
ATOM     29  C   LIG    1       -1.019  -0.011  12.376  0.00  0.00    +0.040 A 
ATOM     30  C   LIG    1       -1.018   1.360  12.117  0.00  0.00    -0.100 A 
ENDBRANCH  20  21
BRANCH  20  31
ATOM     31  C   LIG    1        1.560   2.323   9.705  0.00  0.00    -0.080 A 
ATOM     32  C   LIG    1        1.695   3.698   9.643  0.00  0.00    +0.000 A 
ATOM     33  C   LIG    1        2.953   4.266   9.581  0.00  0.00    +0.010 A 
ATOM     34  C   LIG    1        4.076   3.461   9.570  0.00  0.00    +0.000 A 
ATOM     35  C   LIG    1        3.941   2.086   9.627  0.00  0.00    +0.020 A 
ATOM     36  C   LIG    1        2.683   1.517   9.694  0.00  0.00    +0.000 A 
ENDBRANCH  20  31
ENDBRANCH  19  20
ENDBRANCH   2  19
TORSDOF 10
