REMARK  Name = ZINCrH000004ulUm.0
REMARK                            x       y       z     vdW  Elec       q    Type
REMARK                         _______ _______ _______ _____ _____    ______ ____
ROOT
ATOM      1  O   LIG    1        0.065   8.046  -3.471  0.00  0.00    -0.570 OA
ATOM      2  C   LIG    1        0.686   8.419  -2.494  0.00  0.00    +0.700 C 
ATOM      3  N   LIG    1        1.477   9.507  -2.573  0.00  0.00    -0.670 N 
ATOM      4  H   LIG    1        1.908   9.853  -1.776  0.00  0.00    +0.410 HD
ATOM      5  N   LIG    1        0.584   7.743  -1.333  0.00  0.00    -0.740 N 
ATOM      6  H   LIG    1        1.079   8.040  -0.553  0.00  0.00    +0.400 HD
ENDROOT
BRANCH   3   7
ATOM      7  C   LIG    1        1.676  10.141  -3.808  0.00  0.00    +0.190 A 
ATOM      8  C   LIG    1        1.524   9.428  -4.987  0.00  0.00    +0.020 A 
ATOM      9  C   LIG    1        1.722  10.055  -6.204  0.00  0.00    +0.030 A 
ATOM     10  C   LIG    1        2.071  11.391  -6.250  0.00  0.00    -0.010 A 
ATOM     11  C   LIG    1        2.224  12.110  -5.078  0.00  0.00    -0.010 A 
ATOM     12  C   LIG    1        2.023  11.491  -3.854  0.00  0.00    +0.050 A 
BRANCH  12  13
ATOM     13  N   LIG    1        2.172  12.218  -2.667  0.00  0.00    -0.500 N 
ATOM     14  C   LIG    1        1.167  13.284  -2.573  0.00  0.00    +0.180 C 
ATOM     15  C   LIG    1        1.266  13.961  -1.205  0.00  0.00    +0.020 C 
ATOM     16  C   LIG    1        2.672  14.542  -1.029  0.00  0.00    +0.010 C 
ATOM     17  C   LIG    1        3.702  13.419  -1.179  0.00  0.00    +0.020 C 
ATOM     18  C   LIG    1        3.532  12.758  -2.549  0.00  0.00    +0.180 C 
ENDBRANCH  12  13
ENDBRANCH   3   7
BRANCH   5  19
ATOM     19  C   LIG    1       -0.276   6.560  -1.247  0.00  0.00    +0.280 C 
BRANCH  19  20
ATOM     20  C   LIG    1       -0.212   5.985   0.170  0.00  0.00    +0.080 C 
BRANCH  20  21
ATOM     21  C   LIG    1       -1.097   4.768   0.259  0.00  0.00    -0.070 A 
ATOM     22  C   LIG    1       -2.423   4.904   0.622  0.00  0.00    +0.040 A 
ATOM     23  C   LIG    1       -3.240   3.791   0.700  0.00  0.00    +0.040 A 
ATOM     24  C   LIG    1       -2.727   2.535   0.424  0.00  0.00    +0.030 A 
ATOM     25  O   LIG    1       -3.306   1.299   0.430  0.00  0.00    -0.310 OA
ATOM     26  C   LIG    1       -2.213   0.362   0.462  0.00  0.00    +0.430 C 
ATOM     27  O   LIG    1       -1.132   1.075  -0.165  0.00  0.00    -0.310 OA
ATOM     28  C   LIG    1       -1.389   2.397   0.058  0.00  0.00    +0.030 A 
ATOM     29  C   LIG    1       -0.579   3.517  -0.023  0.00  0.00    +0.050 A 
ENDBRANCH  20  21
ENDBRANCH  19  20
ENDBRANCH   5  19
TORSDOF 5
