REMARK  Name = ZINCpe000000VkTY.0
REMARK                            x       y       z     vdW  Elec       q    Type
REMARK                         _______ _______ _______ _____ _____    ______ ____
ROOT
ATOM      1  C   LIG    1       -1.489   3.443   2.579  0.00  0.00    +0.000 C 
ATOM      2  C   LIG    1       -2.965   2.994   2.621  0.00  0.00    +0.230 C 
ATOM      3  N   LIG    1       -3.758   4.143   3.095  0.00  0.00    -0.520 NA
ATOM      4  C   LIG    1       -2.839   5.268   3.368  0.00  0.00    +0.190 C 
ATOM      5  C   LIG    1       -1.597   4.987   2.486  0.00  0.00    +0.280 C 
ENDROOT
BRANCH   5   6
ATOM      6  N   LIG    1       -0.403   5.631   3.041  0.00  0.00    -0.700 N 
ATOM      7  H   LIG    1        0.133   5.169   3.704  0.00  0.00    +0.410 HD
ATOM      8  C   LIG    1       -0.050   6.865   2.630  0.00  0.00    +0.580 C 
ATOM      9  O   LIG    1       -0.722   7.444   1.799  0.00  0.00    -0.510 OA
BRANCH   8  10
ATOM     10  C   LIG    1        1.157   7.516   3.191  0.00  0.00    +0.030 A 
ATOM     11  C   LIG    1        1.527   8.790   2.763  0.00  0.00    +0.290 A 
ATOM     12  N   LIG    1        2.601   9.368   3.270  0.00  0.00    -0.440 NA
ATOM     13  C   LIG    1        3.329   8.736   4.173  0.00  0.00    +0.260 A 
ATOM     14  C   LIG    1        2.966   7.465   4.597  0.00  0.00    +0.230 A 
ATOM     15  N   LIG    1        1.894   6.883   4.100  0.00  0.00    -0.410 NA
ENDBRANCH   8  10
ENDBRANCH   5   6
BRANCH   1  16
ATOM     16  C   LIG    1       -0.797   2.883   1.363  0.00  0.00    +0.470 C 
ATOM     17  O   LIG    1       -0.336   3.630   0.533  0.00  0.00    -0.490 OA
BRANCH  16  19
ATOM     18  C   LIG    1       -0.013   1.086   0.008  0.00  0.00    +0.260 C 
ATOM     19  O   LIG    1       -0.692   1.554   1.203  0.00  0.00    -0.360 OA
ENDBRANCH  16  19
ENDBRANCH   1  16
BRANCH   3  20
ATOM     20  C   LIG    1       -4.531   3.791   4.294  0.00  0.00    +0.230 C 
BRANCH  20  21
ATOM     21  C   LIG    1       -5.631   2.832   3.919  0.00  0.00    -0.080 A 
ATOM     22  C   LIG    1       -6.872   3.315   3.549  0.00  0.00    +0.020 A 
ATOM     23  C   LIG    1       -7.880   2.435   3.201  0.00  0.00    +0.000 A 
ATOM     24  C   LIG    1       -7.650   1.072   3.232  0.00  0.00    +0.000 A 
ATOM     25  C   LIG    1       -6.410   0.590   3.607  0.00  0.00    +0.000 A 
ATOM     26  C   LIG    1       -5.400   1.470   3.950  0.00  0.00    +0.010 A 
ENDBRANCH  20  21
ENDBRANCH   3  20
TORSDOF 6
