REMARK  Name = ZINCrD0000073vaG.0
REMARK                            x       y       z     vdW  Elec       q    Type
REMARK                         _______ _______ _______ _____ _____    ______ ____
ROOT
ATOM      1  N   LIG    1        2.951   5.619  -3.219  0.00  0.00    -0.750 N 
ATOM      2  H   LIG    1        3.471   4.965  -3.713  0.00  0.00    +0.390 HD
ATOM      3  C   LIG    1        2.510   5.329  -1.979  0.00  0.00    +0.710 C 
ATOM      4  N   LIG    1        2.874   4.176  -1.385  0.00  0.00    -0.600 N 
ATOM      5  O   LIG    1        1.782   6.109  -1.395  0.00  0.00    -0.580 OA
ENDROOT
BRANCH   4   6
ATOM      6  C   LIG    1        2.457   3.895  -0.010  0.00  0.00    +0.210 C 
ATOM      7  C   LIG    1        1.304   4.724   0.561  0.00  0.00    +0.050 C 
ATOM      8  C   LIG    1        2.736   4.967   1.046  0.00  0.00    -0.010 C 
ENDBRANCH   4   6
BRANCH   1   9
ATOM      9  C   LIG    1        2.647   6.920  -3.820  0.00  0.00    +0.280 C 
BRANCH   9  10
ATOM     10  C   LIG    1        3.260   6.991  -5.220  0.00  0.00    +0.090 C 
BRANCH  10  15
ATOM     11  C   LIG    1        1.566   9.699  -7.239  0.00  0.00    +0.100 A 
ATOM     12  C   LIG    1        2.377  10.791  -6.973  0.00  0.00    -0.040 A 
ATOM     13  C   LIG    1        3.472  10.654  -6.142  0.00  0.00    -0.040 A 
ATOM     14  C   LIG    1        3.759   9.422  -5.572  0.00  0.00    +0.100 A 
ATOM     15  C   LIG    1        2.948   8.329  -5.838  0.00  0.00    -0.070 A 
ATOM     16  C   LIG    1        1.857   8.466  -6.673  0.00  0.00    +0.030 A 
BRANCH  11  18
ATOM     17  C   LIG    1        0.253  11.131  -8.609  0.00  0.00    +0.240 C 
ATOM     18  O   LIG    1        0.489   9.834  -8.057  0.00  0.00    -0.320 OA
ENDBRANCH  11  18
BRANCH  14  19
ATOM     19  O   LIG    1        4.836   9.287  -4.753  0.00  0.00    -0.310 OA
ATOM     20  C   LIG    1        5.628  10.454  -4.524  0.00  0.00    +0.230 C 
ENDBRANCH  14  19
ENDBRANCH  10  15
ENDBRANCH   9  10
ENDBRANCH   1   9
BRANCH   4  21
ATOM     21  C   LIG    1        3.689   3.201  -2.117  0.00  0.00    +0.330 C 
BRANCH  21  22
ATOM     22  C   LIG    1        5.149   3.491  -1.882  0.00  0.00    -0.100 A 
ATOM     23  C   LIG    1        5.808   2.899  -0.821  0.00  0.00    +0.020 A 
ATOM     24  C   LIG    1        7.148   3.162  -0.602  0.00  0.00    +0.030 A 
ATOM     25  C   LIG    1        7.830   4.022  -1.442  0.00  0.00    -0.010 A 
ATOM     26  C   LIG    1        7.172   4.613  -2.510  0.00  0.00    +0.110 A 
ATOM     27  C   LIG    1        5.828   4.347  -2.727  0.00  0.00    -0.010 A 
BRANCH  26  28
ATOM     28  O   LIG    1        7.842   5.455  -3.340  0.00  0.00    -0.500 OA
ATOM     29  H   LIG    1        7.817   6.382  -3.064  0.00  0.00    +0.390 HD
ENDBRANCH  26  28
ENDBRANCH  21  22
ENDBRANCH   4  21
TORSDOF 9
