REMARK  Name = ZINCtV000002HVFc.0
REMARK                            x       y       z     vdW  Elec       q    Type
REMARK                         _______ _______ _______ _____ _____    ______ ____
ROOT
ATOM      1  C   LIG    1        5.456   4.134  -0.021  0.00  0.00    +0.060 C 
ENDROOT
BRANCH   1   2
ATOM      2  C   LIG    1        6.029   3.609  -1.312  0.00  0.00    -0.090 A 
ATOM      3  C   LIG    1        5.606   4.132  -2.520  0.00  0.00    +0.030 A 
ATOM      4  C   LIG    1        6.135   3.654  -3.704  0.00  0.00    +0.000 A 
ATOM      5  C   LIG    1        7.080   2.645  -3.681  0.00  0.00    +0.010 A 
ATOM      6  C   LIG    1        7.499   2.118  -2.474  0.00  0.00    +0.000 A 
ATOM      7  C   LIG    1        6.974   2.600  -1.289  0.00  0.00    +0.060 A 
ENDBRANCH   1   2
BRANCH   1  10
ATOM      8  N   LIG    1        6.973   6.013   0.514  0.00  0.00    -0.660 N 
ATOM      9  H   LIG    1        7.633   5.361   0.797  0.00  0.00    +0.420 HD
ATOM     10  C   LIG    1        5.757   5.606   0.100  0.00  0.00    +0.540 C 
ATOM     11  O   LIG    1        4.904   6.424  -0.174  0.00  0.00    -0.500 OA
BRANCH   8  16
ATOM     12  C   LIG    1        8.235  11.544   0.599  0.00  0.00    +0.100 C 
ATOM     13  C   LIG    1        7.900  10.075   0.576  0.00  0.00    -0.090 A 
ATOM     14  C   LIG    1        6.617   9.655   0.872  0.00  0.00    +0.050 A 
ATOM     15  C   LIG    1        6.306   8.309   0.852  0.00  0.00    +0.040 A 
ATOM     16  C   LIG    1        7.285   7.377   0.534  0.00  0.00    +0.150 A 
ATOM     17  C   LIG    1        8.575   7.800   0.242  0.00  0.00    +0.010 A 
ATOM     18  C   LIG    1        8.878   9.149   0.258  0.00  0.00    -0.020 A 
ATOM     19 CL   LIG    1       10.489   9.680  -0.113  0.00  0.00    -0.060 Cl
ENDBRANCH   8  16
ENDBRANCH   1  10
BRANCH   1  20
ATOM     20  S   LIG    1        3.664   3.882  -0.010  0.00  0.00    +0.060 S 
BRANCH  20  21
ATOM     21  C   LIG    1        3.602   2.121  -0.009  0.00  0.00    +0.190 A 
ATOM     22  N   LIG    1        4.717   1.400  -0.015  0.00  0.00    -0.530 NA
ATOM     23  C   LIG    1        4.684   0.077  -0.014  0.00  0.00    +0.510 A 
ATOM     24  N   LIG    1        3.566  -0.610  -0.006  0.00  0.00    -0.510 NA
ATOM     25  C   LIG    1        2.381   0.019   0.001  0.00  0.00    +0.170 A 
ATOM     26  C   LIG    1        1.168  -0.682   0.009  0.00  0.00    +0.040 A 
ATOM     27  C   LIG    1       -0.008   0.007   0.015  0.00  0.00    +0.060 A 
ATOM     28  C   LIG    1       -0.024   1.398   0.014  0.00  0.00    +0.030 A 
ATOM     29  C   LIG    1        1.138   2.112   0.007  0.00  0.00    +0.060 A 
ATOM     30  C   LIG    1        2.362   1.435  -0.000  0.00  0.00    -0.140 A 
ENDBRANCH  20  21
ENDBRANCH   1  20
TORSDOF 5
