REMARK  Name = ZINCvU0000000Bhg.0
REMARK                            x       y       z     vdW  Elec       q    Type
REMARK                         _______ _______ _______ _____ _____    ______ ____
ROOT
ATOM      1  N   LIG    1       -0.094   6.123  -1.347  0.00  0.00    -0.360 N 
ATOM      2  N   LIG    1       -1.228   6.394  -2.129  0.00  0.00    -0.290 NA
ATOM      3  C   LIG    1       -0.800   6.816  -3.291  0.00  0.00    +0.230 A 
ATOM      4  N   LIG    1        0.530   6.829  -3.290  0.00  0.00    -0.510 NA
ATOM      5  C   LIG    1        0.979   6.418  -2.119  0.00  0.00    +0.360 A 
ENDROOT
BRANCH   5   6
ATOM      6  C   LIG    1        2.394   6.298  -1.724  0.00  0.00    -0.180 A 
ATOM      7  C   LIG    1        3.504   6.305  -2.542  0.00  0.00    +0.120 A 
ATOM      8  C   LIG    1        4.673   6.172  -1.805  0.00  0.00    +0.140 A 
ATOM      9  N   LIG    1        4.559   6.057  -0.513  0.00  0.00    -0.510 NA
ATOM     10  S   LIG    1        3.054   6.106  -0.093  0.00  0.00    +0.440 S 
BRANCH   8  11
ATOM     11  C   LIG    1        6.001   6.157  -2.465  0.00  0.00    +0.180 A 
ATOM     12  C   LIG    1        7.154   6.017  -1.695  0.00  0.00    +0.010 A 
ATOM     13  C   LIG    1        8.386   6.004  -2.325  0.00  0.00    +0.060 A 
ATOM     14  C   LIG    1        8.426   6.133  -3.706  0.00  0.00    -0.020 A 
ATOM     15  C   LIG    1        7.242   6.269  -4.409  0.00  0.00    +0.270 A 
ATOM     16  N   LIG    1        6.082   6.272  -3.785  0.00  0.00    -0.470 NA
ENDBRANCH   8  11
ENDBRANCH   5   6
BRANCH   1  17
ATOM     17  C   LIG    1       -0.074   5.628   0.032  0.00  0.00    +0.390 C 
BRANCH  17  21
ATOM     18  C   LIG    1       -0.016   1.355   0.009  0.00  0.00    +0.150 A 
ATOM     19  C   LIG    1       -1.226   2.033   0.019  0.00  0.00    -0.080 A 
ATOM     20  C   LIG    1       -1.242   3.414   0.031  0.00  0.00    +0.090 A 
ATOM     21  C   LIG    1       -0.054   4.121   0.024  0.00  0.00    -0.160 A 
ATOM     22  C   LIG    1        1.153   3.447   0.009  0.00  0.00    +0.070 A 
ATOM     23  C   LIG    1        1.175   2.066   0.002  0.00  0.00    -0.010 A 
BRANCH  18  25
ATOM     24  C   LIG    1       -1.262  -0.670   0.011  0.00  0.00    +0.240 C 
ATOM     25  O   LIG    1        0.002  -0.004   0.002  0.00  0.00    -0.310 OA
ENDBRANCH  18  25
ENDBRANCH  17  21
ENDBRANCH   1  17
BRANCH   3  26
ATOM     26  C   LIG    1       -1.675   7.223  -4.448  0.00  0.00    +0.180 C 
BRANCH  26  27
ATOM     27  C   LIG    1       -1.985   8.719  -4.351  0.00  0.00    +0.070 C 
BRANCH  27  28
ATOM     28  C   LIG    1       -2.874   9.132  -5.526  0.00  0.00    +0.460 C 
ATOM     29  F   LIG    1       -2.209   8.871  -6.728  0.00  0.00    -0.180 F 
ATOM     30  F   LIG    1       -3.157  10.499  -5.437  0.00  0.00    -0.180 F 
ATOM     31  F   LIG    1       -4.068   8.405  -5.485  0.00  0.00    -0.180 F 
ENDBRANCH  27  28
ENDBRANCH  26  27
ENDBRANCH   3  26
TORSDOF 8
