REMARK  Name = ZINCrH000004uFIy.0
REMARK                            x       y       z     vdW  Elec       q    Type
REMARK                         _______ _______ _______ _____ _____    ______ ____
ROOT
ATOM      1  O   LIG    1        3.789  -3.083  -2.812  0.00  0.00    -0.510 OA
ATOM      2  C   LIG    1        4.793  -2.474  -2.498  0.00  0.00    +0.560 C 
ATOM      3  N   LIG    1        4.904  -1.948  -1.262  0.00  0.00    -0.730 N 
ATOM      4  H   LIG    1        5.706  -1.463  -1.011  0.00  0.00    +0.400 HD
ENDROOT
BRANCH   2   5
ATOM      5  C   LIG    1        5.891  -2.311  -3.470  0.00  0.00    -0.160 A 
ATOM      6  C   LIG    1        7.032  -1.612  -3.110  0.00  0.00    +0.080 A 
ATOM      7  C   LIG    1        8.074  -1.466  -4.036  0.00  0.00    -0.070 A 
ATOM      8  C   LIG    1        9.248  -0.766  -3.703  0.00  0.00    +0.030 A 
ATOM      9  C   LIG    1       10.240  -0.636  -4.625  0.00  0.00    +0.010 A 
ATOM     10  C   LIG    1       10.111  -1.185  -5.899  0.00  0.00    +0.030 A 
ATOM     11  C   LIG    1        8.990  -1.868  -6.258  0.00  0.00    +0.020 A 
ATOM     12  C   LIG    1        7.943  -2.025  -5.334  0.00  0.00    -0.020 A 
ATOM     13  C   LIG    1        6.774  -2.725  -5.676  0.00  0.00    +0.000 A 
ATOM     14  C   LIG    1        5.771  -2.864  -4.763  0.00  0.00    +0.160 A 
BRANCH  14  15
ATOM     15  O   LIG    1        4.644  -3.542  -5.101  0.00  0.00    -0.480 OA
ATOM     16  H   LIG    1        3.952  -2.987  -5.486  0.00  0.00    +0.400 HD
ENDBRANCH  14  15
ENDBRANCH   2   5
BRANCH   3  17
ATOM     17  C   LIG    1        3.814  -2.110  -0.296  0.00  0.00    +0.340 C 
BRANCH  17  18
ATOM     18  C   LIG    1        4.185  -1.435   0.999  0.00  0.00    -0.070 A 
ATOM     19  C   LIG    1        4.666  -2.184   2.056  0.00  0.00    +0.030 A 
ATOM     20  C   LIG    1        5.002  -1.565   3.246  0.00  0.00    +0.020 A 
ATOM     21  C   LIG    1        4.861  -0.196   3.376  0.00  0.00    +0.020 A 
ATOM     22  C   LIG    1        4.385   0.554   2.317  0.00  0.00    +0.020 A 
ATOM     23  C   LIG    1        4.050  -0.065   1.127  0.00  0.00    -0.100 A 
BRANCH  23  24
ATOM     24  C   LIG    1        3.531   0.753  -0.027  0.00  0.00    +0.360 C 
BRANCH  24  25
ATOM     25  N   LIG    1        2.066   0.743  -0.014  0.00  0.00    -0.370 N 
ATOM     26  C   LIG    1        1.265   1.828  -0.000  0.00  0.00    +0.220 A 
ATOM     27  C   LIG    1       -0.017   1.395   0.010  0.00  0.00    -0.120 A 
ATOM     28  C   LIG    1        0.002  -0.004   0.002  0.00  0.00    +0.230 A 
ATOM     29  N   LIG    1        1.250  -0.396  -0.012  0.00  0.00    -0.290 NA
ENDBRANCH  24  25
ENDBRANCH  23  24
ENDBRANCH  17  18
ENDBRANCH   3  17
TORSDOF 6
