REMARK  Name = ZINCpe000000W4U3.0
REMARK                            x       y       z     vdW  Elec       q    Type
REMARK                         _______ _______ _______ _____ _____    ______ ____
ROOT
ATOM      1  N   LIG    1        8.436   1.972   0.761  0.00  0.00    -0.670 N 
ATOM      2  H   LIG    1        8.456   2.573   0.000  0.00  0.00    +0.410 HD
ATOM      3  C   LIG    1        7.255   1.558   1.262  0.00  0.00    +0.530 C 
ATOM      4  O   LIG    1        7.229   0.730   2.148  0.00  0.00    -0.500 OA
ENDROOT
BRANCH   1  10
ATOM      5  C   LIG    1       10.799   1.500   0.585  0.00  0.00    -0.120 A 
ATOM      6  C   LIG    1       11.979   1.072   1.159  0.00  0.00    +0.060 A 
ATOM      7  C   LIG    1       12.000   0.670   2.482  0.00  0.00    +0.000 A 
ATOM      8  C   LIG    1       10.840   0.699   3.235  0.00  0.00    +0.030 A 
ATOM      9  C   LIG    1        9.657   1.130   2.667  0.00  0.00    +0.020 A 
ATOM     10  C   LIG    1        9.633   1.535   1.339  0.00  0.00    +0.150 A 
BRANCH   5  11
ATOM     11  C   LIG    1       10.775   1.932  -0.859  0.00  0.00    +0.220 C 
BRANCH  11  13
ATOM     12  C   LIG    1       12.175   2.192  -2.788  0.00  0.00    +0.200 C 
ATOM     13  O   LIG    1       12.086   1.805  -1.415  0.00  0.00    -0.380 OA
ENDBRANCH  11  13
ENDBRANCH   5  11
ENDBRANCH   1  10
BRANCH   3  14
ATOM     14  C   LIG    1        5.968   2.124   0.721  0.00  0.00    +0.010 C 
ATOM     15  C   LIG    1        5.734   1.673  -0.739  0.00  0.00    +0.080 C 
ATOM     16  C   LIG    1        4.241   1.447  -0.825  0.00  0.00    +0.520 C 
ATOM     17  N   LIG    1        3.713   1.370   0.408  0.00  0.00    -0.610 N 
ATOM     18  O   LIG    1        3.611   1.353  -1.857  0.00  0.00    -0.510 OA
ATOM     19  C   LIG    1        4.748   1.508   1.440  0.00  0.00    +0.300 C 
BRANCH  17  20
ATOM     20  C   LIG    1        2.289   1.168   0.687  0.00  0.00    +0.280 C 
ATOM     21  C   LIG    1        1.459   2.283   0.028  0.00  0.00    +0.070 C 
ATOM     22  C   LIG    1       -0.026   1.868   0.043  0.00  0.00    -0.310 C 
ATOM     23  S   LIG    1       -0.010   0.039   0.023  0.00  0.00    +2.400 S 
ATOM     24  O   LIG    1       -0.511  -0.423  -1.224  0.00  0.00    -0.930 OA
ATOM     25  O   LIG    1       -0.567  -0.450   1.235  0.00  0.00    -0.930 OA
ATOM     26  C   LIG    1        1.811  -0.169   0.064  0.00  0.00    -0.320 C 
ENDBRANCH  17  20
ENDBRANCH   3  14
TORSDOF 5
