REMARK  Name = ZINCrg000000rbJf.0
REMARK                            x       y       z     vdW  Elec       q    Type
REMARK                         _______ _______ _______ _____ _____    ______ ____
ROOT
ATOM      1  C   LIG    1        6.215  -1.438   0.989  0.00  0.00    +0.030 C 
ATOM      2  C   LIG    1        6.140  -0.575  -0.273  0.00  0.00    +0.180 C 
ENDROOT
BRANCH   2   3
ATOM      3  N   LIG    1        7.225   0.415  -0.255  0.00  0.00    -0.520 NA
ATOM      4  C   LIG    1        8.513  -0.209  -0.586  0.00  0.00    +0.190 C 
ATOM      5  C   LIG    1        9.601   0.866  -0.634  0.00  0.00    +0.180 C 
ATOM      6  N   LIG    1        9.669   1.549   0.665  0.00  0.00    -0.530 NA
ATOM      7  C   LIG    1        8.381   2.173   0.997  0.00  0.00    +0.180 C 
ATOM      8  C   LIG    1        7.293   1.098   1.045  0.00  0.00    +0.200 C 
BRANCH   6   9
ATOM      9  C   LIG    1       10.754   2.539   0.684  0.00  0.00    +0.220 C 
BRANCH   9  10
ATOM     10  C   LIG    1       12.101   1.821   0.582  0.00  0.00    -0.340 C 
BRANCH  10  11
ATOM     11  S   LIG    1       13.441   3.044   0.605  0.00  0.00    +2.620 S 
ATOM     12  O   LIG    1       13.530   3.662   1.881  0.00  0.00    -0.960 OA
ATOM     13  O   LIG    1       13.429   3.820  -0.585  0.00  0.00    -0.960 OA
BRANCH  11  14
ATOM     14  N   LIG    1       14.825   2.142   0.490  0.00  0.00    -1.250 NA
ATOM     15  H   LIG    1       14.850   1.243   0.853  0.00  0.00    +0.410 HD
ATOM     16  H   LIG    1       15.612   2.513   0.061  0.00  0.00    +0.420 HD
ENDBRANCH  11  14
ENDBRANCH  10  11
ENDBRANCH   9  10
ENDBRANCH   6   9
ENDBRANCH   2   3
BRANCH   2  17
ATOM     17  C   LIG    1        4.812   0.136  -0.317  0.00  0.00    +0.520 C 
ATOM     18  N   LIG    1        3.692  -0.547  -0.628  0.00  0.00    -0.670 N 
ATOM     19  H   LIG    1        3.731  -1.507  -0.762  0.00  0.00    +0.410 HD
ATOM     20  O   LIG    1        4.751   1.322  -0.073  0.00  0.00    -0.500 OA
BRANCH  18  21
ATOM     21  C   LIG    1        2.476   0.128  -0.756  0.00  0.00    +0.150 A 
ATOM     22  C   LIG    1        2.245   1.285  -0.045  0.00  0.00    +0.020 A 
ATOM     23  C   LIG    1        1.036   1.965  -0.166  0.00  0.00    +0.040 A 
ATOM     24  C   LIG    1        0.051   1.508  -0.987  0.00  0.00    +0.010 A 
ATOM     25  C   LIG    1        0.247   0.331  -1.730  0.00  0.00    -0.040 A 
ATOM     26  C   LIG    1       -0.751  -0.165  -2.586  0.00  0.00    +0.030 A 
ATOM     27  C   LIG    1       -0.528  -1.307  -3.291  0.00  0.00    +0.000 A 
ATOM     28  C   LIG    1        0.678  -1.996  -3.178  0.00  0.00    +0.010 A 
ATOM     29  C   LIG    1        1.667  -1.545  -2.358  0.00  0.00    +0.010 A 
ATOM     30  C   LIG    1        1.473  -0.370  -1.616  0.00  0.00    -0.060 A 
ENDBRANCH  18  21
ENDBRANCH   2  17
TORSDOF 7
