REMARK  Name = ZINCkj00000a6Tzr.0
REMARK                            x       y       z     vdW  Elec       q    Type
REMARK                         _______ _______ _______ _____ _____    ______ ____
ROOT
ATOM      1  N   LIG    1        1.049   2.125  -2.516  0.00  0.00    -0.670 N 
ATOM      2  H   LIG    1        1.656   1.883  -1.799  0.00  0.00    +0.410 HD
ATOM      3  C   LIG    1       -0.283   2.078  -2.316  0.00  0.00    +0.730 C 
ATOM      4  N   LIG    1       -0.773   1.607  -1.153  0.00  0.00    -0.630 N 
ATOM      5  C   LIG    1       -0.013   1.099   0.013  0.00  0.00    +0.300 C 
ATOM      6  C   LIG    1       -0.782   1.628   1.246  0.00  0.00    +0.180 C 
ATOM      7  C   LIG    1       -2.211   1.867   0.732  0.00  0.00    -0.120 C 
ATOM      8  C   LIG    1       -3.328   1.243   1.567  0.00  0.00    +0.030 C 
ATOM      9  C   LIG    1       -4.147   2.510   1.258  0.00  0.00    +0.060 C 
ATOM     10  C   LIG    1       -2.807   3.237   1.050  0.00  0.00    +0.050 C 
ATOM     11  C   LIG    1       -2.196   1.478  -0.753  0.00  0.00    +0.340 C 
ATOM     12  O   LIG    1       -1.042   2.462  -3.185  0.00  0.00    -0.540 OA
ENDROOT
BRANCH   1  16
ATOM     13  C   LIG    1        2.528   3.283  -6.134  0.00  0.00    +0.320 A 
ATOM     14  N   LIG    1        1.424   3.845  -5.684  0.00  0.00    -0.500 NA
ATOM     15  C   LIG    1        0.912   3.497  -4.516  0.00  0.00    +0.340 A 
ATOM     16  C   LIG    1        1.557   2.523  -3.759  0.00  0.00    +0.030 A 
ATOM     17  C   LIG    1        2.724   1.958  -4.268  0.00  0.00    +0.310 A 
ATOM     18  N   LIG    1        3.168   2.358  -5.447  0.00  0.00    -0.500 NA
BRANCH  13  20
ATOM     19  C   LIG    1        4.044   4.879  -7.276  0.00  0.00    +0.050 C 
ATOM     20  C   LIG    1        3.075   3.712  -7.471  0.00  0.00    +0.120 C 
ENDBRANCH  13  20
ENDBRANCH   1  16
BRANCH   6  21
ATOM     21  N   LIG    1       -0.783   0.624   2.319  0.00  0.00    -0.630 N 
ATOM     22  H   LIG    1       -1.207  -0.227   1.983  0.00  0.00    +0.440 HD
ATOM     23  H   LIG    1       -1.308   0.974   3.106  0.00  0.00    +0.440 HD
ATOM     24  H   LIG    1        0.167   0.437   2.605  0.00  0.00    +0.440 HD
ENDBRANCH   6  21
TORSDOF 3
