REMARK  Name = ZINCqH00000003U7.0
REMARK                            x       y       z     vdW  Elec       q    Type
REMARK                         _______ _______ _______ _____ _____    ______ ____
ROOT
ATOM      1  C   LIG    1       -3.359  -1.276   0.254  0.00  0.00    -0.060 A 
ATOM      2  C   LIG    1       -2.727  -2.381  -0.232  0.00  0.00    +0.080 A 
ATOM      3  C   LIG    1       -3.352  -3.711  -0.563  0.00  0.00    +0.140 C 
ATOM      4  C   LIG    1       -2.494  -4.830   0.036  0.00  0.00    +0.020 C 
ATOM      5  C   LIG    1       -1.414  -5.231  -0.963  0.00  0.00    +0.010 C 
ATOM      6  C   LIG    1       -0.961  -4.019  -1.776  0.00  0.00    +0.030 C 
ATOM      7  C   LIG    1       -0.360  -2.965  -0.843  0.00  0.00    +0.280 C 
ATOM      8  N   LIG    1       -1.419  -2.066  -0.374  0.00  0.00    -0.440 N 
ATOM      9  C   LIG    1       -1.267  -0.764   0.011  0.00  0.00    +0.240 A 
ATOM     10  N   LIG    1       -2.433  -0.302   0.395  0.00  0.00    -0.440 NA
ENDROOT
BRANCH   1  15
ATOM     11  C   LIG    1       -6.646   1.405   2.432  0.00  0.00    -0.010 C 
ATOM     12  C   LIG    1       -5.494   2.273   1.861  0.00  0.00    +0.040 C 
ATOM     13  C   LIG    1       -4.516   1.221   1.296  0.00  0.00    +0.270 C 
ATOM     14  N   LIG    1       -5.289  -0.005   1.050  0.00  0.00    -0.610 N 
ATOM     15  C   LIG    1       -4.793  -1.164   0.574  0.00  0.00    +0.620 C 
ATOM     16  O   LIG    1       -5.529  -2.118   0.408  0.00  0.00    -0.540 OA
ATOM     17  C   LIG    1       -6.698   0.245   1.404  0.00  0.00    +0.260 C 
BRANCH  11  18
ATOM     18  C   LIG    1       -7.963   2.184   2.446  0.00  0.00    +0.180 C 
BRANCH  18  20
ATOM     19  C   LIG    1       -9.834   0.731   3.625  0.00  0.00    +0.020 C 
ATOM     20  C   LIG    1       -9.004   1.375   3.102  0.00  0.00    -0.190 C 
ENDBRANCH  18  20
ENDBRANCH  11  18
ENDBRANCH   1  15
BRANCH   9  21
ATOM     21  C   LIG    1        0.002  -0.004   0.002  0.00  0.00    -0.010 A 
ATOM     22  C   LIG    1       -0.017   1.391   0.011  0.00  0.00    +0.050 A 
ATOM     23  C   LIG    1        1.170   2.094   0.004  0.00  0.00    +0.010 A 
ATOM     24  C   LIG    1        2.378   1.419  -0.013  0.00  0.00    +0.020 A 
ATOM     25  C   LIG    1        2.403   0.035  -0.022  0.00  0.00    +0.010 A 
ATOM     26  C   LIG    1        1.223  -0.679  -0.015  0.00  0.00    +0.010 A 
ENDBRANCH   9  21
TORSDOF 4
