REMARK  Name = ZINCqH0000033nik.2
REMARK                            x       y       z     vdW  Elec       q    Type
REMARK                         _______ _______ _______ _____ _____    ______ ____
ROOT
ATOM      1  C   LIG    1       -2.139   3.305   1.355  0.00  0.00    +0.340 C 
ENDROOT
BRANCH   1   2
ATOM      2  C   LIG    1       -2.118   4.244   2.533  0.00  0.00    +0.260 A 
ATOM      3  N   LIG    1       -1.847   3.896   3.755  0.00  0.00    -0.450 NA
ATOM      4  C   LIG    1       -1.920   4.997   4.551  0.00  0.00    +0.020 A 
ATOM      5  C   LIG    1       -1.732   5.216   5.916  0.00  0.00    +0.150 A 
ATOM      6  C   LIG    1       -1.883   6.484   6.432  0.00  0.00    -0.180 A 
ATOM      7  C   LIG    1       -2.221   7.543   5.603  0.00  0.00    +0.110 A 
ATOM      8  C   LIG    1       -2.410   7.341   4.251  0.00  0.00    +0.060 A 
ATOM      9  C   LIG    1       -2.262   6.072   3.716  0.00  0.00    +0.040 A 
ATOM     10  O   LIG    1       -2.370   5.561   2.469  0.00  0.00    -0.210 OA
BRANCH   6  11
ATOM     11  C   LIG    1       -1.679   6.723   7.906  0.00  0.00    +0.520 C 
ATOM     12  F   LIG    1       -2.023   5.568   8.617  0.00  0.00    -0.170 F 
ATOM     13  F   LIG    1       -2.489   7.785   8.322  0.00  0.00    -0.170 F 
ATOM     14  F   LIG    1       -0.337   7.037   8.147  0.00  0.00    -0.170 F 
ENDBRANCH   6  11
ENDBRANCH   1   2
BRANCH   1  20
ATOM     15  C   LIG    1       -3.574   1.906  -0.003  0.00  0.00    +0.170 C 
ATOM     16  C   LIG    1       -4.945   1.228  -0.056  0.00  0.00    +0.040 C 
ATOM     17  C   LIG    1       -6.038   2.300  -0.083  0.00  0.00    +0.010 C 
ATOM     18  C   LIG    1       -5.897   3.192   1.154  0.00  0.00    +0.020 C 
ATOM     19  C   LIG    1       -4.499   3.813   1.172  0.00  0.00    +0.160 C 
ATOM     20  N   LIG    1       -3.489   2.748   1.197  0.00  0.00    -0.530 NA
BRANCH  15  21
ATOM     21  C   LIG    1       -2.479   0.839   0.043  0.00  0.00    +0.070 C 
BRANCH  21  24
ATOM     22  N   LIG    1       -1.666  -1.001  -1.396  0.00  0.00    -0.730 N 
ATOM     23  H   LIG    1       -1.093  -1.278  -0.665  0.00  0.00    +0.400 HD
ATOM     24  C   LIG    1       -2.470   0.071  -1.253  0.00  0.00    +0.510 C 
ATOM     25  O   LIG    1       -3.187   0.418  -2.168  0.00  0.00    -0.540 OA
BRANCH  22  27
ATOM     26  C   LIG    1       -0.674  -2.914  -2.552  0.00  0.00    +0.030 C 
ATOM     27  C   LIG    1       -1.662  -1.751  -2.655  0.00  0.00    +0.250 C 
ENDBRANCH  22  27
ENDBRANCH  21  24
ENDBRANCH  15  21
ENDBRANCH   1  20
TORSDOF 6
