REMARK  Name = ZINCrD000001YJ9H.0
REMARK                            x       y       z     vdW  Elec       q    Type
REMARK                         _______ _______ _______ _____ _____    ______ ____
ROOT
ATOM      1  C   LIG    1        2.466   1.053  -0.005  0.00  0.00    +0.560 C 
ATOM      2  N   LIG    1        3.625   1.740  -0.016  0.00  0.00    -0.720 N 
ATOM      3  H   LIG    1        3.614   2.710  -0.015  0.00  0.00    +0.400 HD
ATOM      4  O   LIG    1        2.479  -0.163  -0.007  0.00  0.00    -0.530 OA
ENDROOT
BRANCH   1   8
ATOM      5  C   LIG    1       -1.236   3.135   0.033  0.00  0.00    +0.170 A 
ATOM      6  C   LIG    1       -1.222   1.743   0.026  0.00  0.00    +0.000 A 
ATOM      7  C   LIG    1       -0.024   1.066   0.020  0.00  0.00    +0.090 A 
ATOM      8  C   LIG    1        1.179   1.776   0.009  0.00  0.00    -0.140 A 
ATOM      9  C   LIG    1        1.162   3.174   0.010  0.00  0.00    +0.060 A 
ATOM     10  C   LIG    1       -0.040   3.846   0.022  0.00  0.00    +0.020 A 
BRANCH   5  12
ATOM     11  C   LIG    1       -2.789   4.571   1.110  0.00  0.00    +0.550 C 
ATOM     12  N   LIG    1       -2.450   3.818   0.045  0.00  0.00    -0.580 N 
ATOM     13  C   LIG    1       -3.359   3.717  -1.100  0.00  0.00    +0.300 C 
ATOM     14  O   LIG    1       -1.996   4.733   2.018  0.00  0.00    -0.520 OA
BRANCH  11  16
ATOM     15  C   LIG    1       -4.453   5.940   2.226  0.00  0.00    +0.160 C 
ATOM     16  C   LIG    1       -4.118   5.197   1.175  0.00  0.00    -0.090 C 
ENDBRANCH  11  16
ENDBRANCH   5  12
ENDBRANCH   1   8
BRANCH   2  17
ATOM     17  C   LIG    1        4.902   1.022  -0.030  0.00  0.00    +0.260 C 
ATOM     18  C   LIG    1        5.299   0.661   1.403  0.00  0.00    +0.040 C 
BRANCH  17  19
ATOM     19  C   LIG    1        5.981   1.912  -0.650  0.00  0.00    +0.200 C 
BRANCH  19  20
ATOM     20  O   LIG    1        6.197   3.051   0.186  0.00  0.00    -0.310 OA
BRANCH  20  21
ATOM     21  C   LIG    1        7.132   3.949  -0.224  0.00  0.00    +0.030 A 
ATOM     22  C   LIG    1        8.454   3.808   0.176  0.00  0.00    +0.110 A 
ATOM     23  C   LIG    1        9.404   4.721  -0.247  0.00  0.00    +0.000 A 
ATOM     24  C   LIG    1        9.036   5.779  -1.058  0.00  0.00    +0.090 A 
ATOM     25  C   LIG    1        7.719   5.925  -1.453  0.00  0.00    +0.000 A 
ATOM     26  F   LIG    1        8.814   2.779   0.973  0.00  0.00    -0.120 F 
ATOM     27  C   LIG    1        6.765   5.013  -1.038  0.00  0.00    +0.110 A 
ATOM     28  F   LIG    1        5.479   5.156  -1.424  0.00  0.00    -0.120 F 
ENDBRANCH  20  21
ENDBRANCH  19  20
ENDBRANCH  17  19
ENDBRANCH   2  17
TORSDOF 7
