REMARK  Name = ZINCpe00000MJK3L.1
REMARK                            x       y       z     vdW  Elec       q    Type
REMARK                         _______ _______ _______ _____ _____    ______ ____
ROOT
ATOM      1  N   LIG    1       -3.924   0.920   1.067  0.00  0.00    -0.530 NA
ATOM      2  C   LIG    1       -3.577   2.081   1.896  0.00  0.00    +0.170 C 
ATOM      3  C   LIG    1       -3.517   1.659   3.366  0.00  0.00    +0.030 C 
ATOM      4  C   LIG    1       -4.876   1.095   3.787  0.00  0.00    -0.040 C 
ATOM      5  C   LIG    1       -5.235  -0.083   2.877  0.00  0.00    +0.060 C 
ATOM      6  C   LIG    1       -5.246   0.389   1.421  0.00  0.00    +0.170 C 
ENDROOT
BRANCH   1   7
ATOM      7  C   LIG    1       -3.856   1.254  -0.362  0.00  0.00    +0.230 C 
BRANCH   7  12
ATOM      8  C   LIG    1       -1.398   4.097  -0.810  0.00  0.00    -0.140 A 
ATOM      9  C   LIG    1       -0.239   3.402  -1.160  0.00  0.00    +0.040 A 
ATOM     10  C   LIG    1       -0.263   2.025  -1.244  0.00  0.00    +0.000 A 
ATOM     11  C   LIG    1       -1.432   1.333  -0.982  0.00  0.00    +0.060 A 
ATOM     12  C   LIG    1       -2.586   2.016  -0.640  0.00  0.00    -0.090 A 
ATOM     13  C   LIG    1       -2.574   3.392  -0.547  0.00  0.00    +0.080 A 
BRANCH   8  17
ATOM     14  C   LIG    1       -0.226   7.712  -0.883  0.00  0.00    +0.290 C 
ATOM     15  N   LIG    1       -0.243   6.250  -0.974  0.00  0.00    -0.730 N 
ATOM     16  H   LIG    1        0.563   5.769  -1.217  0.00  0.00    +0.400 HD
ATOM     17  C   LIG    1       -1.380   5.572  -0.719  0.00  0.00    +0.560 C 
ATOM     18  O   LIG    1       -2.391   6.175  -0.414  0.00  0.00    -0.530 OA
ENDBRANCH   8  17
ENDBRANCH   7  12
ENDBRANCH   1   7
BRANCH   4  19
ATOM     19  C   LIG    1       -4.804   0.616   5.238  0.00  0.00    +0.220 C 
BRANCH  19  20
ATOM     20  C   LIG    1       -4.571   1.796   6.146  0.00  0.00    +0.490 C 
ATOM     21  N   LIG    1       -3.356   2.376   6.198  0.00  0.00    -0.700 N 
ATOM     22  H   LIG    1       -2.650   2.078   5.603  0.00  0.00    +0.400 HD
ATOM     23  O   LIG    1       -5.477   2.223   6.830  0.00  0.00    -0.530 OA
BRANCH  21  24
ATOM     24  C   LIG    1       -3.101   3.457   7.154  0.00  0.00    +0.210 C 
ATOM     25  C   LIG    1       -2.329   4.678   6.649  0.00  0.00    +0.010 C 
ATOM     26  C   LIG    1       -1.653   3.683   7.596  0.00  0.00    +0.020 C 
ENDBRANCH  21  24
ENDBRANCH  19  20
BRANCH  19  27
ATOM     27  O   LIG    1       -6.033  -0.022   5.591  0.00  0.00    -0.530 OA
ATOM     28  H   LIG    1       -6.809   0.552   5.519  0.00  0.00    +0.390 HD
ENDBRANCH  19  27
ENDBRANCH   4  19
TORSDOF 7
