REMARK  Name = ZINCpe00000MJK3l.0
REMARK                            x       y       z     vdW  Elec       q    Type
REMARK                         _______ _______ _______ _____ _____    ______ ____
ROOT
ATOM      1  O   LIG    1        5.112  -0.393  -1.081  0.00  0.00    -0.500 OA
ATOM      2  C   LIG    1        4.456  -1.323  -1.501  0.00  0.00    +0.530 C 
ATOM      3  N   LIG    1        3.110  -1.254  -1.499  0.00  0.00    -0.620 N 
ATOM      4  C   LIG    1        2.195  -2.306  -1.978  0.00  0.00    +0.270 C 
ATOM      5  C   LIG    1        0.866  -2.047  -1.226  0.00  0.00    +0.090 C 
ATOM      6  C   LIG    1        0.826  -0.496  -1.190  0.00  0.00    +0.110 C 
ATOM      7  C   LIG    1        2.312  -0.116  -1.021  0.00  0.00    +0.270 C 
ENDROOT
BRANCH   6   8
ATOM      8  O   LIG    1        0.302   0.025  -2.413  0.00  0.00    -0.540 OA
ATOM      9  H   LIG    1        0.291   0.991  -2.456  0.00  0.00    +0.380 HD
ENDBRANCH   6   8
BRANCH   6  10
ATOM     10  C   LIG    1        0.002  -0.004   0.002  0.00  0.00    +0.330 C 
BRANCH  10  11
ATOM     11  N   LIG    1       -0.018   1.461   0.010  0.00  0.00    -0.300 N 
ATOM     12  C   LIG    1       -1.125   2.239   0.019  0.00  0.00    +0.150 A 
ATOM     13  C   LIG    1       -0.686   3.519   0.026  0.00  0.00    +0.140 A 
ATOM     14  N   LIG    1        0.650   3.463   0.014  0.00  0.00    -0.260 NA
ATOM     15  N   LIG    1        1.015   2.229   0.004  0.00  0.00    -0.090 NA
ENDBRANCH  10  11
ENDBRANCH   6  10
BRANCH   2  16
ATOM     16  C   LIG    1        5.147  -2.557  -2.023  0.00  0.00    +0.230 C 
BRANCH  16  17
ATOM     17  O   LIG    1        6.562  -2.390  -1.920  0.00  0.00    -0.290 OA
BRANCH  17  18
ATOM     18  C   LIG    1        7.338  -3.419  -2.352  0.00  0.00    +0.130 A 
ATOM     19  C   LIG    1        6.749  -4.566  -2.864  0.00  0.00    -0.080 A 
ATOM     20  C   LIG    1        7.541  -5.609  -3.301  0.00  0.00    +0.050 A 
ATOM     21  C   LIG    1        8.921  -5.515  -3.231  0.00  0.00    -0.130 A 
ATOM     22  C   LIG    1        9.992  -6.504  -3.639  0.00  0.00    +0.070 C 
ATOM     23  C   LIG    1       11.292  -5.676  -3.732  0.00  0.00    +0.030 C 
ATOM     24  C   LIG    1       11.017  -4.516  -2.752  0.00  0.00    +0.080 C 
ATOM     25  C   LIG    1        9.510  -4.373  -2.721  0.00  0.00    -0.060 A 
ATOM     26  C   LIG    1        8.719  -3.324  -2.287  0.00  0.00    -0.010 A 
ENDBRANCH  17  18
ENDBRANCH  16  17
ENDBRANCH   2  16
TORSDOF 6
