REMARK  Name = ZINCnE000001LlUV.0
REMARK                            x       y       z     vdW  Elec       q    Type
REMARK                         _______ _______ _______ _____ _____    ______ ____
ROOT
ATOM      1  N   LIG    1        4.646  -0.023  -0.932  0.00  0.00    -0.730 N 
ATOM      2  H   LIG    1        4.538   0.924  -1.111  0.00  0.00    +0.390 HD
ATOM      3  C   LIG    1        5.656  -0.706  -1.506  0.00  0.00    +0.670 C 
ATOM      4  O   LIG    1        5.791  -1.897  -1.281  0.00  0.00    -0.610 OA
ENDROOT
BRANCH   3   5
ATOM      5  N   LIG    1        6.508  -0.079  -2.321  0.00  0.00    -0.680 NA
ATOM      6  C   LIG    1        7.507  -0.754  -2.888  0.00  0.00    +0.350 A 
ATOM      7  N   LIG    1        7.795  -2.062  -2.739  0.00  0.00    -0.410 NA
ATOM      8  N   LIG    1        8.885  -2.535  -3.437  0.00  0.00    -0.270 NA
ATOM      9  C   LIG    1        9.538  -1.689  -4.162  0.00  0.00    +0.010 A 
ATOM     10  S   LIG    1        8.706  -0.138  -3.960  0.00  0.00    -0.070 S 
BRANCH   9  11
ATOM     11  C   LIG    1       10.757  -1.964  -5.005  0.00  0.00    +0.060 C 
ATOM     12  C   LIG    1       10.755  -3.236  -5.855  0.00  0.00    +0.040 C 
ATOM     13  C   LIG    1       11.637  -3.151  -4.608  0.00  0.00    +0.030 C 
ENDBRANCH   9  11
ENDBRANCH   3   5
BRANCH   1  14
ATOM     14  C   LIG    1        3.710  -0.711  -0.039  0.00  0.00    +0.290 C 
ATOM     15  C   LIG    1        4.292  -0.750   1.376  0.00  0.00    +0.020 C 
BRANCH  14  19
ATOM     16  C   LIG    1       -0.017   1.382   0.010  0.00  0.00    +0.090 A 
ATOM     17  C   LIG    1        0.002  -0.004   0.002  0.00  0.00    -0.040 A 
ATOM     18  C   LIG    1        1.209  -0.678  -0.013  0.00  0.00    +0.060 A 
ATOM     19  C   LIG    1        2.397   0.028  -0.021  0.00  0.00    -0.090 A 
ATOM     20  C   LIG    1        2.383   1.411  -0.014  0.00  0.00    +0.030 A 
ATOM     21  C   LIG    1        1.179   2.090   0.002  0.00  0.00    +0.070 A 
ATOM     22  F   LIG    1        1.164   3.441   0.009  0.00  0.00    -0.130 F 
BRANCH  16  24
ATOM     23  C   LIG    1       -2.391   1.254   0.020  0.00  0.00    +0.250 C 
ATOM     24  O   LIG    1       -1.202   2.047   0.019  0.00  0.00    -0.310 OA
ENDBRANCH  16  24
ENDBRANCH  14  19
ENDBRANCH   1  14
TORSDOF 5
