REMARK  Name = ZINCrH000004jptW.0
REMARK                            x       y       z     vdW  Elec       q    Type
REMARK                         _______ _______ _______ _____ _____    ______ ____
ROOT
ATOM      1  C   LIG    1       -0.808   1.447   1.260  0.00  0.00    +0.510 C 
ATOM      2  N   LIG    1       -0.242   1.246   2.466  0.00  0.00    -0.670 N 
ATOM      3  H   LIG    1        0.577   0.730   2.537  0.00  0.00    +0.420 HD
ATOM      4  O   LIG    1       -1.880   2.010   1.179  0.00  0.00    -0.500 OA
ENDROOT
BRANCH   2   5
ATOM      5  C   LIG    1       -0.834   1.782   3.616  0.00  0.00    +0.090 A 
ATOM      6  C   LIG    1       -1.518   2.994   3.557  0.00  0.00    +0.110 A 
ATOM      7  C   LIG    1       -2.093   3.483   4.717  0.00  0.00    +0.000 A 
ATOM      8  C   LIG    1       -1.959   2.761   5.896  0.00  0.00    +0.330 A 
ATOM      9  N   LIG    1       -1.297   1.615   5.917  0.00  0.00    -0.480 NA
ATOM     10  C   LIG    1       -0.742   1.116   4.830  0.00  0.00    +0.280 A 
BRANCH   8  11
ATOM     11  N   LIG    1       -2.531   3.250   7.076  0.00  0.00    -0.410 N 
ATOM     12  C   LIG    1       -3.238   4.417   7.216  0.00  0.00    +0.120 A 
ATOM     13  C   LIG    1       -3.605   4.496   8.509  0.00  0.00    +0.170 A 
ATOM     14  N   LIG    1       -3.132   3.415   9.147  0.00  0.00    -0.490 NA
ATOM     15  C   LIG    1       -2.487   2.661   8.300  0.00  0.00    +0.240 A 
ATOM     16  C   LIG    1       -1.807   1.356   8.624  0.00  0.00    +0.190 C 
ENDBRANCH   8  11
ENDBRANCH   2   5
BRANCH   1  17
ATOM     17  C   LIG    1       -0.111   0.973   0.011  0.00  0.00    +0.160 C 
BRANCH  17  20
ATOM     18  N   LIG    1       -2.400   1.172  -2.866  0.00  0.00    -0.480 N 
ATOM     19  C   LIG    1       -1.830   0.515  -1.810  0.00  0.00    +0.240 A 
ATOM     20  C   LIG    1       -0.948   1.318  -1.194  0.00  0.00    -0.170 A 
ATOM     21  C   LIG    1       -0.958   2.595  -1.911  0.00  0.00    -0.090 A 
ATOM     22  C   LIG    1       -0.275   3.802  -1.753  0.00  0.00    +0.050 A 
ATOM     23  C   LIG    1       -0.515   4.836  -2.614  0.00  0.00    -0.020 A 
ATOM     24  C   LIG    1       -1.432   4.694  -3.647  0.00  0.00    +0.020 A 
ATOM     25  C   LIG    1       -2.111   3.509  -3.826  0.00  0.00    -0.010 A 
ATOM     26  C   LIG    1       -1.886   2.445  -2.958  0.00  0.00    +0.100 A 
BRANCH  18  28
ATOM     27  C   LIG    1       -2.719   0.030  -5.005  0.00  0.00    +0.020 C 
ATOM     28  C   LIG    1       -3.408   0.604  -3.765  0.00  0.00    +0.290 C 
ENDBRANCH  18  28
ENDBRANCH  17  20
ENDBRANCH   1  17
TORSDOF 5
