REMARK  Name = ZINCrD000003DuIr.0
REMARK                            x       y       z     vdW  Elec       q    Type
REMARK                         _______ _______ _______ _____ _____    ______ ____
ROOT
ATOM      1  C   LIG    1        1.585   0.593  -1.644  0.00  0.00    +0.030 C 
ATOM      2  C   LIG    1        1.954  -0.498  -0.637  0.00  0.00    -0.010 C 
ATOM      3  C   LIG    1        3.060   0.015   0.288  0.00  0.00    +0.030 C 
ATOM      4  C   LIG    1        3.451  -1.092   1.273  0.00  0.00    +0.260 C 
ATOM      5  N   LIG    1        2.243  -1.550   1.973  0.00  0.00    -0.610 N 
ATOM      6  C   LIG    1        1.086  -1.980   1.177  0.00  0.00    +0.280 C 
ATOM      7  C   LIG    1        2.198  -1.576   3.319  0.00  0.00    +0.600 C 
ATOM      8  O   LIG    1        1.157  -1.846   3.888  0.00  0.00    -0.520 OA
ATOM      9  C   LIG    1        0.721  -0.864   0.193  0.00  0.00    +0.240 C 
ENDROOT
BRANCH   7  10
ATOM     10  C   LIG    1        3.403  -1.277   4.099  0.00  0.00    -0.270 A 
ATOM     11  C   LIG    1        3.424  -0.691   5.327  0.00  0.00    +0.100 A 
ATOM     12  C   LIG    1        4.692  -0.522   5.851  0.00  0.00    -0.120 A 
ATOM     13  C   LIG    1        5.683  -0.963   5.042  0.00  0.00    -0.200 A 
ATOM     14  C   LIG    1        7.160  -0.888   5.380  0.00  0.00    +0.110 C 
ATOM     15  C   LIG    1        7.352   0.104   6.530  0.00  0.00    +0.020 C 
ATOM     16  C   LIG    1        6.374  -0.243   7.656  0.00  0.00    +0.020 C 
ATOM     17  C   LIG    1        4.952   0.107   7.214  0.00  0.00    +0.100 C 
ATOM     18  S   LIG    1        5.051  -1.612   3.595  0.00  0.00    +0.210 S 
ENDBRANCH   7  10
BRANCH   9  19
ATOM     19  N   LIG    1        0.266   0.313   0.937  0.00  0.00    -0.700 N 
ATOM     20  H   LIG    1        0.891   1.023   1.152  0.00  0.00    +0.410 HD
ATOM     21  C   LIG    1       -1.022   0.410   1.323  0.00  0.00    +0.580 C 
ATOM     22  O   LIG    1       -1.805  -0.480   1.054  0.00  0.00    -0.530 OA
BRANCH  21  23
ATOM     23  C   LIG    1       -1.483   1.600   2.075  0.00  0.00    +0.080 A 
ATOM     24  C   LIG    1       -2.816   1.696   2.466  0.00  0.00    +0.040 A 
ATOM     25  C   LIG    1       -3.232   2.814   3.173  0.00  0.00    +0.060 A 
ATOM     26  C   LIG    1       -2.301   3.801   3.455  0.00  0.00    -0.010 A 
ATOM     27  C   LIG    1       -0.991   3.641   3.031  0.00  0.00    +0.260 A 
ATOM     28  N   LIG    1       -0.623   2.568   2.366  0.00  0.00    -0.460 NA
ENDBRANCH  21  23
ENDBRANCH   9  19
TORSDOF 3
