REMARK  Name = ZINCpk00000y6yU2.0
REMARK                            x       y       z     vdW  Elec       q    Type
REMARK                         _______ _______ _______ _____ _____    ______ ____
ROOT
ATOM      1  C   LIG    1       -1.304   1.933   0.022  0.00  0.00    -0.150 A 
ATOM      2  C   LIG    1       -1.327   3.329   0.036  0.00  0.00    +0.100 A 
ATOM      3  C   LIG    1       -2.534   3.996   0.043  0.00  0.00    +0.000 A 
ATOM      4  C   LIG    1       -3.721   3.285   0.046  0.00  0.00    +0.160 A 
ATOM      5  C   LIG    1       -3.706   1.901   0.038  0.00  0.00    -0.690 A 
ATOM      6  C   LIG    1       -2.506   1.222   0.026  0.00  0.00    +0.200 A 
ENDROOT
BRANCH   1   8
ATOM      7  O   LIG    1        0.002  -0.004   0.003  0.00  0.00    -0.460 OA
ATOM      8  C   LIG    1       -0.015   1.211   0.010  0.00  0.00    +0.550 C 
ATOM      9  N   LIG    1        1.143   1.901   0.001  0.00  0.00    -0.660 N 
ATOM     10  H   LIG    1        1.131   2.869  -0.068  0.00  0.00    +0.420 HD
BRANCH   9  11
ATOM     11  C   LIG    1        2.358   1.224   0.091  0.00  0.00    +0.360 A 
ATOM     12  C   LIG    1        3.543   1.945   0.188  0.00  0.00    -0.070 A 
ATOM     13  C   LIG    1        4.742   1.260   0.282  0.00  0.00    +0.090 A 
ATOM     14  C   LIG    1        4.715  -0.127   0.265  0.00  0.00    -0.060 A 
ATOM     15  C   LIG    1        3.501  -0.779   0.161  0.00  0.00    +0.290 A 
ATOM     16  N   LIG    1        2.374  -0.100   0.078  0.00  0.00    -0.480 NA
ENDBRANCH   9  11
ENDBRANCH   1   8
BRANCH   5  17
ATOM     17  S   LIG    1       -5.223   1.006   0.042  0.00  0.00    +2.690 S 
ATOM     18  O   LIG    1       -4.937  -0.271  -0.513  0.00  0.00    -0.940 OA
ATOM     19  O   LIG    1       -6.207   1.882  -0.491  0.00  0.00    -0.950 OA
BRANCH  17  20
ATOM     20  N   LIG    1       -5.635   0.747   1.625  0.00  0.00    -0.990 NA
ATOM     21  C   LIG    1       -6.464   1.718   2.351  0.00  0.00    +0.290 C 
ATOM     22  C   LIG    1       -5.742   2.115   3.642  0.00  0.00    +0.020 C 
ATOM     23  C   LIG    1       -5.405   0.854   4.442  0.00  0.00    +0.000 C 
ATOM     24  C   LIG    1       -4.471  -0.038   3.620  0.00  0.00    +0.150 C 
ATOM     25  C   LIG    1       -5.184  -0.462   2.327  0.00  0.00    +0.320 C 
BRANCH  24  26
ATOM     26  O   LIG    1       -4.132  -1.200   4.380  0.00  0.00    -0.560 OA
ATOM     27  H   LIG    1       -3.682  -1.008   5.213  0.00  0.00    +0.380 HD
ENDBRANCH  24  26
ENDBRANCH  17  20
ENDBRANCH   5  17
TORSDOF 5
