REMARK  Name = ZINCqH0000051Eep.0
REMARK                            x       y       z     vdW  Elec       q    Type
REMARK                         _______ _______ _______ _____ _____    ______ ____
ROOT
ATOM      1  C   LIG    1        1.193  -0.666  -0.116  0.00  0.00    +0.370 A 
ATOM      2  N   LIG    1        1.286  -1.973  -0.130  0.00  0.00    -0.530 NA
ATOM      3  C   LIG    1        0.190  -2.761  -0.026  0.00  0.00    +0.170 A 
ATOM      4  C   LIG    1        0.289  -4.155  -0.040  0.00  0.00    +0.030 A 
ATOM      5  C   LIG    1       -0.850  -4.921   0.067  0.00  0.00    +0.070 A 
ATOM      6  C   LIG    1       -2.098  -4.326   0.190  0.00  0.00    +0.000 A 
ATOM      7  C   LIG    1       -2.223  -2.954   0.207  0.00  0.00    +0.100 A 
ATOM      8  C   LIG    1       -1.083  -2.159   0.099  0.00  0.00    -0.200 A 
ATOM      9  C   LIG    1       -1.157  -0.692   0.117  0.00  0.00    +0.560 A 
ATOM     10  O   LIG    1       -2.224  -0.116   0.229  0.00  0.00    -0.490 OA
ATOM     11  N   LIG    1        0.002  -0.004   0.002  0.00  0.00    -0.480 N 
ENDROOT
BRANCH  11  12
ATOM     12  C   LIG    1       -0.017   1.397   0.010  0.00  0.00    +0.040 A 
ATOM     13  C   LIG    1        0.089   2.098   1.208  0.00  0.00    +0.100 A 
ATOM     14  C   LIG    1        0.070   3.483   1.164  0.00  0.00    -0.010 A 
ATOM     15  C   LIG    1       -0.063   4.118  -0.057  0.00  0.00    +0.290 A 
ATOM     16  N   LIG    1       -0.166   3.424  -1.174  0.00  0.00    -0.470 NA
ATOM     17  C   LIG    1       -0.147   2.106  -1.177  0.00  0.00    +0.300 A 
ENDBRANCH  11  12
BRANCH   1  18
ATOM     18  S   LIG    1        2.671   0.283  -0.257  0.00  0.00    +0.040 S 
BRANCH  18  26
ATOM     19  O   LIG    1        3.189  -1.239  -2.589  0.00  0.00    -0.440 OA
ATOM     20  C   LIG    1        3.662  -1.815  -1.638  0.00  0.00    +0.380 C 
ATOM     21  C   LIG    1        4.000  -3.289  -1.775  0.00  0.00    +0.040 C 
ATOM     22  C   LIG    1        5.351  -3.624  -1.115  0.00  0.00    +0.030 C 
ATOM     23  C   LIG    1        6.339  -2.518  -1.400  0.00  0.00    +0.020 C 
ATOM     24  C   LIG    1        6.317  -1.517  -0.254  0.00  0.00    +0.020 C 
ATOM     25  C   LIG    1        5.317  -0.446  -0.389  0.00  0.00    +0.080 C 
ATOM     26  C   LIG    1        3.889  -1.050  -0.380  0.00  0.00    +0.000 C 
ENDBRANCH  18  26
ENDBRANCH   1  18
TORSDOF 3
