REMARK  Name = ZINCrD000000CemF.0
REMARK                            x       y       z     vdW  Elec       q    Type
REMARK                         _______ _______ _______ _____ _____    ______ ____
ROOT
ATOM      1  O   LIG    1        0.107   1.033   0.098  0.00  0.00    -0.550 OA
ATOM      2  C   LIG    1        1.147   1.655   0.000  0.00  0.00    +0.710 C 
ATOM      3  N   LIG    1        2.318   0.998  -0.116  0.00  0.00    -0.620 N 
ATOM      4  C   LIG    1        2.352  -0.468  -0.230  0.00  0.00    +0.330 C 
ATOM      5  C   LIG    1        3.211  -0.837  -1.450  0.00  0.00    +0.200 C 
ATOM      6  N   LIG    1        4.526  -0.192  -1.329  0.00  0.00    -0.450 N 
ATOM      7  C   LIG    1        4.405   1.272  -1.345  0.00  0.00    +0.190 C 
ATOM      8  C   LIG    1        3.595   1.727  -0.127  0.00  0.00    +0.290 C 
ATOM      9  N   LIG    1        1.129   3.003   0.007  0.00  0.00    -0.640 N 
ATOM     10  H   LIG    1        1.962   3.499   0.005  0.00  0.00    +0.420 HD
ENDROOT
BRANCH   9  11
ATOM     11  C   LIG    1       -0.085   3.682   0.024  0.00  0.00    +0.260 A 
ATOM     12  N   LIG    1       -0.214   4.969   0.038  0.00  0.00    -0.520 NA
ATOM     13  C   LIG    1       -1.450   5.460   0.055  0.00  0.00    +0.090 A 
ATOM     14  C   LIG    1       -2.392   4.519   0.044  0.00  0.00    -0.280 A 
ATOM     15  C   LIG    1       -3.890   4.784   0.041  0.00  0.00    +0.120 C 
ATOM     16  C   LIG    1       -4.246   5.419   1.391  0.00  0.00    +0.020 C 
ATOM     17  C   LIG    1       -3.915   6.893   1.398  0.00  0.00    +0.000 C 
ATOM     18  C   LIG    1       -2.447   7.242   1.440  0.00  0.00    +0.020 C 
ATOM     19  C   LIG    1       -1.762   6.956   0.102  0.00  0.00    +0.120 C 
ATOM     20  S   LIG    1       -1.624   2.938   0.023  0.00  0.00    +0.240 S 
ENDBRANCH   9  11
BRANCH   6  21
ATOM     21  C   LIG    1        5.395  -0.635  -2.333  0.00  0.00    +0.260 A 
ATOM     22  N   LIG    1        6.030   0.126  -3.194  0.00  0.00    -0.320 NA
ATOM     23  N   LIG    1        6.798  -0.701  -4.024  0.00  0.00    -0.470 N 
ATOM     24  H   LIG    1        7.369  -0.406  -4.750  0.00  0.00    +0.440 HD
ATOM     25  C   LIG    1        6.598  -1.979  -3.642  0.00  0.00    +0.140 A 
ATOM     26  C   LIG    1        5.737  -1.971  -2.599  0.00  0.00    -0.110 A 
BRANCH  25  27
ATOM     27  C   LIG    1        7.225  -3.200  -4.265  0.00  0.00    +0.030 C 
ATOM     28  C   LIG    1        8.646  -3.062  -4.815  0.00  0.00    +0.030 C 
ATOM     29  C   LIG    1        7.461  -3.179  -5.777  0.00  0.00    +0.030 C 
ENDBRANCH  25  27
ENDBRANCH   6  21
TORSDOF 3
