REMARK  Name = ZINCyk00000004II.0
REMARK                            x       y       z     vdW  Elec       q    Type
REMARK                         _______ _______ _______ _____ _____    ______ ____
ROOT
ATOM      1  C   LIG    1       -2.616  -3.778  -3.236  0.00  0.00    +0.160 C 
ATOM      2  C   LIG    1       -2.947  -2.424  -2.664  0.00  0.00    +0.220 A 
ATOM      3  C   LIG    1       -4.163  -1.840  -2.957  0.00  0.00    -0.030 A 
ATOM      4  C   LIG    1       -4.463  -0.592  -2.427  0.00  0.00    +0.200 A 
ATOM      5  C   LIG    1       -3.528   0.023  -1.615  0.00  0.00    -0.730 A 
ATOM      6  C   LIG    1       -2.321  -0.622  -1.366  0.00  0.00    +0.390 A 
ATOM      7  N   LIG    1       -2.071  -1.812  -1.890  0.00  0.00    -0.520 NA
ENDROOT
BRANCH   6   8
ATOM      8  N   LIG    1       -1.369  -0.013  -0.555  0.00  0.00    -0.500 N 
ATOM      9  C   LIG    1       -0.517   0.896  -1.335  0.00  0.00    +0.240 C 
ATOM     10  C   LIG    1        0.262   1.816  -0.387  0.00  0.00    +0.360 C 
ATOM     11  N   LIG    1        0.898   0.985   0.640  0.00  0.00    -0.350 N 
ATOM     12  N   LIG    1        1.937   1.321   1.506  0.00  0.00    -0.270 NA
ATOM     13  C   LIG    1        2.196   0.276   2.255  0.00  0.00    +0.340 A 
ATOM     14  C   LIG    1        1.325  -0.757   1.885  0.00  0.00    -0.780 A 
ATOM     15  C   LIG    1        0.539  -0.297   0.894  0.00  0.00    +0.190 A 
ATOM     16  C   LIG    1       -0.561  -1.019   0.157  0.00  0.00    +0.320 C 
BRANCH  14  17
ATOM     17  S   LIG    1        1.269  -2.370   2.591  0.00  0.00    +2.520 S 
ATOM     18  O   LIG    1        2.327  -2.375   3.539  0.00  0.00    -0.930 OA
ATOM     19  O   LIG    1        1.286  -3.244   1.470  0.00  0.00    -0.930 OA
ATOM     20  C   LIG    1       -0.338  -2.442   3.430  0.00  0.00    -0.270 C 
ENDBRANCH  14  17
ENDBRANCH   6   8
BRANCH   5  21
ATOM     21  S   LIG    1       -3.859   1.603  -0.909  0.00  0.00    +2.710 S 
ATOM     22  O   LIG    1       -5.125   2.009  -1.411  0.00  0.00    -0.940 OA
ATOM     23  O   LIG    1       -2.675   2.372  -1.074  0.00  0.00    -0.940 OA
BRANCH  21  24
ATOM     24  N   LIG    1       -4.050   1.382   0.721  0.00  0.00    -1.130 NA
ATOM     25  H   LIG    1       -4.940   1.313   1.100  0.00  0.00    +0.420 HD
BRANCH  24  26
ATOM     26  C   LIG    1       -2.875   1.290   1.590  0.00  0.00    +0.340 C 
BRANCH  26  27
ATOM     27  C   LIG    1       -3.252   1.729   3.006  0.00  0.00    +0.170 C 
BRANCH  27  28
ATOM     28  N   LIG    1       -3.771   3.103   2.971  0.00  0.00    -0.390 N 
ATOM     29  C   LIG    1       -4.968   3.176   2.094  0.00  0.00    +0.250 C 
ATOM     30  C   LIG    1       -5.694   4.451   2.593  0.00  0.00    +0.070 C 
ATOM     31  C   LIG    1       -5.468   4.404   4.121  0.00  0.00    +0.060 C 
ATOM     32  C   LIG    1       -4.231   3.509   4.317  0.00  0.00    +0.260 C 
ATOM     33  H   LIG    1       -3.058   3.736   2.641  0.00  0.00    +0.430 HD
ENDBRANCH  27  28
BRANCH  27  34
ATOM     34  C   LIG    1       -2.015   1.674   3.904  0.00  0.00    -0.010 C 
ATOM     35  C   LIG    1       -1.363   0.294   3.790  0.00  0.00    +0.070 C 
ATOM     36  C   LIG    1       -2.427   1.924   5.356  0.00  0.00    +0.050 C 
ENDBRANCH  27  34
ENDBRANCH  26  27
ENDBRANCH  24  26
ENDBRANCH  21  24
ENDBRANCH   5  21
TORSDOF 8
