REMARK  Name = ZINCtV00000tRRx8.0
REMARK                            x       y       z     vdW  Elec       q    Type
REMARK                         _______ _______ _______ _____ _____    ______ ____
ROOT
ATOM      1  C   LIG    1        3.572   2.074  -0.021  0.00  0.00    +0.040 C 
ATOM      2  C   LIG    1        4.963   1.452  -0.154  0.00  0.00    +0.040 C 
ATOM      3  C   LIG    1        4.510   2.035   1.187  0.00  0.00    +0.000 C 
ATOM      4 CL   LIG    1        4.116   0.874   2.510  0.00  0.00    -0.070 Cl
ATOM      5 CL   LIG    1        5.256   3.590   1.714  0.00  0.00    -0.070 Cl
ENDROOT
BRANCH   1   6
ATOM      6  C   LIG    1        2.371   1.126  -0.015  0.00  0.00    +0.280 C 
BRANCH   6   7
ATOM      7  O   LIG    1        1.143   1.900   0.001  0.00  0.00    -0.350 OA
BRANCH   7   9
ATOM      8  O   LIG    1        0.002  -0.004   0.002  0.00  0.00    -0.470 OA
ATOM      9  C   LIG    1       -0.014   1.211   0.009  0.00  0.00    +0.510 C 
BRANCH   9  10
ATOM     10  C   LIG    1       -1.302   1.931   0.019  0.00  0.00    -0.120 A 
ATOM     11  C   LIG    1       -1.325   3.328   0.026  0.00  0.00    +0.120 A 
ATOM     12  C   LIG    1       -2.531   3.995   0.035  0.00  0.00    +0.030 A 
ATOM     13  C   LIG    1       -3.720   3.284   0.037  0.00  0.00    +0.010 A 
ATOM     14  C   LIG    1       -3.706   1.899   0.029  0.00  0.00    +0.040 A 
ATOM     15 CL   LIG    1       -5.235   4.133   0.049  0.00  0.00    -0.040 Cl
ATOM     16  C   LIG    1       -2.506   1.219   0.015  0.00  0.00    +0.030 A 
ATOM     17 CL   LIG    1       -2.489  -0.517  -0.002  0.00  0.00    -0.010 Cl
ENDBRANCH   9  10
ENDBRANCH   7   9
ENDBRANCH   6   7
ENDBRANCH   1   6
BRANCH   2  18
ATOM     18  C   LIG    1        6.014   2.234  -0.945  0.00  0.00    +0.280 C 
BRANCH  18  19
ATOM     19  O   LIG    1        7.223   1.438  -1.061  0.00  0.00    -0.350 OA
BRANCH  19  20
ATOM     20  C   LIG    1        8.254   1.985  -1.734  0.00  0.00    +0.510 C 
ATOM     21  O   LIG    1        8.145   3.098  -2.211  0.00  0.00    -0.470 OA
BRANCH  20  22
ATOM     22  C   LIG    1        9.514   1.234  -1.893  0.00  0.00    -0.120 A 
ATOM     23  C   LIG    1        9.642  -0.045  -1.347  0.00  0.00    +0.120 A 
ATOM     24  C   LIG    1       10.822  -0.742  -1.499  0.00  0.00    +0.030 A 
ATOM     25  C   LIG    1       11.880  -0.177  -2.192  0.00  0.00    +0.010 A 
ATOM     26  C   LIG    1       11.761   1.091  -2.736  0.00  0.00    +0.040 A 
ATOM     27 CL   LIG    1       13.362  -1.061  -2.377  0.00  0.00    -0.040 Cl
ATOM     28  C   LIG    1       10.583   1.797  -2.596  0.00  0.00    +0.030 A 
ATOM     29 CL   LIG    1       10.433   3.384  -3.285  0.00  0.00    -0.010 Cl
ENDBRANCH  20  22
ENDBRANCH  19  20
ENDBRANCH  18  19
ENDBRANCH   2  18
TORSDOF 8
