REMARK  Name = ZINCrD0000074sdh.0
REMARK                            x       y       z     vdW  Elec       q    Type
REMARK                         _______ _______ _______ _____ _____    ______ ____
ROOT
ATOM      1  C   LIG    1       -1.813  -4.417  -0.004  0.00  0.00    +0.250 C 
ENDROOT
BRANCH   1   2
ATOM      2  C   LIG    1       -3.108  -5.188   0.004  0.00  0.00    +0.520 C 
ATOM      3  N   LIG    1       -3.090  -6.536  -0.004  0.00  0.00    -0.720 N 
ATOM      4  H   LIG    1       -2.243  -7.009  -0.014  0.00  0.00    +0.400 HD
ATOM      5  O   LIG    1       -4.166  -4.596   0.017  0.00  0.00    -0.510 OA
BRANCH   3   6
ATOM      6  C   LIG    1       -4.348  -7.286   0.004  0.00  0.00    +0.190 C 
ATOM      7  C   LIG    1       -5.167  -6.920  -1.235  0.00  0.00    +0.030 C 
ATOM      8  C   LIG    1       -6.482  -7.703  -1.227  0.00  0.00    -0.010 C 
ATOM      9  C   LIG    1       -7.277  -7.351   0.032  0.00  0.00    +0.020 C 
ATOM     10  C   LIG    1       -6.458  -7.717   1.272  0.00  0.00    -0.010 C 
ATOM     11  C   LIG    1       -6.158  -9.217   1.261  0.00  0.00    +0.020 C 
ATOM     12  C   LIG    1       -5.363  -9.569   0.002  0.00  0.00    +0.000 C 
ATOM     13  C   LIG    1       -6.182  -9.204  -1.238  0.00  0.00    +0.020 C 
ATOM     14  C   LIG    1       -5.143  -6.934   1.263  0.00  0.00    +0.030 C 
ATOM     15  C   LIG    1       -4.048  -8.786  -0.006  0.00  0.00    +0.020 C 
ENDBRANCH   3   6
ENDBRANCH   1   2
BRANCH   1  16
ATOM     16  O   LIG    1       -2.098  -2.993   0.006  0.00  0.00    -0.330 OA
BRANCH  16  17
ATOM     17  C   LIG    1       -1.044  -2.161   0.000  0.00  0.00    +0.470 C 
ATOM     18  O   LIG    1        0.078  -2.608  -0.013  0.00  0.00    -0.480 OA
BRANCH  17  19
ATOM     19  C   LIG    1       -1.262  -0.670   0.011  0.00  0.00    +0.290 C 
BRANCH  19  20
ATOM     20  O   LIG    1        0.002  -0.004   0.002  0.00  0.00    -0.300 OA
BRANCH  20  26
ATOM     21  C   LIG    1       -2.557   4.152   0.047  0.00  0.00    +0.090 C 
ATOM     22  C   LIG    1       -1.242   3.414   0.031  0.00  0.00    -0.040 A 
ATOM     23  C   LIG    1       -0.054   4.121   0.024  0.00  0.00    -0.030 A 
ATOM     24  C   LIG    1        1.153   3.447   0.009  0.00  0.00    -0.040 A 
ATOM     25  C   LIG    1        1.175   2.066   0.002  0.00  0.00    -0.020 A 
ATOM     26  C   LIG    1       -0.016   1.355   0.009  0.00  0.00    +0.130 A 
ATOM     27  C   LIG    1        2.447   4.220   0.001  0.00  0.00    +0.100 C 
ATOM     28  C   LIG    1       -1.226   2.033   0.019  0.00  0.00    -0.090 A 
ENDBRANCH  20  26
ENDBRANCH  19  20
ENDBRANCH  17  19
ENDBRANCH  16  17
ENDBRANCH   1  16
TORSDOF 7
