REMARK  Name = ZINCtV00000tRQmY.0
REMARK                            x       y       z     vdW  Elec       q    Type
REMARK                         _______ _______ _______ _____ _____    ______ ____
ROOT
ATOM      1  C   LIG    1        5.426   3.364   0.115  0.00  0.00    -0.160 A 
ATOM      2  C   LIG    1        4.705   2.207  -0.075  0.00  0.00    +0.420 A 
ATOM      3  N   LIG    1        3.357   2.233  -0.294  0.00  0.00    -0.410 N 
ATOM      4  C   LIG    1        2.427   1.229  -0.508  0.00  0.00    +0.010 A 
ATOM      5  C   LIG    1        2.508  -0.153  -0.581  0.00  0.00    +0.030 A 
ATOM      6  C   LIG    1        1.370  -0.897  -0.814  0.00  0.00    +0.010 A 
ATOM      7  C   LIG    1        0.142  -0.272  -0.976  0.00  0.00    +0.040 A 
ATOM      8  C   LIG    1        0.041   1.098  -0.907  0.00  0.00    +0.060 A 
ATOM      9  C   LIG    1        1.185   1.869  -0.672  0.00  0.00    +0.100 A 
ATOM     10  N   LIG    1        1.398   3.201  -0.555  0.00  0.00    -0.500 NA
ATOM     11  C   LIG    1        2.679   3.428  -0.331  0.00  0.00    +0.340 A 
ATOM     12  C   LIG    1        3.426   4.675  -0.131  0.00  0.00    -0.050 A 
ATOM     13  C   LIG    1        4.801   4.604   0.090  0.00  0.00    +0.060 A 
ATOM     14  C   LIG    1        5.603   5.862   0.299  0.00  0.00    +0.120 C 
ENDROOT
BRANCH  12  15
ATOM     15  C   LIG    1        2.756   5.940  -0.162  0.00  0.00    +0.270 C 
ATOM     16  N   LIG    1        2.224   6.943  -0.187  0.00  0.00    -0.400 NA
ENDBRANCH  12  15
BRANCH   2  17
ATOM     17  N   LIG    1        5.356   0.997  -0.044  0.00  0.00    -0.760 N 
ATOM     18  H   LIG    1        5.983   0.765  -0.747  0.00  0.00    +0.420 HD
BRANCH  17  19
ATOM     19  C   LIG    1        5.105   0.058   1.052  0.00  0.00    +0.300 C 
BRANCH  19  20
ATOM     20  C   LIG    1        5.953  -1.173   0.863  0.00  0.00    -0.110 A 
ATOM     21  C   LIG    1        5.462  -2.247   0.145  0.00  0.00    +0.020 A 
ATOM     22  C   LIG    1        6.242  -3.375  -0.033  0.00  0.00    +0.010 A 
ATOM     23  C   LIG    1        7.509  -3.432   0.516  0.00  0.00    +0.010 A 
ATOM     24  C   LIG    1        7.998  -2.360   1.239  0.00  0.00    +0.010 A 
ATOM     25  C   LIG    1        7.220  -1.231   1.412  0.00  0.00    +0.020 A 
ENDBRANCH  19  20
ENDBRANCH  17  19
ENDBRANCH   2  17
BRANCH   1  26
ATOM     26  C   LIG    1        6.911   3.285   0.353  0.00  0.00    +0.100 C 
BRANCH  26  27
ATOM     27  C   LIG    1        7.651   3.471  -0.973  0.00  0.00    +0.010 C 
BRANCH  27  28
ATOM     28  C   LIG    1        9.160   3.390  -0.731  0.00  0.00    +0.000 C 
BRANCH  28  30
ATOM     29  C   LIG    1       11.408   3.495  -1.815  0.00  0.00    +0.000 C 
ATOM     30  C   LIG    1        9.900   3.576  -2.057  0.00  0.00    -0.010 C 
ENDBRANCH  28  30
ENDBRANCH  27  28
ENDBRANCH  26  27
ENDBRANCH   1  26
TORSDOF 8
