REMARK  Name = ZINCwl0000000rqv.1
REMARK                            x       y       z     vdW  Elec       q    Type
REMARK                         _______ _______ _______ _____ _____    ______ ____
ROOT
ATOM      1  C   LIG    1       -1.309  -4.849   0.364  0.00  0.00    +0.250 C 
ENDROOT
BRANCH   1   2
ATOM      2  N   LIG    1       -0.989  -6.283   0.359  0.00  0.00    -0.490 N 
ATOM      3  H   LIG    1       -0.455  -6.512   1.183  0.00  0.00    +0.440 HD
ATOM      4  H   LIG    1       -0.448  -6.503  -0.464  0.00  0.00    +0.440 HD
BRANCH   2   5
ATOM      5  C   LIG    1       -2.234  -7.063   0.350  0.00  0.00    +0.220 C 
BRANCH   5   6
ATOM      6  C   LIG    1       -1.908  -8.528   0.220  0.00  0.00    +0.510 C 
ATOM      7  N   LIG    1       -2.842  -9.390  -0.228  0.00  0.00    -0.590 N 
ATOM      8  C   LIG    1       -4.154  -8.910  -0.692  0.00  0.00    +0.250 C 
ATOM      9  C   LIG    1       -4.428  -9.524  -2.074  0.00  0.00    +0.220 C 
ATOM     10  O   LIG    1       -4.261 -10.942  -1.999  0.00  0.00    -0.370 OA
ATOM     11  C   LIG    1       -2.935 -11.358  -1.662  0.00  0.00    +0.230 C 
ATOM     12  C   LIG    1       -2.583 -10.838  -0.263  0.00  0.00    +0.270 C 
ATOM     13  O   LIG    1       -0.804  -8.933   0.519  0.00  0.00    -0.520 OA
ENDBRANCH   5   6
BRANCH   5  14
ATOM     14  C   LIG    1       -2.983  -6.827   1.636  0.00  0.00    -0.150 A 
ATOM     15  C   LIG    1       -2.319  -6.896   2.846  0.00  0.00    +0.020 A 
ATOM     16  C   LIG    1       -3.005  -6.676   4.025  0.00  0.00    +0.040 A 
ATOM     17  C   LIG    1       -4.359  -6.395   3.995  0.00  0.00    +0.060 A 
ATOM     18  C   LIG    1       -5.024  -6.331   2.785  0.00  0.00    +0.040 A 
ATOM     19  C   LIG    1       -4.337  -6.547   1.606  0.00  0.00    +0.050 A 
ENDBRANCH   5  14
ENDBRANCH   2   5
ENDBRANCH   1   2
BRANCH   1  20
ATOM     20  C   LIG    1       -0.013  -4.037   0.374  0.00  0.00    +0.230 C 
BRANCH  20  21
ATOM     21  O   LIG    1        0.698  -4.261  -0.846  0.00  0.00    -0.540 OA
ATOM     22  H   LIG    1        0.207  -4.006  -1.639  0.00  0.00    +0.390 HD
ENDBRANCH  20  21
BRANCH  20  23
ATOM     23  C   LIG    1       -0.344  -2.549   0.505  0.00  0.00    +0.190 C 
BRANCH  23  24
ATOM     24  O   LIG    1        0.867  -1.801   0.631  0.00  0.00    -0.300 OA
BRANCH  24  31
ATOM     25  O   LIG    1        1.328   5.683   1.031  0.00  0.00    -0.520 OA
ATOM     26  C   LIG    1        1.443   4.483   0.900  0.00  0.00    +0.520 C 
ATOM     27  C   LIG    1        2.762   3.905   0.462  0.00  0.00    +0.090 C 
ATOM     28  C   LIG    1        2.996   2.561   1.151  0.00  0.00    +0.110 C 
ATOM     29  C   LIG    1        1.765   1.703   1.014  0.00  0.00    -0.080 A 
ATOM     30  C   LIG    1        1.885   0.334   0.885  0.00  0.00    +0.030 A 
ATOM     31  C   LIG    1        0.749  -0.452   0.758  0.00  0.00    +0.100 A 
ATOM     32  C   LIG    1       -0.507   0.136   0.762  0.00  0.00    -0.050 A 
ATOM     33  C   LIG    1       -0.628   1.506   0.891  0.00  0.00    +0.030 A 
ATOM     34  C   LIG    1        0.508   2.294   1.017  0.00  0.00    +0.140 A 
ATOM     35  N   LIG    1        0.390   3.683   1.147  0.00  0.00    -0.670 N 
ATOM     36  H   LIG    1       -0.457   4.071   1.418  0.00  0.00    +0.410 HD
ENDBRANCH  24  31
ENDBRANCH  23  24
ENDBRANCH  20  23
ENDBRANCH   1  20
TORSDOF 9
