REMARK  Name = ZINCpk00000KfLme.0
REMARK                            x       y       z     vdW  Elec       q    Type
REMARK                         _______ _______ _______ _____ _____    ______ ____
ROOT
ATOM      1  C   LIG    1       -1.762  -1.904   0.220  0.00  0.00    +0.160 A 
ATOM      2  C   LIG    1       -1.832  -0.526   0.167  0.00  0.00    -0.280 A 
ATOM      3  C   LIG    1       -3.152  -0.188  -0.206  0.00  0.00    +0.280 A 
ATOM      4  N   LIG    1       -3.822  -1.296  -0.371  0.00  0.00    -0.280 NA
ATOM      5  N   LIG    1       -2.977  -2.380  -0.108  0.00  0.00    -0.310 N 
ENDROOT
BRANCH   2   6
ATOM      6  C   LIG    1       -0.735   0.417   0.452  0.00  0.00    +0.600 C 
ATOM      7  N   LIG    1       -0.936   1.450   1.294  0.00  0.00    -0.610 N 
ATOM      8  C   LIG    1       -2.267   1.713   1.862  0.00  0.00    +0.280 C 
ATOM      9  C   LIG    1       -2.123   1.844   3.386  0.00  0.00    +0.170 C 
ATOM     10  N   LIG    1       -1.106   2.859   3.692  0.00  0.00    -0.530 NA
ATOM     11  C   LIG    1        0.216   2.457   3.192  0.00  0.00    +0.170 C 
ATOM     12  C   LIG    1        0.169   2.348   1.664  0.00  0.00    +0.300 C 
ATOM     13  O   LIG    1        0.351   0.263  -0.073  0.00  0.00    -0.540 OA
BRANCH  10  14
ATOM     14  C   LIG    1       -1.060   3.142   5.132  0.00  0.00    +0.180 C 
BRANCH  14  15
ATOM     15  C   LIG    1       -0.390   4.498   5.365  0.00  0.00    +0.170 C 
BRANCH  15  16
ATOM     16  O   LIG    1       -1.180   5.528   4.769  0.00  0.00    -0.560 OA
ATOM     17  H   LIG    1       -0.814   6.417   4.877  0.00  0.00    +0.380 HD
ENDBRANCH  15  16
ENDBRANCH  14  15
ENDBRANCH  10  14
ENDBRANCH   2   6
BRANCH   5  18
ATOM     18  C   LIG    1       -3.336  -3.733  -0.175  0.00  0.00    +0.150 A 
ATOM     19  C   LIG    1       -2.509  -4.641  -0.824  0.00  0.00    +0.000 A 
ATOM     20  C   LIG    1       -2.865  -5.974  -0.887  0.00  0.00    +0.040 A 
ATOM     21  C   LIG    1       -4.043  -6.405  -0.305  0.00  0.00    +0.020 A 
ATOM     22  C   LIG    1       -4.868  -5.503   0.342  0.00  0.00    -0.070 A 
ATOM     23  C   LIG    1       -6.151  -5.978   0.976  0.00  0.00    +0.100 C 
ATOM     24  C   LIG    1       -4.515  -4.170   0.413  0.00  0.00    +0.030 A 
ENDBRANCH   5  18
BRANCH   1  26
ATOM     25  C   LIG    1       -0.496  -2.915   2.097  0.00  0.00    +0.040 C 
ATOM     26  C   LIG    1       -0.550  -2.723   0.580  0.00  0.00    +0.120 C 
ENDBRANCH   1  26
TORSDOF 6
