REMARK  Name = ZINCqH00000074OT.0
REMARK                            x       y       z     vdW  Elec       q    Type
REMARK                         _______ _______ _______ _____ _____    ______ ____
ROOT
ATOM      1  N   LIG    1        3.620  -2.533  -2.853  0.00  0.00    -0.660 N 
ATOM      2  H   LIG    1        4.136  -3.297  -2.549  0.00  0.00    +0.410 HD
ATOM      3  C   LIG    1        2.945  -1.780  -1.962  0.00  0.00    +0.510 C 
ATOM      4  O   LIG    1        2.382  -0.769  -2.327  0.00  0.00    -0.500 OA
ENDROOT
BRANCH   1  10
ATOM      5  C   LIG    1        4.612  -2.613  -5.060  0.00  0.00    +0.090 A 
ATOM      6  C   LIG    1        4.564  -2.294  -6.407  0.00  0.00    -0.060 A 
ATOM      7  C   LIG    1        3.492  -1.582  -6.912  0.00  0.00    +0.030 A 
ATOM      8  C   LIG    1        2.465  -1.186  -6.075  0.00  0.00    -0.080 A 
ATOM      9  C   LIG    1        2.503  -1.504  -4.731  0.00  0.00    +0.060 A 
ATOM     10  C   LIG    1        3.578  -2.214  -4.216  0.00  0.00    +0.120 A 
BRANCH   8  11
ATOM     11  C   LIG    1        1.299  -0.410  -6.632  0.00  0.00    -0.020 C 
ATOM     12  C   LIG    1        1.209   0.947  -5.932  0.00  0.00    +0.030 C 
ATOM     13  C   LIG    1        0.006  -1.193  -6.395  0.00  0.00    +0.040 C 
ATOM     14  C   LIG    1        1.498  -0.198  -8.134  0.00  0.00    +0.040 C 
ENDBRANCH   8  11
BRANCH   5  16
ATOM     15  C   LIG    1        6.689  -3.689  -5.486  0.00  0.00    +0.250 C 
ATOM     16  O   LIG    1        5.666  -3.314  -4.562  0.00  0.00    -0.320 OA
ENDBRANCH   5  16
ENDBRANCH   1  10
BRANCH   3  17
ATOM     17  C   LIG    1        2.888  -2.194  -0.514  0.00  0.00    +0.070 C 
BRANCH  17  18
ATOM     18  C   LIG    1        2.064  -1.175   0.276  0.00  0.00    +0.380 C 
BRANCH  18  19
ATOM     19  N   LIG    1        2.752   0.119   0.269  0.00  0.00    -0.730 N 
ATOM     20  H   LIG    1        3.714   0.156   0.145  0.00  0.00    +0.390 HD
ATOM     21  C   LIG    1        2.050   1.257   0.435  0.00  0.00    +0.720 C 
ATOM     22  O   LIG    1        0.845   1.210   0.590  0.00  0.00    -0.590 OA
ATOM     23  N   LIG    1        2.683   2.446   0.429  0.00  0.00    -0.870 N 
ATOM     24  H   LIG    1        2.176   3.266   0.544  0.00  0.00    +0.420 HD
ATOM     25  H   LIG    1        3.644   2.484   0.305  0.00  0.00    +0.400 HD
ENDBRANCH  18  19
BRANCH  18  26
ATOM     26  C   LIG    1        1.904  -1.651   1.696  0.00  0.00    -0.190 A 
ATOM     27  C   LIG    1        0.820  -2.254   2.187  0.00  0.00    +0.020 A 
ATOM     28  C   LIG    1        0.902  -2.604   3.524  0.00  0.00    +0.010 A 
ATOM     29  C   LIG    1        2.053  -2.285   4.119  0.00  0.00    -0.050 A 
ATOM     30  S   LIG    1        3.120  -1.504   2.958  0.00  0.00    +0.100 S 
ENDBRANCH  18  26
ENDBRANCH  17  18
ENDBRANCH   3  17
TORSDOF 7
