REMARK  Name = ZINCpe00000zsaQR.0
REMARK                            x       y       z     vdW  Elec       q    Type
REMARK                         _______ _______ _______ _____ _____    ______ ____
ROOT
ATOM      1  N   LIG    1        3.536   2.099  -0.020  0.00  0.00    -0.650 N 
ATOM      2  H   LIG    1        3.517   3.069  -0.015  0.00  0.00    +0.420 HD
ATOM      3  C   LIG    1        4.716   1.448  -0.034  0.00  0.00    +0.580 C 
ATOM      4  O   LIG    1        4.739   0.233  -0.041  0.00  0.00    -0.440 OA
ENDROOT
BRANCH   1   8
ATOM      5  O   LIG    1        1.388  -1.897  -0.022  0.00  0.00    -0.480 OA
ATOM      6  C   LIG    1        1.313  -0.680  -0.014  0.00  0.00    +0.540 A 
ATOM      7  N   LIG    1        2.420   0.077  -0.021  0.00  0.00    -0.580 NA
ATOM      8  C   LIG    1        2.360   1.390  -0.013  0.00  0.00    +0.660 A 
ATOM      9  N   LIG    1        1.190   2.078   0.002  0.00  0.00    -0.640 N 
ATOM     10  H   LIG    1        1.199   3.047   0.007  0.00  0.00    +0.420 HD
ATOM     11  C   LIG    1       -0.017   1.402   0.010  0.00  0.00    +0.190 A 
ATOM     12  C   LIG    1       -1.232   2.072   0.031  0.00  0.00    -0.020 A 
ATOM     13  C   LIG    1       -2.409   1.353   0.033  0.00  0.00    +0.080 A 
ATOM     14  C   LIG    1       -2.391  -0.033   0.026  0.00  0.00    -0.010 A 
ATOM     15  C   LIG    1       -1.194  -0.717   0.010  0.00  0.00    +0.120 A 
ATOM     16  C   LIG    1        0.002  -0.004   0.002  0.00  0.00    -0.210 A 
ENDBRANCH   1   8
BRANCH   3  17
ATOM     17  C   LIG    1        5.978   2.209  -0.042  0.00  0.00    -0.270 A 
ATOM     18  C   LIG    1        7.191   1.539  -0.051  0.00  0.00    +0.230 A 
ATOM     19  C   LIG    1        7.162   0.032  -0.045  0.00  0.00    +0.340 C 
ATOM     20  O   LIG    1        8.435  -0.492  -0.420  0.00  0.00    -0.360 OA
ATOM     21  C   LIG    1        9.513   0.101   0.316  0.00  0.00    +0.240 C 
ATOM     22  C   LIG    1        9.647   1.559  -0.119  0.00  0.00    +0.270 C 
ATOM     23  N   LIG    1        8.343   2.228  -0.073  0.00  0.00    -0.480 N 
ATOM     24  C   LIG    1        8.335   3.580  -0.052  0.00  0.00    +0.510 A 
ATOM     25  C   LIG    1        7.129   4.300  -0.036  0.00  0.00    -0.080 A 
ATOM     26  O   LIG    1        9.394   4.186  -0.047  0.00  0.00    -0.530 OA
ATOM     27  C   LIG    1        5.950   3.623  -0.034  0.00  0.00    +0.140 A 
ENDBRANCH   3  17
TORSDOF 2
