REMARK  Name = ZINCtV000002IXxp.1
REMARK                            x       y       z     vdW  Elec       q    Type
REMARK                         _______ _______ _______ _____ _____    ______ ____
ROOT
ATOM      1  C   LIG    1        0.141  -6.909   4.982  0.00  0.00    +0.510 C 
ATOM      2  N   LIG    1        0.160  -8.246   5.149  0.00  0.00    -0.630 N 
ATOM      3  H   LIG    1        0.160  -8.831   4.375  0.00  0.00    +0.430 HD
ATOM      4  O   LIG    1        0.140  -6.176   5.949  0.00  0.00    -0.460 OA
ENDROOT
BRANCH   2   5
ATOM      5  C   LIG    1        0.179  -8.787   6.432  0.00  0.00    +0.250 A 
ATOM      6  N   LIG    1        0.186  -8.117   7.545  0.00  0.00    -0.250 NA
ATOM      7  N   LIG    1        0.200  -8.769   8.624  0.00  0.00    -0.240 NA
ATOM      8  C   LIG    1        0.216 -10.068   8.546  0.00  0.00    -0.020 A 
ATOM      9  S   LIG    1        0.205 -10.505   6.836  0.00  0.00    +0.120 S 
BRANCH   8  10
ATOM     10  S   LIG    1        0.245 -11.190   9.904  0.00  0.00    +0.050 S 
BRANCH  10  11
ATOM     11  C   LIG    1        0.244 -10.087  11.344  0.00  0.00    +0.160 C 
BRANCH  11  12
ATOM     12  C   LIG    1        0.268 -10.910  12.607  0.00  0.00    -0.070 A 
ATOM     13  C   LIG    1       -0.919 -11.299  13.201  0.00  0.00    -0.010 A 
ATOM     14  C   LIG    1       -0.897 -12.059  14.358  0.00  0.00    +0.050 A 
ATOM     15  C   LIG    1        0.311 -12.419  14.925  0.00  0.00    +0.070 A 
ATOM     16  C   LIG    1        1.497 -12.025  14.334  0.00  0.00    +0.050 A 
ATOM     17 CL   LIG    1       -2.436 -10.840  12.493  0.00  0.00    -0.040 Cl
ATOM     18  C   LIG    1        1.476 -11.271  13.175  0.00  0.00    -0.010 A 
ATOM     19 CL   LIG    1        2.966 -10.777  12.433  0.00  0.00    -0.040 Cl
ENDBRANCH  11  12
ENDBRANCH  10  11
ENDBRANCH   8  10
ENDBRANCH   2   5
BRANCH   1  20
ATOM     20  C   LIG    1        0.120  -6.323   3.593  0.00  0.00    +0.090 C 
BRANCH  20  21
ATOM     21  C   LIG    1        0.100  -4.796   3.684  0.00  0.00    +0.070 C 
BRANCH  21  22
ATOM     22  C   LIG    1        0.079  -4.202   2.274  0.00  0.00    +0.180 C 
BRANCH  22  23
ATOM     23  O   LIG    1        0.061  -2.775   2.359  0.00  0.00    -0.310 OA
BRANCH  23  29
ATOM     24  C   LIG    1       -0.018   1.503   0.010  0.00  0.00    +0.090 C 
ATOM     25  C   LIG    1        0.002  -0.004   0.002  0.00  0.00    -0.050 A 
ATOM     26  C   LIG    1       -0.006  -0.688  -1.199  0.00  0.00    -0.040 A 
ATOM     27  C   LIG    1        0.018  -2.071  -1.210  0.00  0.00    +0.050 A 
ATOM     28  C   LIG    1        0.039  -2.772  -0.020  0.00  0.00    -0.090 A 
ATOM     29  C   LIG    1        0.041  -2.088   1.187  0.00  0.00    +0.130 A 
ATOM     30  C   LIG    1        0.023  -0.701   1.195  0.00  0.00    -0.020 A 
ENDBRANCH  23  29
ENDBRANCH  22  23
ENDBRANCH  21  22
ENDBRANCH  20  21
ENDBRANCH   1  20
TORSDOF 9
