REMARK  Name = ZINCrD000000AkYG.0
REMARK                            x       y       z     vdW  Elec       q    Type
REMARK                         _______ _______ _______ _____ _____    ______ ____
ROOT
ATOM      1  N   LIG    1        3.161   5.864  -0.200  0.00  0.00    -0.570 N 
ATOM      2  C   LIG    1        3.297   5.485   1.078  0.00  0.00    +0.710 C 
ATOM      3  N   LIG    1        2.966   4.192   1.269  0.00  0.00    -0.710 N 
ATOM      4  H   LIG    1        2.985   3.703   2.107  0.00  0.00    +0.440 HD
ATOM      5  C   LIG    1        2.571   3.675  -0.041  0.00  0.00    +0.170 C 
ATOM      6  C   LIG    1        3.460   2.501  -0.470  0.00  0.00    +0.090 C 
ATOM      7  C   LIG    1        2.614   1.279  -0.045  0.00  0.00    +0.100 C 
ATOM      8  C   LIG    1        1.181   1.769  -0.044  0.00  0.00    -0.070 A 
ATOM      9  C   LIG    1       -0.009   1.061  -0.046  0.00  0.00    +0.020 A 
ATOM     10  C   LIG    1       -1.217   1.730  -0.045  0.00  0.00    +0.030 A 
ATOM     11  C   LIG    1       -1.240   3.112  -0.029  0.00  0.00    +0.010 A 
ATOM     12  C   LIG    1       -0.055   3.821  -0.027  0.00  0.00    +0.040 A 
ATOM     13  C   LIG    1        1.159   3.154  -0.036  0.00  0.00    -0.110 A 
ATOM     14  O   LIG    1        3.675   6.224   1.966  0.00  0.00    -0.530 OA
ATOM     15  C   LIG    1        2.726   4.847  -0.975  0.00  0.00    +0.540 C 
ATOM     16  O   LIG    1        2.508   4.872  -2.167  0.00  0.00    -0.450 OA
ENDROOT
BRANCH   1  17
ATOM     17  C   LIG    1        3.449   7.212  -0.694  0.00  0.00    +0.370 C 
BRANCH  17  19
ATOM     18  O   LIG    1        5.611   6.321  -1.018  0.00  0.00    -0.500 OA
ATOM     19  C   LIG    1        4.893   7.294  -1.119  0.00  0.00    +0.510 C 
ATOM     20  N   LIG    1        5.386   8.447  -1.611  0.00  0.00    -0.670 N 
ATOM     21  H   LIG    1        4.798   9.205  -1.752  0.00  0.00    +0.420 HD
BRANCH  20  22
ATOM     22  C   LIG    1        6.748   8.552  -1.917  0.00  0.00    +0.170 A 
ATOM     23  C   LIG    1        7.436   7.453  -2.414  0.00  0.00    +0.060 A 
ATOM     24  C   LIG    1        8.780   7.560  -2.720  0.00  0.00    -0.010 A 
ATOM     25  C   LIG    1        9.442   8.759  -2.522  0.00  0.00    +0.040 A 
ATOM     26  C   LIG    1        8.761   9.854  -2.022  0.00  0.00    +0.070 A 
ATOM     27 CL   LIG    1        9.639   6.188  -3.346  0.00  0.00    -0.050 Cl
ATOM     28  C   LIG    1        7.417   9.754  -1.719  0.00  0.00    -0.060 A 
ATOM     29 CL   LIG    1        6.563  11.129  -1.091  0.00  0.00    -0.050 Cl
ENDBRANCH  20  22
ENDBRANCH  17  19
ENDBRANCH   1  17
TORSDOF 3
