REMARK  Name = ZINCrH000004nOIX.0
REMARK                            x       y       z     vdW  Elec       q    Type
REMARK                         _______ _______ _______ _____ _____    ______ ____
ROOT
ATOM      1  C   LIG    1       -3.370   2.963   0.041  0.00  0.00    +0.140 A 
ATOM      2  C   LIG    1       -2.217   3.738   0.044  0.00  0.00    +0.070 A 
ATOM      3  C   LIG    1       -0.978   3.133  -0.025  0.00  0.00    +0.020 A 
ATOM      4  C   LIG    1       -0.884   1.750  -0.109  0.00  0.00    +0.140 A 
ATOM      5  C   LIG    1       -2.036   0.974  -0.113  0.00  0.00    +0.070 A 
ATOM      6  C   LIG    1       -3.276   1.578  -0.038  0.00  0.00    -0.040 A 
ATOM      7 CL   LIG    1       -4.716   0.609  -0.042  0.00  0.00    -0.060 Cl
ENDROOT
BRANCH   1   9
ATOM      8  C   LIG    1       -4.831   4.768  -0.479  0.00  0.00    +0.560 C 
ATOM      9  N   LIG    1       -4.626   3.577   0.116  0.00  0.00    -0.670 N 
ATOM     10  H   LIG    1       -5.349   3.144   0.596  0.00  0.00    +0.410 HD
ATOM     11  O   LIG    1       -3.905   5.350  -1.010  0.00  0.00    -0.510 OA
BRANCH   8  16
ATOM     12  C   LIG    1       -7.661   7.157  -1.106  0.00  0.00    -0.670 A 
ATOM     13  C   LIG    1       -8.713   6.492  -0.502  0.00  0.00    +0.160 A 
ATOM     14  C   LIG    1       -8.506   5.268   0.110  0.00  0.00    +0.000 A 
ATOM     15  C   LIG    1       -7.249   4.700   0.116  0.00  0.00    +0.100 A 
ATOM     16  C   LIG    1       -6.182   5.368  -0.487  0.00  0.00    -0.160 A 
ATOM     17  C   LIG    1       -6.398   6.602  -1.103  0.00  0.00    +0.200 A 
BRANCH  12  19
ATOM     18  C   LIG    1       -8.360   8.298  -3.596  0.00  0.00    -0.250 C 
ATOM     19  S   LIG    1       -7.935   8.714  -1.882  0.00  0.00    +2.500 S 
ATOM     20  O   LIG    1       -6.672   9.362  -1.825  0.00  0.00    -0.930 OA
ATOM     21  O   LIG    1       -9.064   9.249  -1.205  0.00  0.00    -0.930 OA
ENDBRANCH  12  19
ENDBRANCH   8  16
ENDBRANCH   1   9
BRANCH   4  22
ATOM     22  N   LIG    1        0.373   1.137  -0.184  0.00  0.00    -0.670 N 
ATOM     23  H   LIG    1        1.126   1.513   0.298  0.00  0.00    +0.410 HD
ATOM     24  C   LIG    1        0.536   0.022  -0.923  0.00  0.00    +0.520 C 
ATOM     25  O   LIG    1       -0.421  -0.495  -1.460  0.00  0.00    -0.520 OA
BRANCH  24  26
ATOM     26  C   LIG    1        1.907  -0.583  -1.083  0.00  0.00    -0.020 C 
ATOM     27  C   LIG    1        2.766   0.113  -2.152  0.00  0.00    +0.050 C 
ATOM     28  C   LIG    1        3.250  -1.291  -2.561  0.00  0.00    +0.030 C 
ATOM     29  C   LIG    1        1.930  -1.829  -1.984  0.00  0.00    +0.050 C 
ENDBRANCH  24  26
ENDBRANCH   4  22
TORSDOF 5
