REMARK  Name = ZINCtj0000001jmK.1
REMARK                            x       y       z     vdW  Elec       q    Type
REMARK                         _______ _______ _______ _____ _____    ______ ____
ROOT
ATOM      1  C   LIG    1       -0.058   1.048   0.046  0.00  0.00    +0.310 C 
ATOM      2  N   LIG    1       -0.736   1.287   1.322  0.00  0.00    -0.530 N 
ATOM      3  C   LIG    1       -0.014   1.530   2.434  0.00  0.00    +0.520 C 
ATOM      4  O   LIG    1       -0.575   1.727   3.491  0.00  0.00    -0.520 OA
ENDROOT
BRANCH   2   5
ATOM      5  C   LIG    1       -2.127   1.263   1.387  0.00  0.00    +0.180 A 
ATOM      6  C   LIG    1       -2.793   0.075   1.656  0.00  0.00    +0.030 A 
ATOM      7  C   LIG    1       -4.172   0.054   1.721  0.00  0.00    +0.060 A 
ATOM      8  C   LIG    1       -4.901   1.214   1.518  0.00  0.00    +0.030 A 
ATOM      9  C   LIG    1       -4.257   2.403   1.250  0.00  0.00    +0.050 A 
ATOM     10  C   LIG    1       -2.863   2.441   1.187  0.00  0.00    -0.130 A 
BRANCH  10  11
ATOM     11  C   LIG    1       -2.167   3.712   0.907  0.00  0.00    +0.570 C 
ATOM     12  N   LIG    1       -2.877   4.841   0.715  0.00  0.00    -0.720 N 
ATOM     13  H   LIG    1       -3.846   4.819   0.761  0.00  0.00    +0.410 HD
ATOM     14  O   LIG    1       -0.953   3.740   0.848  0.00  0.00    -0.550 OA
BRANCH  12  15
ATOM     15  C   LIG    1       -2.186   6.103   0.436  0.00  0.00    +0.400 C 
BRANCH  15  16
ATOM     16  C   LIG    1       -3.201   7.203   0.264  0.00  0.00    -0.060 A 
ATOM     17  C   LIG    1       -3.688   7.985   1.244  0.00  0.00    -0.020 A 
ATOM     18  C   LIG    1       -4.604   8.877   0.640  0.00  0.00    -0.070 A 
ATOM     19  C   LIG    1       -4.628   8.581  -0.672  0.00  0.00    +0.190 A 
ATOM     20  O   LIG    1       -3.776   7.566  -0.894  0.00  0.00    -0.170 OA
ENDBRANCH  15  16
ENDBRANCH  12  15
ENDBRANCH  10  11
ENDBRANCH   2   5
BRANCH   3  21
ATOM     21  C   LIG    1        1.491   1.555   2.364  0.00  0.00    +0.290 C 
BRANCH  21  22
ATOM     22  N   LIG    1        2.035   1.986   3.659  0.00  0.00    -0.370 N 
ATOM     23  C   LIG    1        3.498   1.864   3.639  0.00  0.00    +0.280 C 
ATOM     24  C   LIG    1        4.063   2.234   5.012  0.00  0.00    +0.080 C 
ATOM     25  C   LIG    1        3.674   3.677   5.346  0.00  0.00    +0.000 C 
ATOM     26  C   LIG    1        2.149   3.810   5.290  0.00  0.00    +0.100 C 
ATOM     27  C   LIG    1        1.655   3.382   3.907  0.00  0.00    +0.260 C 
ATOM     28  H   LIG    1        1.661   1.401   4.391  0.00  0.00    +0.430 HD
BRANCH  25  29
ATOM     29  C   LIG    1        4.160   4.023   6.729  0.00  0.00    +0.520 C 
ATOM     30  O   LIG    1        3.366   4.345   7.588  0.00  0.00    -0.530 OA
ATOM     31  N   LIG    1        5.477   3.975   7.013  0.00  0.00    -0.850 N 
ATOM     32  H   LIG    1        5.790   4.197   7.903  0.00  0.00    +0.410 HD
ATOM     33  H   LIG    1        6.112   3.718   6.325  0.00  0.00    +0.400 HD
ENDBRANCH  25  29
ENDBRANCH  21  22
ENDBRANCH   3  21
TORSDOF 7
