REMARK  Name = ZINCpe000000YZO9.0
REMARK                            x       y       z     vdW  Elec       q    Type
REMARK                         _______ _______ _______ _____ _____    ______ ____
ROOT
ATOM      1  O   LIG    1        1.235   3.272   2.350  0.00  0.00    -0.520 OA
ATOM      2  C   LIG    1        1.252   4.064   1.432  0.00  0.00    +0.510 C 
ATOM      3  N   LIG    1        1.296   5.388   1.685  0.00  0.00    -0.610 N 
ATOM      4  C   LIG    1        1.323   6.359   0.583  0.00  0.00    +0.270 C 
ATOM      5  C   LIG    1        0.183   7.368   0.794  0.00  0.00    +0.040 C 
ATOM      6  C   LIG    1        0.312   7.992   2.185  0.00  0.00    +0.020 C 
ATOM      7  C   LIG    1        0.191   6.899   3.250  0.00  0.00    +0.260 C 
ATOM      8  C   LIG    1        1.325   5.885   3.067  0.00  0.00    +0.290 C 
ENDROOT
BRANCH   7   9
ATOM      9  N   LIG    1        0.284   7.501   4.582  0.00  0.00    -0.370 N 
ATOM     10  C   LIG    1        1.423   7.782   5.248  0.00  0.00    +0.220 A 
ATOM     11  C   LIG    1        1.080   8.329   6.438  0.00  0.00    -0.120 A 
ATOM     12  C   LIG    1       -0.316   8.383   6.501  0.00  0.00    +0.230 A 
ATOM     13  N   LIG    1       -0.794   7.893   5.386  0.00  0.00    -0.290 NA
ENDBRANCH   7   9
BRANCH   2  14
ATOM     14  C   LIG    1        1.222   3.570   0.009  0.00  0.00    +0.380 C 
BRANCH  14  15
ATOM     15  N   LIG    1        1.176   2.105   0.002  0.00  0.00    -0.450 N 
ATOM     16  N   LIG    1        2.364   1.370  -0.013  0.00  0.00    +0.090 NA
ATOM     17  N   LIG    1        2.390   0.086  -0.020  0.00  0.00    -0.190 NA
ATOM     18  C   LIG    1        1.255  -0.655  -0.013  0.00  0.00    +0.060 A 
ATOM     19  C   LIG    1        1.299  -2.052  -0.023  0.00  0.00    +0.080 A 
ATOM     20  C   LIG    1        0.126  -2.772  -0.015  0.00  0.00    +0.070 A 
ATOM     21  C   LIG    1       -1.104  -2.128   0.000  0.00  0.00    +0.040 A 
ATOM     22  C   LIG    1       -1.173  -0.752   0.009  0.00  0.00    +0.100 A 
ATOM     23  C   LIG    1        0.002  -0.004   0.002  0.00  0.00    -0.150 A 
ATOM     24  C   LIG    1       -0.018   1.467   0.010  0.00  0.00    +0.540 A 
ATOM     25  O   LIG    1       -1.066   2.085   0.018  0.00  0.00    -0.500 OA
ENDBRANCH  14  15
ENDBRANCH   2  14
TORSDOF 3
