REMARK  Name = ZINCnE000001TCsK.0
REMARK                            x       y       z     vdW  Elec       q    Type
REMARK                         _______ _______ _______ _____ _____    ______ ____
ROOT
ATOM      1  C   LIG    1        6.473   4.675  -3.185  0.00  0.00    -0.110 A 
ATOM      2  C   LIG    1        6.934   4.872  -4.487  0.00  0.00    +0.020 A 
ATOM      3  C   LIG    1        6.605   3.963  -5.474  0.00  0.00    +0.070 A 
ATOM      4  C   LIG    1        5.820   2.865  -5.167  0.00  0.00    -0.040 A 
ATOM      5  C   LIG    1        5.356   2.664  -3.874  0.00  0.00    -0.070 A 
ATOM      6  C   LIG    1        4.497   1.457  -3.600  0.00  0.00    +0.080 C 
ATOM      7  C   LIG    1        4.439   1.187  -2.096  0.00  0.00    +0.160 C 
ATOM      8  N   LIG    1        4.084   2.440  -1.411  0.00  0.00    -0.530 NA
ATOM      9  C   LIG    1        5.205   3.382  -1.463  0.00  0.00    +0.280 C 
ATOM     10  F   LIG    1        7.049   4.145  -6.736  0.00  0.00    -0.150 F 
ATOM     11  C   LIG    1        5.679   3.560  -2.882  0.00  0.00    -0.050 A 
ENDROOT
BRANCH   1  13
ATOM     12  O   LIG    1        7.515   6.614  -2.389  0.00  0.00    -0.680 OA
ATOM     13  C   LIG    1        6.822   5.641  -2.126  0.00  0.00    +0.520 C 
ATOM     14  O   LIG    1        6.419   5.469  -0.984  0.00  0.00    -0.670 OA
ENDBRANCH   1  13
BRANCH   8  15
ATOM     15  C   LIG    1        3.676   2.183  -0.023  0.00  0.00    +0.230 C 
BRANCH  15  16
ATOM     16  C   LIG    1        2.381   1.414  -0.013  0.00  0.00    -0.040 A 
ATOM     17  C   LIG    1        1.177   2.091   0.002  0.00  0.00    +0.020 A 
ATOM     18  C   LIG    1       -0.017   1.383   0.010  0.00  0.00    +0.120 A 
ATOM     19  C   LIG    1        0.002  -0.004   0.002  0.00  0.00    +0.000 A 
ATOM     20  C   LIG    1        1.210  -0.678  -0.013  0.00  0.00    -0.020 A 
ATOM     21 CL   LIG    1        1.235  -2.413  -0.022  0.00  0.00    -0.070 Cl
ATOM     22  C   LIG    1        2.398   0.031  -0.021  0.00  0.00    +0.010 A 
BRANCH  18  23
ATOM     23  O   LIG    1       -1.202   2.047   0.019  0.00  0.00    -0.490 OA
ATOM     24  H   LIG    1       -1.541   2.235   0.905  0.00  0.00    +0.390 HD
ENDBRANCH  18  23
ENDBRANCH  15  16
ENDBRANCH   8  15
TORSDOF 4
