REMARK  Name = ZINCrD00000l5Rgg.0
REMARK                            x       y       z     vdW  Elec       q    Type
REMARK                         _______ _______ _______ _____ _____    ______ ____
ROOT
ATOM      1  C   LIG    1        0.130  -0.520  -1.433  0.00  0.00    +0.040 C 
ATOM      2  C   LIG    1        0.002  -0.004   0.002  0.00  0.00    +0.290 C 
ENDROOT
BRANCH   2   3
ATOM      3  C   LIG    1       -1.273  -0.527   0.612  0.00  0.00    -0.120 A 
ATOM      4  C   LIG    1       -2.478   0.088   0.325  0.00  0.00    +0.040 A 
ATOM      5  C   LIG    1       -3.649  -0.392   0.878  0.00  0.00    +0.010 A 
ATOM      6  C   LIG    1       -3.614  -1.487   1.732  0.00  0.00    +0.190 A 
ATOM      7  C   LIG    1       -2.401  -2.099   2.022  0.00  0.00    -0.020 A 
ATOM      8  C   LIG    1       -1.235  -1.617   1.462  0.00  0.00    +0.050 A 
BRANCH   6   9
ATOM      9  N   LIG    1       -4.798  -1.973   2.298  0.00  0.00    -0.570 N 
ATOM     10  C   LIG    1       -4.915  -3.189   3.116  0.00  0.00    +0.260 C 
ATOM     11  C   LIG    1       -6.412  -3.252   3.472  0.00  0.00    +0.270 C 
ATOM     12  N   LIG    1       -6.981  -2.065   2.817  0.00  0.00    -0.740 N 
ATOM     13  H   LIG    1       -7.914  -1.802   2.841  0.00  0.00    +0.440 HD
ATOM     14  C   LIG    1       -6.004  -1.401   2.185  0.00  0.00    +0.700 C 
ATOM     15  O   LIG    1       -6.195  -0.374   1.563  0.00  0.00    -0.570 OA
ENDBRANCH   6   9
ENDBRANCH   2   3
BRANCH   2  16
ATOM     16  N   LIG    1       -0.026   1.461  -0.006  0.00  0.00    -0.730 N 
ATOM     17  H   LIG    1       -0.875   1.930  -0.009  0.00  0.00    +0.400 HD
ATOM     18  C   LIG    1        1.129   2.156  -0.016  0.00  0.00    +0.590 C 
ATOM     19  O   LIG    1        2.194   1.568  -0.018  0.00  0.00    -0.540 OA
BRANCH  18  20
ATOM     20  C   LIG    1        1.101   3.625  -0.025  0.00  0.00    -0.220 A 
ATOM     21  C   LIG    1       -0.007   4.420  -0.023  0.00  0.00    +0.290 A 
ATOM     22  N   LIG    1        0.365   5.724  -0.033  0.00  0.00    -0.570 N 
ATOM     23  H   LIG    1       -0.250   6.474  -0.035  0.00  0.00    +0.420 HD
ATOM     24  C   LIG    1        1.740   5.832  -0.041  0.00  0.00    +0.110 A 
ATOM     25  C   LIG    1        2.609   6.918  -0.052  0.00  0.00    -0.030 A 
ATOM     26  C   LIG    1        3.973   6.709  -0.041  0.00  0.00    +0.120 A 
ATOM     27  C   LIG    1        4.490   5.419  -0.034  0.00  0.00    -0.030 A 
ATOM     28  C   LIG    1        3.644   4.332  -0.028  0.00  0.00    +0.120 A 
ATOM     29  F   LIG    1        4.813   7.767  -0.047  0.00  0.00    -0.140 F 
ATOM     30  C   LIG    1        2.265   4.530  -0.030  0.00  0.00    -0.070 A 
ENDBRANCH  18  20
ENDBRANCH   2  16
TORSDOF 4
