REMARK  Name = ZINCnE000001SBc5.0
REMARK                            x       y       z     vdW  Elec       q    Type
REMARK                         _______ _______ _______ _____ _____    ______ ____
ROOT
ATOM      1  O   LIG    1        1.929   2.467   2.106  0.00  0.00    -0.600 OA
ATOM      2  C   LIG    1        2.219   2.501   0.923  0.00  0.00    +0.690 C 
ATOM      3  N   LIG    1        1.337   2.067   0.000  0.00  0.00    -0.630 N 
ATOM      4  C   LIG    1        1.304   1.945  -1.466  0.00  0.00    +0.250 C 
ATOM      5  C   LIG    1       -0.226   2.074  -1.381  0.00  0.00    -0.030 C 
ATOM      6  C   LIG    1       -0.701   3.516  -1.470  0.00  0.00    +0.040 C 
ATOM      7  C   LIG    1       -1.738   3.823  -0.395  0.00  0.00    +0.010 C 
ATOM      8  C   LIG    1       -1.133   3.534   0.981  0.00  0.00    +0.020 C 
ATOM      9  C   LIG    1       -0.912   2.041   1.111  0.00  0.00    +0.030 C 
ATOM     10  C   LIG    1       -0.018   1.503   0.010  0.00  0.00    +0.230 C 
ENDROOT
BRANCH   2  11
ATOM     11  N   LIG    1        3.408   2.969   0.540  0.00  0.00    -0.710 NA
ATOM     12  C   LIG    1        4.284   3.400   1.456  0.00  0.00    +0.350 A 
ATOM     13  C   LIG    1        5.542   3.896   1.062  0.00  0.00    -0.060 A 
ATOM     14  C   LIG    1        6.396   4.322   2.041  0.00  0.00    +0.020 A 
ATOM     15  C   LIG    1        5.974   4.244   3.377  0.00  0.00    +0.030 A 
ATOM     16  N   LIG    1        4.794   3.774   3.675  0.00  0.00    -0.230 NA
ATOM     17  N   LIG    1        3.967   3.370   2.779  0.00  0.00    -0.320 NA
ENDBRANCH   2  11
BRANCH  10  18
ATOM     18  C   LIG    1        0.002  -0.004   0.002  0.00  0.00    -0.080 A 
ATOM     19  C   LIG    1       -0.779  -0.701  -0.901  0.00  0.00    +0.000 A 
ATOM     20  C   LIG    1       -0.756  -2.083  -0.912  0.00  0.00    -0.010 A 
ATOM     21  C   LIG    1        0.039  -2.768  -0.013  0.00  0.00    -0.010 A 
ATOM     22  C   LIG    1        0.816  -2.072   0.894  0.00  0.00    +0.000 A 
ATOM     23  C   LIG    1        0.797  -0.690   0.901  0.00  0.00    +0.040 A 
ENDBRANCH  10  18
TORSDOF 2
