REMARK  Name = ZINCtV000002sQpg.0
REMARK                            x       y       z     vdW  Elec       q    Type
REMARK                         _______ _______ _______ _____ _____    ______ ____
ROOT
ATOM      1  N   LIG    1        1.262  -4.902   0.080  0.00  0.00    -0.680 N 
ATOM      2  H   LIG    1        1.885  -4.398   0.626  0.00  0.00    +0.410 HD
ATOM      3  C   LIG    1        0.387  -4.256  -0.715  0.00  0.00    +0.560 C 
ATOM      4  O   LIG    1       -0.352  -4.887  -1.446  0.00  0.00    -0.510 OA
ENDROOT
BRANCH   1  10
ATOM      5  C   LIG    1        0.099  -6.996   0.385  0.00  0.00    -0.060 A 
ATOM      6  C   LIG    1        0.111  -8.377   0.417  0.00  0.00    +0.010 A 
ATOM      7  C   LIG    1        1.289  -9.066   0.196  0.00  0.00    +0.000 A 
ATOM      8  C   LIG    1        2.458  -8.375  -0.064  0.00  0.00    +0.010 A 
ATOM      9  C   LIG    1        2.453  -6.995  -0.103  0.00  0.00    -0.080 A 
ATOM     10  C   LIG    1        1.271  -6.300   0.119  0.00  0.00    +0.140 A 
BRANCH   5  12
ATOM     11  C   LIG    1       -2.279  -6.792  -0.285  0.00  0.00    +0.030 C 
ATOM     12  C   LIG    1       -1.184  -6.247   0.634  0.00  0.00    +0.020 C 
ATOM     13  C   LIG    1       -1.606  -6.427   2.093  0.00  0.00    +0.030 C 
ENDBRANCH   5  12
BRANCH   9  14
ATOM     14  C   LIG    1        3.728  -6.243  -0.386  0.00  0.00    +0.010 C 
ATOM     15  C   LIG    1        4.265  -6.648  -1.760  0.00  0.00    +0.040 C 
ATOM     16  C   LIG    1        4.766  -6.578   0.687  0.00  0.00    +0.030 C 
ENDBRANCH   9  14
ENDBRANCH   1  10
BRANCH   3  17
ATOM     17  C   LIG    1        0.325  -2.781  -0.700  0.00  0.00    -0.180 A 
ATOM     18  C   LIG    1       -0.582  -2.109  -1.524  0.00  0.00    +0.140 A 
ATOM     19  C   LIG    1       -0.636  -0.733  -1.506  0.00  0.00    -0.020 A 
ATOM     20  C   LIG    1        0.210  -0.013  -0.671  0.00  0.00    +0.160 A 
ATOM     21  C   LIG    1        1.117  -0.678   0.146  0.00  0.00    -0.080 A 
ATOM     22  C   LIG    1        1.174  -2.053   0.139  0.00  0.00    +0.090 A 
BRANCH  20  23
ATOM     23  O   LIG    1        0.154   1.343  -0.657  0.00  0.00    -0.300 OA
BRANCH  23  24
ATOM     24  C   LIG    1        1.051   2.020   0.225  0.00  0.00    +0.260 C 
BRANCH  24  25
ATOM     25  C   LIG    1        0.846   3.508   0.104  0.00  0.00    -0.100 A 
ATOM     26  C   LIG    1        1.578   4.235  -0.816  0.00  0.00    +0.030 A 
ATOM     27  C   LIG    1        1.386   5.599  -0.930  0.00  0.00    +0.010 A 
ATOM     28  C   LIG    1        0.470   6.238  -0.116  0.00  0.00    +0.020 A 
ATOM     29  C   LIG    1       -0.258   5.513   0.809  0.00  0.00    +0.010 A 
ATOM     30  C   LIG    1       -0.070   4.148   0.919  0.00  0.00    +0.030 A 
ENDBRANCH  24  25
ENDBRANCH  23  24
ENDBRANCH  20  23
ENDBRANCH   3  17
TORSDOF 7
