REMARK  Name = ZINCpe00000MJBSM.0
REMARK                            x       y       z     vdW  Elec       q    Type
REMARK                         _______ _______ _______ _____ _____    ______ ____
ROOT
ATOM      1  C   LIG    1        3.705   2.189   0.324  0.00  0.00    +0.570 C 
ATOM      2  N   LIG    1        3.668   3.514   0.083  0.00  0.00    -0.610 N 
ATOM      3  C   LIG    1        2.394   4.258   0.130  0.00  0.00    +0.440 C 
ATOM      4  C   LIG    1        2.665   5.549   0.865  0.00  0.00    +0.150 A 
ATOM      5  N   LIG    1        1.816   6.422   1.309  0.00  0.00    -0.270 NA
ATOM      6  N   LIG    1        2.452   7.391   1.874  0.00  0.00    -0.290 NA
ATOM      7  C   LIG    1        3.740   7.169   1.812  0.00  0.00    +0.190 A 
ATOM      8  C   LIG    1        4.829   8.059   2.353  0.00  0.00    +0.200 C 
ATOM      9  N   LIG    1        3.910   5.993   1.175  0.00  0.00    -0.470 N 
ATOM     10  C   LIG    1        5.157   5.295   0.865  0.00  0.00    +0.320 C 
ATOM     11  C   LIG    1        4.895   4.262  -0.230  0.00  0.00    +0.220 C 
ATOM     12  O   LIG    1        4.771   1.604   0.339  0.00  0.00    -0.480 OA
ENDROOT
BRANCH   1  17
ATOM     13  C   LIG    1       -1.175  -0.697   1.283  0.00  0.00    +0.100 C 
ATOM     14  C   LIG    1        0.105   0.058   1.032  0.00  0.00    -0.040 A 
ATOM     15  C   LIG    1        0.093   1.175   0.218  0.00  0.00    +0.010 A 
ATOM     16  C   LIG    1        1.260   1.872  -0.017  0.00  0.00    +0.040 A 
ATOM     17  C   LIG    1        2.451   1.446   0.571  0.00  0.00    -0.140 A 
ATOM     18  C   LIG    1        2.457   0.316   1.395  0.00  0.00    -0.030 A 
ATOM     19  C   LIG    1        3.594  -0.346   2.142  0.00  0.00    +0.080 C 
ATOM     20  C   LIG    1        3.077  -1.758   2.494  0.00  0.00    +0.030 C 
ATOM     21  C   LIG    1        1.549  -1.548   2.538  0.00  0.00    +0.080 C 
ATOM     22  C   LIG    1        1.284  -0.372   1.621  0.00  0.00    -0.100 A 
ENDBRANCH   1  17
BRANCH  11  23
ATOM     23  C   LIG    1        6.060   3.308  -0.305  0.00  0.00    +0.540 C 
ATOM     24  O   LIG    1        6.554   2.873   0.713  0.00  0.00    -0.510 OA
ATOM     25  N   LIG    1        6.552   2.939  -1.504  0.00  0.00    -0.850 N 
ATOM     26  H   LIG    1        7.301   2.325  -1.553  0.00  0.00    +0.410 HD
ATOM     27  H   LIG    1        6.157   3.287  -2.319  0.00  0.00    +0.400 HD
ENDBRANCH  11  23
TORSDOF 2
