REMARK  Name = ZINCvU00000006vc.0
REMARK                            x       y       z     vdW  Elec       q    Type
REMARK                         _______ _______ _______ _____ _____    ______ ____
ROOT
ATOM      1  C   LIG    1        1.242   1.711  -0.001  0.00  0.00    +0.130 A 
ATOM      2  N   LIG    1       -0.016   1.341   0.009  0.00  0.00    -0.440 NA
ATOM      3  C   LIG    1        0.002  -0.004   0.002  0.00  0.00    +0.180 A 
ATOM      4  N   LIG    1        1.247  -0.376  -0.012  0.00  0.00    -0.370 NA
ATOM      5  O   LIG    1        1.975   0.594  -0.014  0.00  0.00    +0.100 OA
ENDROOT
BRANCH   1  12
ATOM      6  C   LIG    1        5.359   1.215   5.053  0.00  0.00    +0.100 C 
ATOM      7  C   LIG    1        4.811   1.708   3.739  0.00  0.00    -0.090 A 
ATOM      8  C   LIG    1        5.593   1.652   2.599  0.00  0.00    +0.050 A 
ATOM      9  C   LIG    1        5.100   2.103   1.388  0.00  0.00    +0.030 A 
ATOM     10  C   LIG    1        3.820   2.614   1.307  0.00  0.00    -0.050 A 
ATOM     11  C   LIG    1        3.290   3.108  -0.013  0.00  0.00    +0.120 C 
ATOM     12  C   LIG    1        1.761   3.126   0.001  0.00  0.00    +0.240 C 
ATOM     13  O   LIG    1        1.299   3.812   1.201  0.00  0.00    -0.330 OA
ATOM     14  C   LIG    1        1.651   3.209   2.365  0.00  0.00    +0.520 C 
ATOM     15  O   LIG    1        0.872   3.115   3.291  0.00  0.00    -0.430 OA
ATOM     16  C   LIG    1        1.247   3.860  -1.239  0.00  0.00    +0.140 C 
ATOM     17  C   LIG    1        3.028   2.669   2.455  0.00  0.00    -0.170 A 
ATOM     18  C   LIG    1        3.528   2.215   3.674  0.00  0.00    +0.090 A 
ENDBRANCH   1  12
BRANCH   3  19
ATOM     19  C   LIG    1       -1.200  -0.912   0.009  0.00  0.00    +0.220 C 
BRANCH  19  20
ATOM     20  C   LIG    1       -1.615  -1.208  -1.409  0.00  0.00    -0.100 A 
ATOM     21  C   LIG    1       -2.531  -0.391  -2.046  0.00  0.00    +0.030 A 
ATOM     22  C   LIG    1       -2.908  -0.659  -3.348  0.00  0.00    +0.010 A 
ATOM     23  C   LIG    1       -2.377  -1.750  -4.011  0.00  0.00    -0.070 A 
ATOM     24  C   LIG    1       -1.465  -2.569  -3.373  0.00  0.00    +0.000 A 
ATOM     25  C   LIG    1       -1.084  -2.298  -2.072  0.00  0.00    +0.020 A 
BRANCH  23  26
ATOM     26  C   LIG    1       -2.793  -2.045  -5.429  0.00  0.00    +0.030 C 
ATOM     27  C   LIG    1       -2.433  -0.858  -6.324  0.00  0.00    +0.010 C 
ATOM     28  C   LIG    1       -2.854  -1.158  -7.764  0.00  0.00    +0.000 C 
ATOM     29  C   LIG    1       -4.365  -1.395  -7.814  0.00  0.00    +0.000 C 
ATOM     30  C   LIG    1       -4.725  -2.582  -6.919  0.00  0.00    +0.000 C 
ATOM     31  C   LIG    1       -4.303  -2.282  -5.479  0.00  0.00    +0.010 C 
ENDBRANCH  23  26
ENDBRANCH  19  20
ENDBRANCH   3  19
TORSDOF 4
