REMARK  Name = ZINCpe00000gLYI7.0
REMARK                            x       y       z     vdW  Elec       q    Type
REMARK                         _______ _______ _______ _____ _____    ______ ____
ROOT
ATOM      1  C   LIG    1        4.364   3.678  -2.211  0.00  0.00    +0.160 C 
ATOM      2  C   LIG    1        4.727   4.762  -1.182  0.00  0.00    -0.010 C 
ATOM      3  C   LIG    1        4.231   3.790  -0.097  0.00  0.00    +0.170 C 
ATOM      4  C   LIG    1        3.353   3.155  -1.183  0.00  0.00    -0.060 C 
ATOM      5  C   LIG    1        3.295   1.631  -1.105  0.00  0.00    +0.030 C 
ATOM      6  C   LIG    1        2.430   1.222   0.094  0.00  0.00    +0.290 C 
ATOM      7  N   LIG    1        1.137   1.913   0.000  0.00  0.00    -0.620 N 
ATOM      8  C   LIG    1        1.116   3.377  -0.109  0.00  0.00    +0.280 C 
ATOM      9  C   LIG    1       -0.014   1.212   0.009  0.00  0.00    +0.710 C 
ATOM     10  N   LIG    1       -1.197   1.858   0.023  0.00  0.00    -0.750 N 
ATOM     11  H   LIG    1       -1.222   2.826  -0.042  0.00  0.00    +0.400 HD
ATOM     12  O   LIG    1        0.014  -0.004  -0.002  0.00  0.00    -0.590 OA
ATOM     13  C   LIG    1        1.973   3.800  -1.303  0.00  0.00    +0.060 C 
ENDROOT
BRANCH   3  14
ATOM     14  O   LIG    1        3.486   4.425   0.944  0.00  0.00    -0.550 OA
ATOM     15  H   LIG    1        4.035   4.827   1.631  0.00  0.00    +0.380 HD
ENDBRANCH   3  14
BRANCH   1  16
ATOM     16  O   LIG    1        3.759   4.194  -3.398  0.00  0.00    -0.370 OA
BRANCH  16  18
ATOM     17  C   LIG    1        3.822   4.637  -5.773  0.00  0.00    +0.040 C 
ATOM     18  C   LIG    1        4.565   4.054  -4.570  0.00  0.00    +0.160 C 
ENDBRANCH  16  18
ENDBRANCH   1  16
BRANCH  10  19
ATOM     19  C   LIG    1       -2.445   1.099   0.137  0.00  0.00    +0.410 C 
BRANCH  19  20
ATOM     20  C   LIG    1       -3.614   2.051   0.130  0.00  0.00    -0.030 A 
ATOM     21  C   LIG    1       -4.268   2.472  -0.964  0.00  0.00    +0.030 A 
ATOM     22  C   LIG    1       -5.322   3.376  -0.481  0.00  0.00    -0.240 A 
ATOM     23  C   LIG    1       -5.183   3.411   0.875  0.00  0.00    +0.250 A 
ATOM     24  O   LIG    1       -4.163   2.617   1.215  0.00  0.00    -0.160 OA
BRANCH  22  25
ATOM     25  C   LIG    1       -6.317   4.098  -1.294  0.00  0.00    +0.590 C 
ATOM     26  O   LIG    1       -6.323   3.970  -2.503  0.00  0.00    -0.530 OA
ATOM     27  N   LIG    1       -7.220   4.900  -0.697  0.00  0.00    -0.850 N 
ATOM     28  H   LIG    1       -7.875   5.375  -1.232  0.00  0.00    +0.410 HD
ATOM     29  H   LIG    1       -7.216   5.002   0.268  0.00  0.00    +0.400 HD
ENDBRANCH  22  25
ENDBRANCH  19  20
ENDBRANCH  10  19
TORSDOF 6
