REMARK  Name = ZINCrD00000F5LHw.0
REMARK                            x       y       z     vdW  Elec       q    Type
REMARK                         _______ _______ _______ _____ _____    ______ ____
ROOT
ATOM      1  N   LIG    1       -1.960   0.359  -1.928  0.00  0.00    -0.730 N 
ATOM      2  H   LIG    1       -1.105   0.645  -2.286  0.00  0.00    +0.400 HD
ATOM      3  C   LIG    1       -2.764  -0.438  -2.659  0.00  0.00    +0.490 C 
ATOM      4  O   LIG    1       -3.833  -0.795  -2.211  0.00  0.00    -0.520 OA
ENDROOT
BRANCH   1   5
ATOM      5  C   LIG    1       -2.376   0.792  -0.592  0.00  0.00    +0.280 C 
BRANCH   5   7
ATOM      6  C   LIG    1       -1.667   2.032   1.458  0.00  0.00    +0.040 C 
ATOM      7  C   LIG    1       -1.290   1.681   0.017  0.00  0.00    +0.230 C 
BRANCH   7   8
ATOM      8  N   LIG    1       -0.011   0.966   0.007  0.00  0.00    -0.730 N 
ATOM      9  H   LIG    1        0.002  -0.004   0.002  0.00  0.00    +0.400 HD
ATOM     10  C   LIG    1        1.147   1.655   0.000  0.00  0.00    +0.520 C 
ATOM     11  O   LIG    1        1.130   2.868   0.007  0.00  0.00    -0.520 OA
BRANCH  10  12
ATOM     12  C   LIG    1        2.462   0.920  -0.017  0.00  0.00    +0.160 C 
BRANCH  12  13
ATOM     13  C   LIG    1        3.594   1.915  -0.022  0.00  0.00    -0.150 A 
ATOM     14  C   LIG    1        4.178   2.420   1.065  0.00  0.00    +0.030 A 
ATOM     15  C   LIG    1        5.202   3.317   0.813  0.00  0.00    +0.060 A 
ATOM     16  C   LIG    1        5.443   3.547  -0.479  0.00  0.00    -0.210 A 
ATOM     17 BR   LIG    1        6.766   4.720  -1.150  0.00  0.00    +0.010 Br
ATOM     18  S   LIG    1        4.341   2.592  -1.463  0.00  0.00    +0.170 S 
ENDBRANCH  12  13
ENDBRANCH  10  12
ENDBRANCH   7   8
ENDBRANCH   5   7
ENDBRANCH   1   5
BRANCH   3  19
ATOM     19  C   LIG    1       -2.336  -0.884  -4.034  0.00  0.00    +0.280 C 
BRANCH  19  20
ATOM     20  C   LIG    1       -1.118  -1.764  -3.919  0.00  0.00    -0.160 A 
ATOM     21  C   LIG    1       -1.261  -3.138  -3.878  0.00  0.00    +0.120 A 
ATOM     22  C   LIG    1       -0.145  -3.948  -3.773  0.00  0.00    +0.020 A 
ATOM     23  C   LIG    1        1.117  -3.383  -3.709  0.00  0.00    +0.150 A 
ATOM     24  C   LIG    1        1.262  -2.006  -3.750  0.00  0.00    -0.120 A 
ATOM     25 CL   LIG    1        2.844  -1.295  -3.671  0.00  0.00    -0.020 Cl
ATOM     26  F   LIG    1        2.207  -4.174  -3.607  0.00  0.00    -0.110 F 
ATOM     27  C   LIG    1        0.143  -1.196  -3.861  0.00  0.00    +0.150 A 
ATOM     28  F   LIG    1        0.283   0.147  -3.907  0.00  0.00    -0.110 F 
ENDBRANCH  19  20
BRANCH  19  29
ATOM     29  O   LIG    1       -3.397  -1.617  -4.649  0.00  0.00    -0.520 OA
ATOM     30  H   LIG    1       -3.663  -2.409  -4.162  0.00  0.00    +0.390 HD
ENDBRANCH  19  29
ENDBRANCH   3  19
TORSDOF 8
