REMARK  Name = ZINCqH0000003JXi.0
REMARK                            x       y       z     vdW  Elec       q    Type
REMARK                         _______ _______ _______ _____ _____    ______ ____
ROOT
ATOM      1  C   LIG    1       -1.058   1.390   1.155  0.00  0.00    +0.180 C 
ATOM      2  C   LIG    1       -0.338   2.714   0.892  0.00  0.00    +0.030 C 
ENDROOT
BRANCH   1   3
ATOM      3  C   LIG    1       -0.414   0.297   0.342  0.00  0.00    +0.520 C 
ATOM      4  N   LIG    1       -0.615   0.240  -0.990  0.00  0.00    -0.680 N 
ATOM      5  H   LIG    1       -1.235   0.854  -1.413  0.00  0.00    +0.410 HD
ATOM      6  O   LIG    1        0.286  -0.531   0.885  0.00  0.00    -0.490 OA
BRANCH   4   7
ATOM      7  C   LIG    1        0.068  -0.700  -1.758  0.00  0.00    +0.190 A 
ATOM      8  C   LIG    1       -0.538  -1.247  -2.886  0.00  0.00    -0.030 A 
ATOM      9  C   LIG    1        0.132  -2.169  -3.648  0.00  0.00    +0.090 A 
ATOM     10  C   LIG    1        1.424  -2.568  -3.283  0.00  0.00    -0.190 A 
ATOM     11  C   LIG    1        2.028  -2.020  -2.145  0.00  0.00    +0.100 A 
ATOM     12  C   LIG    1        1.352  -1.095  -1.392  0.00  0.00    +0.000 A 
BRANCH  10  13
ATOM     13  C   LIG    1        2.144  -3.560  -4.093  0.00  0.00    +0.390 C 
ATOM     14  O   LIG    1        3.263  -3.904  -3.776  0.00  0.00    -0.460 OA
ATOM     15  C   LIG    1        1.493  -4.149  -5.318  0.00  0.00    +0.080 C 
ENDBRANCH  10  13
ENDBRANCH   4   7
ENDBRANCH   1   3
BRANCH   1  16
ATOM     16  N   LIG    1       -0.966   1.057   2.583  0.00  0.00    -0.520 NA
ATOM     17  C   LIG    1       -1.891   1.877   3.376  0.00  0.00    +0.200 C 
BRANCH  16  18
ATOM     18  C   LIG    1        0.413   1.200   3.068  0.00  0.00    +0.230 C 
BRANCH  18  22
ATOM     19  C   LIG    1        0.716  -0.441   7.003  0.00  0.00    +0.130 A 
ATOM     20  C   LIG    1        0.943  -1.245   5.895  0.00  0.00    -0.020 A 
ATOM     21  C   LIG    1        0.844  -0.712   4.624  0.00  0.00    +0.080 A 
ATOM     22  C   LIG    1        0.520   0.621   4.456  0.00  0.00    -0.120 A 
ATOM     23  C   LIG    1        0.299   1.426   5.558  0.00  0.00    +0.050 A 
ATOM     24  C   LIG    1        0.391   0.896   6.831  0.00  0.00    -0.080 A 
BRANCH  19  25
ATOM     25  O   LIG    1        0.814  -0.963   8.254  0.00  0.00    -0.320 OA
BRANCH  25  27
ATOM     26  C   LIG    1        0.721  -0.838  10.665  0.00  0.00    +0.070 C 
ATOM     27  C   LIG    1        0.567  -0.077   9.347  0.00  0.00    +0.170 C 
ENDBRANCH  25  27
ENDBRANCH  19  25
ENDBRANCH  18  22
ENDBRANCH  16  18
ENDBRANCH   1  16
TORSDOF 8
