REMARK  Name = ZINCrg000000qZP9.0
REMARK                            x       y       z     vdW  Elec       q    Type
REMARK                         _______ _______ _______ _____ _____    ______ ____
ROOT
ATOM      1  C   LIG    1        1.665   2.568   0.394  0.00  0.00    +0.190 C 
ATOM      2  C   LIG    1        2.162   3.549   1.458  0.00  0.00    +0.020 C 
ENDROOT
BRANCH   1   3
ATOM      3  N   LIG    1        2.575   1.417   0.325  0.00  0.00    -0.510 NA
ATOM      4  C   LIG    1        2.653   0.729   1.620  0.00  0.00    +0.180 C 
ATOM      5  C   LIG    1        3.464  -0.561   1.461  0.00  0.00    +0.280 C 
ATOM      6  N   LIG    1        4.762  -0.226   0.856  0.00  0.00    -0.630 N 
ATOM      7  C   LIG    1        4.769   0.582  -0.373  0.00  0.00    +0.310 C 
ATOM      8  C   LIG    1        5.915  -0.648   1.413  0.00  0.00    +0.720 C 
ATOM      9  N   LIG    1        5.897  -1.631   2.335  0.00  0.00    -0.630 N 
ATOM     10  C   LIG    1        4.709  -2.481   2.514  0.00  0.00    +0.240 C 
ATOM     11  C   LIG    1        5.160  -3.950   2.479  0.00  0.00    +0.220 C 
ATOM     12  O   LIG    1        6.221  -4.137   3.419  0.00  0.00    -0.380 OA
ATOM     13  C   LIG    1        7.399  -3.378   3.131  0.00  0.00    +0.220 C 
ATOM     14  C   LIG    1        7.064  -1.883   3.196  0.00  0.00    +0.270 C 
ATOM     15  O   LIG    1        6.970  -0.142   1.084  0.00  0.00    -0.580 OA
ATOM     16  C   LIG    1        3.907   1.827  -0.142  0.00  0.00    +0.180 C 
ENDBRANCH   1   3
BRANCH   1  19
ATOM     17  N   LIG    1       -0.727   2.979   0.872  0.00  0.00    -0.660 N 
ATOM     18  H   LIG    1       -0.547   3.930   0.807  0.00  0.00    +0.410 HD
ATOM     19  C   LIG    1        0.281   2.092   0.756  0.00  0.00    +0.520 C 
ATOM     20  O   LIG    1        0.075   0.911   0.939  0.00  0.00    -0.500 OA
BRANCH  17  26
ATOM     21  C   LIG    1       -2.912   3.271   1.873  0.00  0.00    +0.100 A 
ATOM     22  C   LIG    1       -4.207   2.822   2.076  0.00  0.00    -0.060 A 
ATOM     23  C   LIG    1       -4.624   1.633   1.508  0.00  0.00    +0.040 A 
ATOM     24  C   LIG    1       -3.753   0.891   0.731  0.00  0.00    -0.010 A 
ATOM     25  C   LIG    1       -2.462   1.335   0.518  0.00  0.00    +0.060 A 
ATOM     26  C   LIG    1       -2.036   2.527   1.086  0.00  0.00    +0.120 A 
BRANCH  21  28
ATOM     27  C   LIG    1       -3.451   5.147   3.232  0.00  0.00    +0.250 C 
ATOM     28  O   LIG    1       -2.499   4.437   2.437  0.00  0.00    -0.320 OA
ENDBRANCH  21  28
ENDBRANCH  17  26
ENDBRANCH   1  19
TORSDOF 4
