REMARK  Name = ZINCrg00001Jdv6J.0
REMARK                            x       y       z     vdW  Elec       q    Type
REMARK                         _______ _______ _______ _____ _____    ______ ____
ROOT
ATOM      1  N   LIG    1       -5.547   1.466  -3.250  0.00  0.00    -0.460 N 
ATOM      2  C   LIG    1       -6.580   0.663  -2.851  0.00  0.00    +0.180 A 
ATOM      3  N   LIG    1       -6.183   0.018  -1.791  0.00  0.00    -0.250 NA
ATOM      4  N   LIG    1       -4.976   0.351  -1.499  0.00  0.00    -0.300 NA
ATOM      5  C   LIG    1       -4.536   1.235  -2.363  0.00  0.00    +0.350 A 
ENDROOT
BRANCH   2   6
ATOM      6  C   LIG    1       -7.931   0.552  -3.510  0.00  0.00    +0.260 C 
ATOM      7  C   LIG    1       -8.972   1.293  -2.669  0.00  0.00    +0.050 C 
BRANCH   6   8
ATOM      8  O   LIG    1       -8.297  -0.825  -3.616  0.00  0.00    -0.350 OA
BRANCH   8   9
ATOM      9  C   LIG    1       -9.129  -1.121  -4.739  0.00  0.00    +0.190 C 
BRANCH   9  10
ATOM     10  C   LIG    1       -9.457  -2.615  -4.752  0.00  0.00    +0.190 C 
BRANCH  10  11
ATOM     11  O   LIG    1      -10.242  -2.941  -3.604  0.00  0.00    -0.380 OA
ATOM     12  C   LIG    1      -10.604  -4.321  -3.519  0.00  0.00    +0.200 C 
ENDBRANCH  10  11
ENDBRANCH   9  10
ENDBRANCH   8   9
ENDBRANCH   6   8
ENDBRANCH   2   6
BRANCH   5  13
ATOM     13  N   LIG    1       -3.283   1.826  -2.370  0.00  0.00    -0.450 N 
ATOM     14  C   LIG    1       -2.830   2.118  -1.004  0.00  0.00    +0.260 C 
BRANCH  13  15
ATOM     15  C   LIG    1       -2.308   0.987  -3.080  0.00  0.00    +0.210 C 
ATOM     16  C   LIG    1       -2.124  -0.325  -2.323  0.00  0.00    +0.010 C 
ATOM     17  C   LIG    1       -1.317  -1.318  -3.155  0.00  0.00    +0.070 C 
ATOM     18  C   LIG    1        0.140  -0.853  -3.260  0.00  0.00    -0.320 C 
ATOM     19  S   LIG    1        0.189   0.730  -4.151  0.00  0.00    +2.420 S 
ATOM     20  O   LIG    1        1.490   1.286  -4.018  0.00  0.00    -0.930 OA
ATOM     21  O   LIG    1       -0.355   0.537  -5.449  0.00  0.00    -0.930 OA
ATOM     22  C   LIG    1       -0.973   1.728  -3.175  0.00  0.00    -0.320 C 
ENDBRANCH  13  15
ENDBRANCH   5  13
BRANCH   1  23
ATOM     23  C   LIG    1       -5.529   2.380  -4.394  0.00  0.00    +0.320 C 
BRANCH  23  24
ATOM     24  C   LIG    1       -5.157   1.606  -5.660  0.00  0.00    +0.020 C 
BRANCH  24  25
ATOM     25  C   LIG    1       -5.138   2.562  -6.855  0.00  0.00    +0.180 C 
BRANCH  25  27
ATOM     26  C   LIG    1       -4.744   2.643  -9.218  0.00  0.00    +0.200 C 
ATOM     27  O   LIG    1       -4.790   1.839  -8.037  0.00  0.00    -0.390 OA
ENDBRANCH  25  27
ENDBRANCH  24  25
ENDBRANCH  23  24
ENDBRANCH   1  23
TORSDOF 11
