REMARK  Name = ZINCvU00000004VX.0
REMARK                            x       y       z     vdW  Elec       q    Type
REMARK                         _______ _______ _______ _____ _____    ______ ____
ROOT
ATOM      1  N   LIG    1        2.052   4.925  -1.605  0.00  0.00    -0.620 N 
ATOM      2  H   LIG    1        2.272   4.317  -0.881  0.00  0.00    +0.420 HD
ATOM      3  C   LIG    1        1.247   5.981  -1.376  0.00  0.00    +0.530 C 
ATOM      4  O   LIG    1        1.045   6.791  -2.256  0.00  0.00    -0.470 OA
ENDROOT
BRANCH   1   6
ATOM      5  C   LIG    1        3.392   3.670  -3.210  0.00  0.00    -0.180 A 
ATOM      6  C   LIG    1        2.564   4.706  -2.874  0.00  0.00    +0.040 A 
ATOM      7  S   LIG    1        2.257   5.694  -4.226  0.00  0.00    +0.310 S 
ATOM      8  C   LIG    1        3.249   4.703  -5.282  0.00  0.00    -0.240 A 
ATOM      9  C   LIG    1        3.481   4.970  -6.757  0.00  0.00    +0.120 C 
ATOM     10  C   LIG    1        4.697   4.163  -7.218  0.00  0.00    -0.010 C 
ATOM     11  C   LIG    1        4.800   4.219  -8.743  0.00  0.00    +0.030 C 
ATOM     12  C   LIG    1        4.532   2.708  -6.767  0.00  0.00    +0.030 C 
ATOM     13  C   LIG    1        4.686   2.634  -5.246  0.00  0.00    +0.100 C 
ATOM     14  C   LIG    1        3.778   3.674  -4.610  0.00  0.00    -0.040 A 
BRANCH   5  15
ATOM     15  C   LIG    1        3.840   2.655  -2.255  0.00  0.00    +0.530 C 
ATOM     16  O   LIG    1        3.188   1.640  -2.095  0.00  0.00    -0.490 OA
BRANCH  15  17
ATOM     17  O   LIG    1        4.975   2.844  -1.552  0.00  0.00    -0.350 OA
BRANCH  17  19
ATOM     18  C   LIG    1        6.662   2.186   0.077  0.00  0.00    +0.070 C 
ATOM     19  C   LIG    1        5.358   1.796  -0.623  0.00  0.00    +0.200 C 
ENDBRANCH  17  19
ENDBRANCH  15  17
ENDBRANCH   5  15
ENDBRANCH   1   6
BRANCH   3  20
ATOM     20  C   LIG    1        0.599   6.157  -0.027  0.00  0.00    +0.080 C 
BRANCH  20  21
ATOM     21  C   LIG    1        0.327   7.619   0.213  0.00  0.00    -0.100 A 
ATOM     22  C   LIG    1       -0.494   8.321  -0.650  0.00  0.00    +0.060 A 
ATOM     23  C   LIG    1       -0.747   9.661  -0.427  0.00  0.00    +0.000 A 
ATOM     24  C   LIG    1       -0.172  10.303   0.654  0.00  0.00    +0.020 A 
ATOM     25  C   LIG    1        0.652   9.603   1.515  0.00  0.00    -0.010 A 
ATOM     26  C   LIG    1        0.902   8.261   1.294  0.00  0.00    +0.060 A 
ENDBRANCH  20  21
BRANCH  20  27
ATOM     27  S   LIG    1       -0.960   5.238   0.018  0.00  0.00    +0.090 S 
BRANCH  27  28
ATOM     28  C   LIG    1       -1.357   5.390   1.727  0.00  0.00    -0.010 A 
ATOM     29  N   LIG    1       -0.605   5.928   2.646  0.00  0.00    -0.260 NA
ATOM     30  N   LIG    1       -1.051   5.952   3.826  0.00  0.00    -0.250 NA
ATOM     31  C   LIG    1       -2.220   5.443   4.043  0.00  0.00    +0.230 A 
ATOM     32  S   LIG    1       -2.841   4.837   2.506  0.00  0.00    +0.130 S 
ENDBRANCH  27  28
ENDBRANCH  20  27
ENDBRANCH   3  20
TORSDOF 8
