REMARK  Name = ZINCrH000004oHdo.0
REMARK                            x       y       z     vdW  Elec       q    Type
REMARK                         _______ _______ _______ _____ _____    ______ ____
ROOT
ATOM      1  C   LIG    1        1.176   1.780   0.013  0.00  0.00    +0.140 A 
ATOM      2  C   LIG    1       -0.012   1.066   0.028  0.00  0.00    +0.050 A 
ATOM      3  C   LIG    1       -1.221   1.736   0.050  0.00  0.00    +0.000 A 
ATOM      4  C   LIG    1       -1.249   3.118   0.067  0.00  0.00    +0.030 A 
ATOM      5  C   LIG    1       -0.068   3.837   0.052  0.00  0.00    -0.060 A 
ATOM      6  C   LIG    1        1.147   3.173   0.025  0.00  0.00    +0.100 A 
ENDROOT
BRANCH   1  13
ATOM      7  C   LIG    1        7.213  -1.421  -0.025  0.00  0.00    +0.030 C 
ATOM      8  C   LIG    1        5.988  -0.950  -0.811  0.00  0.00    -0.010 C 
ATOM      9  C   LIG    1        4.913  -0.401   0.145  0.00  0.00    +0.260 C 
ATOM     10  N   LIG    1        3.625  -0.840  -0.441  0.00  0.00    -0.640 N 
ATOM     11  C   LIG    1        3.893  -2.212  -0.930  0.00  0.00    +0.300 C 
ATOM     12  C   LIG    1        2.472  -0.146  -0.517  0.00  0.00    +0.730 C 
ATOM     13  N   LIG    1        2.403   1.103  -0.015  0.00  0.00    -0.670 N 
ATOM     14  H   LIG    1        3.203   1.534   0.326  0.00  0.00    +0.410 HD
ATOM     15  O   LIG    1        1.494  -0.647  -1.037  0.00  0.00    -0.570 OA
ATOM     16  C   LIG    1        5.317  -2.142  -1.524  0.00  0.00    -0.070 C 
ATOM     17  C   LIG    1        5.253  -1.893  -3.032  0.00  0.00    +0.050 C 
BRANCH  16  18
ATOM     18  C   LIG    1        6.080  -3.436  -1.229  0.00  0.00    +0.190 C 
BRANCH  18  19
ATOM     19  O   LIG    1        5.404  -4.537  -1.839  0.00  0.00    -0.570 OA
ATOM     20  H   LIG    1        5.833  -5.391  -1.694  0.00  0.00    +0.380 HD
ENDBRANCH  18  19
ENDBRANCH  16  18
ENDBRANCH   1  13
BRANCH   6  21
ATOM     21  O   LIG    1        2.309   3.879   0.009  0.00  0.00    -0.320 OA
BRANCH  21  22
ATOM     22  C   LIG    1        2.203   5.304   0.023  0.00  0.00    +0.190 C 
BRANCH  22  23
ATOM     23  C   LIG    1        3.603   5.921   0.002  0.00  0.00    +0.080 C 
BRANCH  23  24
ATOM     24  C   LIG    1        3.491   7.423   0.017  0.00  0.00    -0.090 A 
ATOM     25  C   LIG    1        3.423   8.123  -1.174  0.00  0.00    +0.010 A 
ATOM     26  C   LIG    1        3.315   9.501  -1.160  0.00  0.00    +0.000 A 
ATOM     27  C   LIG    1        3.286  10.180   0.043  0.00  0.00    +0.000 A 
ATOM     28  C   LIG    1        3.359   9.481   1.233  0.00  0.00    +0.000 A 
ATOM     29  C   LIG    1        3.461   8.103   1.220  0.00  0.00    +0.010 A 
ENDBRANCH  23  24
ENDBRANCH  22  23
ENDBRANCH  21  22
ENDBRANCH   6  21
TORSDOF 7
