REMARK  Name = ZINCnE000001HF5W.0
REMARK                            x       y       z     vdW  Elec       q    Type
REMARK                         _______ _______ _______ _____ _____    ______ ____
ROOT
ATOM      1  C   LIG    1        2.340   5.714   0.009  0.00  0.00    +0.210 C 
ENDROOT
BRANCH   1   2
ATOM      2  N   LIG    1        2.348   4.249   0.002  0.00  0.00    -0.740 N 
ATOM      3  H   LIG    1        3.190   3.768  -0.008  0.00  0.00    +0.380 HD
ATOM      4  C   LIG    1        1.184   3.570   0.009  0.00  0.00    +0.570 C 
ATOM      5  O   LIG    1        0.128   4.172   0.022  0.00  0.00    -0.510 OA
BRANCH   4   6
ATOM      6  C   LIG    1        1.191   2.094   0.002  0.00  0.00    -0.290 A 
ATOM      7  C   LIG    1        2.402   1.398  -0.014  0.00  0.00    +0.060 A 
ATOM      8  C   LIG    1        2.403   0.020  -0.021  0.00  0.00    -0.170 A 
ATOM      9  C   LIG    1        1.207  -0.680  -0.013  0.00  0.00    +0.060 A 
ATOM     10  C   LIG    1        0.002  -0.004   0.002  0.00  0.00    -0.170 A 
ATOM     11 CL   LIG    1       -1.490  -0.892   0.011  0.00  0.00    -0.110 Cl
ATOM     12  C   LIG    1       -0.017   1.383   0.010  0.00  0.00    +0.310 A 
ATOM     13  O   LIG    1       -1.199   2.049   0.019  0.00  0.00    -0.640 OA
ENDBRANCH   4   6
ENDBRANCH   1   2
BRANCH   1  15
ATOM     14  C   LIG    1        0.871   5.802   2.028  0.00  0.00    +0.020 C 
ATOM     15  C   LIG    1        2.225   6.216   1.450  0.00  0.00    +0.010 C 
ENDBRANCH   1  15
BRANCH   1  16
ATOM     16  C   LIG    1        3.639   6.234  -0.610  0.00  0.00    +0.260 C 
BRANCH  16  17
ATOM     17  C   LIG    1        3.752   5.739  -2.029  0.00  0.00    -0.140 A 
ATOM     18  C   LIG    1        4.472   4.593  -2.306  0.00  0.00    +0.050 A 
ATOM     19  C   LIG    1        4.572   4.136  -3.607  0.00  0.00    +0.010 A 
ATOM     20  C   LIG    1        3.960   4.831  -4.633  0.00  0.00    +0.040 A 
ATOM     21  C   LIG    1        3.244   5.981  -4.359  0.00  0.00    -0.020 A 
ATOM     22  C   LIG    1        3.140   6.437  -3.056  0.00  0.00    +0.110 A 
ATOM     23  F   LIG    1        2.441   7.561  -2.787  0.00  0.00    -0.140 F 
ENDBRANCH  16  17
BRANCH  16  24
ATOM     24  O   LIG    1        4.753   5.759   0.150  0.00  0.00    -0.550 OA
ATOM     25  H   LIG    1        4.820   4.795   0.189  0.00  0.00    +0.370 HD
ENDBRANCH  16  24
ENDBRANCH   1  16
TORSDOF 6
