REMARK  Name = ZINCrg000000nepT.0
REMARK                            x       y       z     vdW  Elec       q    Type
REMARK                         _______ _______ _______ _____ _____    ______ ____
ROOT
ATOM      1  N   LIG    1        3.693   1.449   4.917  0.00  0.00    -0.640 N 
ATOM      2  H   LIG    1        3.303   0.675   5.352  0.00  0.00    +0.420 HD
ATOM      3  C   LIG    1        2.896   2.412   4.413  0.00  0.00    +0.510 C 
ATOM      4  O   LIG    1        3.384   3.423   3.951  0.00  0.00    -0.500 OA
ENDROOT
BRANCH   1   9
ATOM      5  C   LIG    1        7.025   2.294   3.603  0.00  0.00    +0.160 A 
ATOM      6  C   LIG    1        7.837   1.792   4.612  0.00  0.00    +0.010 A 
ATOM      7  C   LIG    1        7.272   1.179   5.715  0.00  0.00    +0.050 A 
ATOM      8  C   LIG    1        5.900   1.064   5.818  0.00  0.00    -0.020 A 
ATOM      9  C   LIG    1        5.082   1.565   4.812  0.00  0.00    +0.160 A 
ATOM     10  C   LIG    1        5.646   2.176   3.701  0.00  0.00    +0.000 A 
BRANCH   5  12
ATOM     11  C   LIG    1        8.765   2.462   1.990  0.00  0.00    +0.520 C 
ATOM     12  N   LIG    1        7.597   2.915   2.487  0.00  0.00    -0.670 N 
ATOM     13  H   LIG    1        7.154   3.671   2.072  0.00  0.00    +0.410 HD
ATOM     14  O   LIG    1        9.362   1.572   2.558  0.00  0.00    -0.520 OA
BRANCH  11  16
ATOM     15  C   LIG    1        9.573   4.558   0.940  0.00  0.00    +0.040 C 
ATOM     16  C   LIG    1        9.330   3.062   0.729  0.00  0.00    -0.010 C 
ATOM     17  C   LIG    1       10.653   2.375   0.384  0.00  0.00    +0.050 C 
ENDBRANCH  11  16
ENDBRANCH   5  12
ENDBRANCH   1   9
BRANCH   3  18
ATOM     18  C   LIG    1        1.413   2.236   4.423  0.00  0.00    +0.510 C 
ATOM     19  N   LIG    1        0.616   3.199   3.919  0.00  0.00    -0.680 N 
ATOM     20  H   LIG    1        1.006   4.007   3.550  0.00  0.00    +0.420 HD
ATOM     21  O   LIG    1        0.926   1.225   4.885  0.00  0.00    -0.520 OA
BRANCH  19  22
ATOM     22  C   LIG    1       -0.838   3.025   3.929  0.00  0.00    +0.240 C 
ATOM     23  C   LIG    1       -1.397   3.475   5.281  0.00  0.00    +0.030 C 
BRANCH  22  24
ATOM     24  C   LIG    1       -1.460   3.869   2.814  0.00  0.00    +0.190 C 
BRANCH  24  25
ATOM     25  N   LIG    1       -0.837   3.520   1.530  0.00  0.00    -0.530 NA
ATOM     26  C   LIG    1       -0.753   2.062   1.365  0.00  0.00    +0.150 C 
ATOM     27  C   LIG    1       -0.046   1.743   0.045  0.00  0.00    +0.220 C 
ATOM     28  O   LIG    1       -0.749   2.371  -1.031  0.00  0.00    -0.380 OA
ATOM     29  C   LIG    1       -0.849   3.792  -0.902  0.00  0.00    +0.220 C 
ATOM     30  C   LIG    1       -1.564   4.131   0.408  0.00  0.00    +0.160 C 
ENDBRANCH  24  25
ENDBRANCH  22  24
ENDBRANCH  19  22
ENDBRANCH   3  18
TORSDOF 7
