REMARK  Name = ZINCrH000004rnEe.0
REMARK                            x       y       z     vdW  Elec       q    Type
REMARK                         _______ _______ _______ _____ _____    ______ ____
ROOT
ATOM      1  N   LIG    1       -3.121   0.572   1.604  0.00  0.00    -0.980 NA
ATOM      2  C   LIG    1       -3.952   1.549   2.312  0.00  0.00    +0.330 C 
ENDROOT
BRANCH   1   3
ATOM      3  S   LIG    1       -2.715   0.826   0.019  0.00  0.00    +2.690 S 
ATOM      4  O   LIG    1       -2.423  -0.453  -0.530  0.00  0.00    -0.960 OA
ATOM      5  O   LIG    1       -3.705   1.693  -0.516  0.00  0.00    -0.950 OA
BRANCH   3   6
ATOM      6  C   LIG    1       -1.202   1.729   0.006  0.00  0.00    -0.660 A 
ATOM      7  C   LIG    1       -0.019   1.057  -0.005  0.00  0.00    +0.170 A 
ATOM      8  C   LIG    1        1.189   1.774  -0.021  0.00  0.00    -0.070 A 
ATOM      9  C   LIG    1        2.429   1.115  -0.039  0.00  0.00    +0.040 A 
ATOM     10  C   LIG    1        3.579   1.843  -0.055  0.00  0.00    +0.010 A 
ATOM     11  C   LIG    1        3.546   3.236  -0.053  0.00  0.00    +0.040 A 
ATOM     12  C   LIG    1        2.363   3.909  -0.036  0.00  0.00    +0.010 A 
ATOM     13  C   LIG    1        1.155   3.192  -0.020  0.00  0.00    -0.010 A 
ATOM     14  C   LIG    1       -0.086   3.851  -0.002  0.00  0.00    +0.010 A 
ATOM     15  C   LIG    1       -1.235   3.123   0.013  0.00  0.00    +0.100 A 
ENDBRANCH   3   6
ENDBRANCH   1   3
BRANCH   1  16
ATOM     16  C   LIG    1       -2.650  -0.629   2.298  0.00  0.00    +0.350 C 
BRANCH  16  19
ATOM     17  N   LIG    1       -0.764  -1.271   3.765  0.00  0.00    -0.670 N 
ATOM     18  H   LIG    1       -1.170  -2.147   3.853  0.00  0.00    +0.410 HD
ATOM     19  C   LIG    1       -1.382  -0.311   3.048  0.00  0.00    +0.480 C 
ATOM     20  O   LIG    1       -0.918   0.809   3.007  0.00  0.00    -0.500 OA
BRANCH  17  25
ATOM     21  C   LIG    1        4.210  -0.184   6.266  0.00  0.00    +0.090 C 
ATOM     22  C   LIG    1        2.889  -0.473   5.602  0.00  0.00    -0.100 A 
ATOM     23  C   LIG    1        2.637  -1.730   5.084  0.00  0.00    +0.030 A 
ATOM     24  C   LIG    1        1.425  -1.999   4.479  0.00  0.00    -0.020 A 
ATOM     25  C   LIG    1        0.463  -1.003   4.382  0.00  0.00    +0.140 A 
ATOM     26  C   LIG    1        0.718   0.259   4.904  0.00  0.00    +0.030 A 
ATOM     27  C   LIG    1        1.930   0.520   5.512  0.00  0.00    -0.070 A 
ATOM     28  C   LIG    1        2.208   1.888   6.079  0.00  0.00    +0.090 C 
ENDBRANCH  17  25
ENDBRANCH  16  19
ENDBRANCH   1  16
TORSDOF 5
