REMARK  Name = ZINCrD00000l1750.0
REMARK                            x       y       z     vdW  Elec       q    Type
REMARK                         _______ _______ _______ _____ _____    ______ ____
ROOT
ATOM      1  C   LIG    1       -0.834   3.082  -1.435  0.00  0.00    +0.490 C 
ATOM      2  O   LIG    1        0.283   3.538  -1.383  0.00  0.00    -0.490 OA
ENDROOT
BRANCH   1   3
ATOM      3  C   LIG    1       -1.150   1.781  -0.743  0.00  0.00    +0.000 C 
ATOM      4  C   LIG    1       -1.136   1.773   0.788  0.00  0.00    +0.100 C 
ATOM      5  C   LIG    1       -0.013   1.086   0.008  0.00  0.00    +0.040 C 
BRANCH   5   6
ATOM      6  C   LIG    1        1.338   1.754  -0.001  0.00  0.00    -0.000 A 
ATOM      7  C   LIG    1        1.483   3.026   0.521  0.00  0.00    +0.050 A 
ATOM      8  C   LIG    1        2.723   3.639   0.512  0.00  0.00    +0.040 A 
ATOM      9  C   LIG    1        3.816   2.980  -0.018  0.00  0.00    +0.010 A 
ATOM     10  C   LIG    1        3.671   1.708  -0.539  0.00  0.00    +0.060 A 
ATOM     11  C   LIG    1        2.433   1.093  -0.527  0.00  0.00    -0.170 A 
BRANCH  11  12
ATOM     12  C   LIG    1        2.275  -0.295  -1.091  0.00  0.00    +0.510 C 
ATOM     13  F   LIG    1        1.357  -0.269  -2.147  0.00  0.00    -0.180 F 
ATOM     14  F   LIG    1        1.810  -1.155  -0.090  0.00  0.00    -0.180 F 
ATOM     15  F   LIG    1        3.512  -0.751  -1.560  0.00  0.00    -0.180 F 
ENDBRANCH  11  12
ENDBRANCH   5   6
ENDBRANCH   1   3
BRANCH   1  16
ATOM     16  O   LIG    1       -1.795   3.735  -2.108  0.00  0.00    -0.330 OA
BRANCH  16  17
ATOM     17  C   LIG    1       -1.419   4.982  -2.750  0.00  0.00    +0.270 C 
BRANCH  17  19
ATOM     18  O   LIG    1       -3.683   4.989  -3.415  0.00  0.00    -0.440 OA
ATOM     19  C   LIG    1       -2.617   5.566  -3.452  0.00  0.00    +0.510 C 
ATOM     20  N   LIG    1       -2.504   6.731  -4.121  0.00  0.00    -0.680 N 
ATOM     21  H   LIG    1       -1.652   7.193  -4.150  0.00  0.00    +0.410 HD
ATOM     22  C   LIG    1       -3.576   7.254  -4.749  0.00  0.00    +0.590 C 
ATOM     23  O   LIG    1       -4.646   6.675  -4.712  0.00  0.00    -0.450 OA
BRANCH  22  24
ATOM     24  C   LIG    1       -3.454   8.520  -5.475  0.00  0.00    -0.290 A 
ATOM     25  C   LIG    1       -4.464   9.149  -6.149  0.00  0.00    +0.120 A 
ATOM     26  C   LIG    1       -4.071  10.324  -6.743  0.00  0.00    +0.000 A 
ATOM     27  C   LIG    1       -2.785  10.649  -6.564  0.00  0.00    -0.040 A 
ATOM     28  S   LIG    1       -1.986   9.478  -5.615  0.00  0.00    +0.200 S 
ENDBRANCH  22  24
ENDBRANCH  17  19
ENDBRANCH  16  17
ENDBRANCH   1  16
TORSDOF 7
