REMARK  Name = ZINCvU0000000Cup.0
REMARK                            x       y       z     vdW  Elec       q    Type
REMARK                         _______ _______ _______ _____ _____    ______ ____
ROOT
ATOM      1  C   LIG    1       -2.514   3.890   0.047  0.00  0.00    +0.500 C 
ATOM      2  O   LIG    1       -3.565   3.279   0.054  0.00  0.00    -0.480 OA
ENDROOT
BRANCH   1   8
ATOM      3  C   LIG    1       -1.226   1.754   0.017  0.00  0.00    -0.040 A 
ATOM      4  C   LIG    1       -0.013   1.076   0.008  0.00  0.00    -0.010 A 
ATOM      5  C   LIG    1        1.173   1.781   0.000  0.00  0.00    +0.070 A 
ATOM      6  C   LIG    1        1.166   3.167   0.008  0.00  0.00    +0.000 A 
ATOM      7  C   LIG    1       -0.026   3.858   0.023  0.00  0.00    +0.100 A 
ATOM      8  C   LIG    1       -1.237   3.159   0.031  0.00  0.00    -0.120 A 
BRANCH   3   9
ATOM      9  S   LIG    1       -2.742   0.856   0.020  0.00  0.00    +0.020 S 
BRANCH   9  10
ATOM     10  C   LIG    1       -2.105  -0.838   0.007  0.00  0.00    +0.120 C 
BRANCH  10  17
ATOM     11  C   LIG    1       -3.601  -2.139   2.576  0.00  0.00    +0.160 C 
ATOM     12  C   LIG    1       -3.914  -2.380   1.122  0.00  0.00    +0.040 A 
ATOM     13  N   LIG    1       -4.846  -3.153   0.642  0.00  0.00    -0.360 NA
ATOM     14  O   LIG    1       -4.852  -3.146  -0.567  0.00  0.00    +0.100 OA
ATOM     15  C   LIG    1       -3.901  -2.340  -1.059  0.00  0.00    -0.010 A 
ATOM     16  C   LIG    1       -3.606  -2.076  -2.514  0.00  0.00    +0.190 C 
ATOM     17  C   LIG    1       -3.258  -1.808   0.008  0.00  0.00    -0.200 A 
ENDBRANCH  10  17
ENDBRANCH   9  10
ENDBRANCH   3   9
ENDBRANCH   1   8
BRANCH   1  18
ATOM     18  O   LIG    1       -2.519   5.238   0.054  0.00  0.00    -0.330 OA
BRANCH  18  19
ATOM     19  C   LIG    1       -3.816   5.892   0.070  0.00  0.00    +0.240 C 
BRANCH  19  20
ATOM     20  C   LIG    1       -3.624   7.387   0.076  0.00  0.00    +0.370 C 
ATOM     21  O   LIG    1       -2.510   7.853   0.068  0.00  0.00    -0.420 OA
BRANCH  20  22
ATOM     22  C   LIG    1       -4.822   8.301   0.093  0.00  0.00    -0.090 C 
ATOM     23  C   LIG    1       -5.677   8.043  -1.150  0.00  0.00    +0.040 C 
ATOM     24  C   LIG    1       -6.894   8.970  -1.133  0.00  0.00    +0.000 C 
ATOM     25  C   LIG    1       -7.724   8.699   0.123  0.00  0.00    +0.020 C 
ATOM     26  C   LIG    1       -6.870   8.957   1.365  0.00  0.00    +0.000 C 
ATOM     27  C   LIG    1       -6.401  10.413   1.369  0.00  0.00    +0.020 C 
ATOM     28  C   LIG    1       -5.570  10.684   0.113  0.00  0.00    -0.010 C 
ATOM     29  C   LIG    1       -6.425  10.427  -1.130  0.00  0.00    +0.020 C 
ATOM     30  C   LIG    1       -5.653   8.029   1.349  0.00  0.00    +0.040 C 
ATOM     31  C   LIG    1       -4.353   9.757   0.096  0.00  0.00    +0.050 C 
ENDBRANCH  20  22
ENDBRANCH  19  20
ENDBRANCH  18  19
ENDBRANCH   1  18
TORSDOF 8
