REMARK  Name = ZINCwl0000000gXk.0
REMARK                            x       y       z     vdW  Elec       q    Type
REMARK                         _______ _______ _______ _____ _____    ______ ____
ROOT
ATOM      1  C   LIG    1        5.630   3.391  -3.082  0.00  0.00    +0.180 C 
ATOM      2  C   LIG    1        4.546   4.208  -3.789  0.00  0.00    +0.080 C 
ATOM      3  C   LIG    1        4.413   5.568  -3.096  0.00  0.00    +0.080 C 
ATOM      4  C   LIG    1        5.771   6.274  -3.105  0.00  0.00    +0.260 C 
ATOM      5  N   LIG    1        6.757   5.454  -2.392  0.00  0.00    -0.380 N 
ATOM      6  H   LIG    1        6.431   5.278  -1.453  0.00  0.00    +0.420 HD
ATOM      7  C   LIG    1        6.943   4.177  -3.091  0.00  0.00    +0.310 C 
ENDROOT
BRANCH   1   8
ATOM      8  N   LIG    1        5.224   3.133  -1.698  0.00  0.00    -0.740 N 
ATOM      9  H   LIG    1        5.772   3.452  -0.964  0.00  0.00    +0.400 HD
ATOM     10  C   LIG    1        4.089   2.452  -1.445  0.00  0.00    +0.520 C 
ATOM     11  O   LIG    1        3.404   2.053  -2.362  0.00  0.00    -0.470 OA
BRANCH  10  12
ATOM     12  C   LIG    1        3.671   2.187  -0.021  0.00  0.00    +0.120 C 
BRANCH  12  13
ATOM     13  C   LIG    1        2.377   1.414  -0.013  0.00  0.00    -0.070 A 
ATOM     14  C   LIG    1        1.171   2.089   0.002  0.00  0.00    +0.050 A 
ATOM     15  C   LIG    1       -0.017   1.384   0.010  0.00  0.00    +0.040 A 
ATOM     16  C   LIG    1        0.002  -0.004   0.002  0.00  0.00    +0.140 A 
ATOM     17  C   LIG    1        1.215  -0.679  -0.013  0.00  0.00    +0.020 A 
ATOM     18  C   LIG    1        2.399   0.032  -0.021  0.00  0.00    +0.070 A 
BRANCH  16  19
ATOM     19  N   LIG    1       -1.202  -0.723   0.010  0.00  0.00    -0.330 N 
ATOM     20  C   LIG    1       -1.356  -2.065   0.004  0.00  0.00    +0.470 A 
ATOM     21  N   LIG    1       -2.641  -2.308   0.016  0.00  0.00    -0.320 NA
ATOM     22  N   LIG    1       -3.309  -1.212   0.028  0.00  0.00    -0.030 NA
ATOM     23  N   LIG    1       -2.508  -0.202   0.032  0.00  0.00    -0.070 NA
ENDBRANCH  16  19
ENDBRANCH  12  13
ENDBRANCH  10  12
ENDBRANCH   1   8
BRANCH   1  24
ATOM     24  C   LIG    1        5.823   2.081  -3.802  0.00  0.00    +0.460 C 
ATOM     25  O   LIG    1        6.690   1.973  -4.637  0.00  0.00    -0.490 OA
BRANCH  24  27
ATOM     26  C   LIG    1        5.275  -0.195  -4.249  0.00  0.00    +0.280 C 
ATOM     27  O   LIG    1        5.032   1.035  -3.516  0.00  0.00    -0.310 OA
ENDBRANCH  24  27
ENDBRANCH   1  24
BRANCH   5  28
ATOM     28  C   LIG    1        8.038   6.171  -2.337  0.00  0.00    +0.320 C 
BRANCH  28  29
ATOM     29  C   LIG    1        7.878   7.423  -1.514  0.00  0.00    -0.160 A 
ATOM     30  C   LIG    1        7.511   8.609  -2.123  0.00  0.00    +0.030 A 
ATOM     31  C   LIG    1        7.359   9.756  -1.367  0.00  0.00    +0.030 A 
ATOM     32  C   LIG    1        7.584   9.720  -0.003  0.00  0.00    +0.060 A 
ATOM     33  C   LIG    1        7.957   8.536   0.605  0.00  0.00    +0.030 A 
ATOM     34  C   LIG    1        8.104   7.388  -0.150  0.00  0.00    +0.040 A 
ENDBRANCH  28  29
ENDBRANCH   5  28
TORSDOF 8
