REMARK  Name = ZINCwl0000000gXk.1
REMARK                            x       y       z     vdW  Elec       q    Type
REMARK                         _______ _______ _______ _____ _____    ______ ____
ROOT
ATOM      1  C   LIG    1       -0.663   1.774  -3.623  0.00  0.00    +0.180 C 
ATOM      2  C   LIG    1       -2.083   1.214  -3.754  0.00  0.00    +0.080 C 
ATOM      3  C   LIG    1       -2.870   1.544  -2.483  0.00  0.00    +0.080 C 
ATOM      4  C   LIG    1       -2.131   0.976  -1.269  0.00  0.00    +0.250 C 
ATOM      5  N   LIG    1       -0.792   1.570  -1.185  0.00  0.00    -0.380 N 
ATOM      6  H   LIG    1       -0.874   2.575  -1.140  0.00  0.00    +0.420 HD
ATOM      7  C   LIG    1       -0.006   1.198  -2.368  0.00  0.00    +0.300 C 
ENDROOT
BRANCH   1   8
ATOM      8  N   LIG    1        0.121   1.399  -4.802  0.00  0.00    -0.720 N 
ATOM      9  H   LIG    1        0.923   0.863  -4.701  0.00  0.00    +0.420 HD
ATOM     10  C   LIG    1       -0.271   1.799  -6.028  0.00  0.00    +0.520 C 
ATOM     11  O   LIG    1       -1.274   2.470  -6.155  0.00  0.00    -0.500 OA
BRANCH  10  12
ATOM     12  C   LIG    1        0.536   1.413  -7.241  0.00  0.00    +0.140 C 
BRANCH  12  13
ATOM     13  C   LIG    1       -0.112   1.982  -8.477  0.00  0.00    -0.070 A 
ATOM     14  C   LIG    1       -1.058   1.242  -9.163  0.00  0.00    +0.060 A 
ATOM     15  C   LIG    1       -1.657   1.762 -10.294  0.00  0.00    +0.020 A 
ATOM     16  C   LIG    1       -1.301   3.025 -10.747  0.00  0.00    +0.140 A 
ATOM     17  C   LIG    1       -0.347   3.764 -10.059  0.00  0.00    +0.040 A 
ATOM     18  C   LIG    1        0.244   3.240  -8.926  0.00  0.00    +0.060 A 
BRANCH  16  19
ATOM     19  N   LIG    1       -1.903   3.554 -11.898  0.00  0.00    -0.330 N 
ATOM     20  C   LIG    1       -2.840   2.970 -12.676  0.00  0.00    +0.470 A 
ATOM     21  N   LIG    1       -3.123   3.807 -13.639  0.00  0.00    -0.320 NA
ATOM     22  N   LIG    1       -2.428   4.881 -13.524  0.00  0.00    -0.030 NA
ATOM     23  N   LIG    1       -1.666   4.809 -12.486  0.00  0.00    -0.070 NA
ENDBRANCH  16  19
ENDBRANCH  12  13
ENDBRANCH  10  12
ENDBRANCH   1   8
BRANCH   1  24
ATOM     24  C   LIG    1       -0.724   3.276  -3.515  0.00  0.00    +0.440 C 
ATOM     25  O   LIG    1       -1.743   3.816  -3.155  0.00  0.00    -0.480 OA
BRANCH  24  27
ATOM     26  C   LIG    1        0.225   5.455  -3.691  0.00  0.00    +0.280 C 
ATOM     27  O   LIG    1        0.355   4.015  -3.818  0.00  0.00    -0.340 OA
ENDBRANCH  24  27
ENDBRANCH   1  24
BRANCH   5  28
ATOM     28  C   LIG    1       -0.116   1.081   0.024  0.00  0.00    +0.320 C 
BRANCH  28  29
ATOM     29  C   LIG    1       -0.854   1.567   1.244  0.00  0.00    -0.160 A 
ATOM     30  C   LIG    1       -0.510   2.772   1.826  0.00  0.00    +0.040 A 
ATOM     31  C   LIG    1       -1.191   3.221   2.942  0.00  0.00    +0.030 A 
ATOM     32  C   LIG    1       -2.209   2.458   3.483  0.00  0.00    +0.060 A 
ATOM     33  C   LIG    1       -2.550   1.250   2.905  0.00  0.00    +0.030 A 
ATOM     34  C   LIG    1       -1.873   0.804   1.785  0.00  0.00    +0.030 A 
ENDBRANCH  28  29
ENDBRANCH   5  28
TORSDOF 8
