REMARK  Name = ZINCpk00000ebmoK.0
REMARK                            x       y       z     vdW  Elec       q    Type
REMARK                         _______ _______ _______ _____ _____    ______ ____
ROOT
ATOM      1  C   LIG    1        2.324   3.310   0.400  0.00  0.00    +0.390 C 
ENDROOT
BRANCH   1   2
ATOM      2  N   LIG    1        1.631   2.083  -0.002  0.00  0.00    -0.980 NA
ATOM      3  C   LIG    1        2.265   0.855  -0.490  0.00  0.00    +0.240 C 
ATOM      4  C   LIG    1        1.267  -0.243  -0.872  0.00  0.00    +0.060 C 
ATOM      5  C   LIG    1        0.002  -0.004   0.002  0.00  0.00    -0.310 C 
ATOM      6  S   LIG    1       -0.023   1.835   0.012  0.00  0.00    +2.560 S 
ATOM      7  O   LIG    1       -0.470   2.342   1.262  0.00  0.00    -0.950 OA
ATOM      8  O   LIG    1       -0.493   2.355  -1.224  0.00  0.00    -0.950 OA
BRANCH   4   9
ATOM      9  C   LIG    1        1.852  -1.600  -0.576  0.00  0.00    -0.070 A 
ATOM     10  C   LIG    1        2.256  -1.913   0.708  0.00  0.00    +0.010 A 
ATOM     11  C   LIG    1        2.788  -3.160   0.980  0.00  0.00    +0.000 A 
ATOM     12  C   LIG    1        2.926  -4.089  -0.034  0.00  0.00    +0.000 A 
ATOM     13  C   LIG    1        2.527  -3.773  -1.319  0.00  0.00    +0.010 A 
ATOM     14  C   LIG    1        1.990  -2.529  -1.590  0.00  0.00    +0.020 A 
ENDBRANCH   4   9
ENDBRANCH   1   2
BRANCH   1  18
ATOM     15  C   LIG    1        3.545   2.983   4.482  0.00  0.00    +0.130 A 
ATOM     16  C   LIG    1        4.392   2.562   3.467  0.00  0.00    -0.020 A 
ATOM     17  C   LIG    1        3.995   2.668   2.149  0.00  0.00    +0.070 A 
ATOM     18  C   LIG    1        2.754   3.194   1.839  0.00  0.00    -0.150 A 
ATOM     19  C   LIG    1        1.911   3.621   2.849  0.00  0.00    +0.080 A 
ATOM     20  C   LIG    1        2.301   3.511   4.169  0.00  0.00    -0.080 A 
BRANCH  15  21
ATOM     21  O   LIG    1        3.934   2.880   5.780  0.00  0.00    -0.290 OA
BRANCH  21  22
ATOM     22  C   LIG    1        3.011   3.334   6.772  0.00  0.00    +0.240 C 
BRANCH  22  26
ATOM     23  N   LIG    1        2.914   3.503   9.238  0.00  0.00    -0.850 N 
ATOM     24  H   LIG    1        3.300   3.380  10.119  0.00  0.00    +0.410 HD
ATOM     25  H   LIG    1        2.027   3.885   9.146  0.00  0.00    +0.400 HD
ATOM     26  C   LIG    1        3.610   3.143   8.141  0.00  0.00    +0.520 C 
ATOM     27  O   LIG    1        4.719   2.665   8.257  0.00  0.00    -0.520 OA
ENDBRANCH  22  26
ENDBRANCH  21  22
ENDBRANCH  15  21
ENDBRANCH   1  18
TORSDOF 6
