REMARK  Name = ZINCvU0000000IM2.0
REMARK                            x       y       z     vdW  Elec       q    Type
REMARK                         _______ _______ _______ _____ _____    ______ ____
ROOT
ATOM      1  C   LIG    1        4.208   1.891  -0.164  0.00  0.00    +0.510 C 
ATOM      2  O   LIG    1        5.091   1.094  -0.409  0.00  0.00    -0.480 OA
ENDROOT
BRANCH   1   3
ATOM      3  C   LIG    1        2.828   1.416   0.072  0.00  0.00    -0.100 A 
ATOM      4  C   LIG    1        1.836   2.312   0.461  0.00  0.00    +0.090 A 
ATOM      5  C   LIG    1        0.547   1.863   0.681  0.00  0.00    +0.020 A 
ATOM      6  C   LIG    1        0.233   0.525   0.517  0.00  0.00    +0.060 A 
ATOM      7  C   LIG    1        1.205  -0.379   0.131  0.00  0.00    +0.040 A 
ATOM      8  C   LIG    1        2.509   0.055  -0.095  0.00  0.00    -0.080 A 
BRANCH   8   9
ATOM      9  C   LIG    1        3.552  -0.908  -0.507  0.00  0.00    +0.450 C 
ATOM     10  O   LIG    1        4.039  -1.664   0.311  0.00  0.00    -0.430 OA
BRANCH   9  11
ATOM     11  C   LIG    1        4.003  -0.952  -1.913  0.00  0.00    -0.140 A 
ATOM     12  C   LIG    1        3.351  -0.187  -2.883  0.00  0.00    +0.040 A 
ATOM     13  C   LIG    1        3.781  -0.228  -4.193  0.00  0.00    +0.000 A 
ATOM     14  C   LIG    1        4.848  -1.034  -4.549  0.00  0.00    +0.040 A 
ATOM     15  C   LIG    1        5.495  -1.800  -3.595  0.00  0.00    +0.000 A 
ATOM     16  C   LIG    1        5.079  -1.764  -2.280  0.00  0.00    +0.070 A 
ENDBRANCH   9  11
ENDBRANCH   8   9
ENDBRANCH   1   3
BRANCH   1  17
ATOM     17  O   LIG    1        4.486   3.208  -0.107  0.00  0.00    -0.330 OA
BRANCH  17  18
ATOM     18  C   LIG    1        5.862   3.603  -0.349  0.00  0.00    +0.320 C 
BRANCH  18  19
ATOM     19  C   LIG    1        5.981   5.101  -0.244  0.00  0.00    +0.460 C 
ATOM     20  O   LIG    1        5.006   5.769   0.008  0.00  0.00    -0.480 OA
BRANCH  19  21
ATOM     21  O   LIG    1        7.170   5.695  -0.432  0.00  0.00    -0.340 OA
BRANCH  21  28
ATOM     22  C   LIG    1        8.308   7.696  -1.226  0.00  0.00    +0.010 C 
ATOM     23  C   LIG    1        9.660   7.113  -0.809  0.00  0.00    +0.020 C 
ATOM     24  C   LIG    1        9.956   7.500   0.641  0.00  0.00    +0.010 C 
ATOM     25  C   LIG    1        8.859   6.946   1.552  0.00  0.00    -0.020 C 
ATOM     26  C   LIG    1        7.507   7.529   1.134  0.00  0.00    +0.020 C 
ATOM     27  C   LIG    1        9.155   7.334   3.002  0.00  0.00    +0.010 C 
ATOM     28  C   LIG    1        7.211   7.141  -0.316  0.00  0.00    +0.190 C 
BRANCH  22  30
ATOM     29  C   LIG    1        6.660   7.891  -3.094  0.00  0.00    +0.020 C 
ATOM     30  C   LIG    1        8.012   7.308  -2.676  0.00  0.00    -0.010 C 
ATOM     31  C   LIG    1        9.109   7.862  -3.587  0.00  0.00    +0.020 C 
ENDBRANCH  22  30
ENDBRANCH  21  28
ENDBRANCH  19  21
ENDBRANCH  18  19
ENDBRANCH  17  18
ENDBRANCH   1  17
TORSDOF 9
