REMARK  Name = ZINCrD000000fuDm.0
REMARK                            x       y       z     vdW  Elec       q    Type
REMARK                         _______ _______ _______ _____ _____    ______ ____
ROOT
ATOM      1  N   LIG    1       -1.365   2.965   1.156  0.00  0.00    -0.510 N 
ATOM      2  C   LIG    1       -1.852   2.542   2.341  0.00  0.00    +0.570 A 
ATOM      3  C   LIG    1       -1.875   3.482   3.476  0.00  0.00    -0.160 A 
ATOM      4  C   LIG    1       -2.362   3.097   4.724  0.00  0.00    +0.130 A 
ATOM      5  C   LIG    1       -2.371   4.006   5.761  0.00  0.00    +0.020 A 
ATOM      6  C   LIG    1       -1.900   5.294   5.568  0.00  0.00    +0.100 A 
ATOM      7  C   LIG    1       -1.416   5.688   4.336  0.00  0.00    +0.000 A 
ATOM      8  C   LIG    1       -1.398   4.788   3.282  0.00  0.00    +0.170 A 
ATOM      9  N   LIG    1       -0.914   5.158   2.029  0.00  0.00    -0.440 N 
ATOM     10  C   LIG    1       -0.400   6.341   1.571  0.00  0.00    +0.210 A 
ATOM     11  N   LIG    1       -0.084   6.184   0.309  0.00  0.00    -0.280 NA
ATOM     12  N   LIG    1       -0.400   4.870  -0.057  0.00  0.00    -0.310 NA
ATOM     13  O   LIG    1       -2.261   1.404   2.470  0.00  0.00    -0.480 OA
ATOM     14  C   LIG    1       -0.901   4.262   0.996  0.00  0.00    +0.460 A 
ENDROOT
BRANCH   1  15
ATOM     15  C   LIG    1       -1.331   2.042   0.019  0.00  0.00    +0.360 C 
BRANCH  15  17
ATOM     16  C   LIG    1        0.002  -0.004   0.002  0.00  0.00    +0.060 C 
ATOM     17  C   LIG    1       -0.016   1.306   0.009  0.00  0.00    -0.080 C 
ENDBRANCH  15  17
ENDBRANCH   1  15
BRANCH  10  18
ATOM     18  S   LIG    1       -0.200   7.818   2.512  0.00  0.00    +0.030 S 
BRANCH  18  19
ATOM     19  C   LIG    1        0.520   8.972   1.312  0.00  0.00    +0.150 C 
BRANCH  19  20
ATOM     20  C   LIG    1        0.755  10.304   1.976  0.00  0.00    -0.040 A 
ATOM     21  C   LIG    1        1.958  10.564   2.599  0.00  0.00    +0.040 A 
ATOM     22  C   LIG    1        2.175  11.787   3.209  0.00  0.00    +0.050 A 
ATOM     23  C   LIG    1        1.189  12.757   3.198  0.00  0.00    +0.030 A 
ATOM     24  C   LIG    1       -0.019  12.511   2.579  0.00  0.00    +0.070 A 
ATOM     25  C   LIG    1       -0.242  11.282   1.956  0.00  0.00    -0.010 A 
BRANCH  25  26
ATOM     26  C   LIG    1       -1.491  11.021   1.306  0.00  0.00    +0.240 C 
ATOM     27  N   LIG    1       -2.482  10.815   0.789  0.00  0.00    -0.400 NA
ENDBRANCH  25  26
ENDBRANCH  19  20
ENDBRANCH  18  19
ENDBRANCH  10  18
TORSDOF 6
