REMARK  Name = ZINCpk000000o5Dq.0
REMARK                            x       y       z     vdW  Elec       q    Type
REMARK                         _______ _______ _______ _____ _____    ______ ____
ROOT
ATOM      1  C   LIG    1        1.185   2.058   0.002  0.00  0.00    +0.130 A 
ATOM      2  C   LIG    1        2.359   1.320  -0.008  0.00  0.00    -0.080 A 
ATOM      3  C   LIG    1        3.580   1.966  -0.021  0.00  0.00    +0.060 A 
ATOM      4  C   LIG    1        3.633   3.348  -0.015  0.00  0.00    -0.110 A 
ATOM      5  C   LIG    1        2.464   4.086   0.000  0.00  0.00    +0.070 A 
ATOM      6  C   LIG    1        1.240   3.444   0.009  0.00  0.00    -0.010 A 
ENDROOT
BRANCH   1   7
ATOM      7  O   LIG    1       -0.017   1.425   0.010  0.00  0.00    -0.290 OA
BRANCH   7   8
ATOM      8  C   LIG    1        0.002  -0.004   0.002  0.00  0.00    +0.220 C 
BRANCH   8  11
ATOM      9  N   LIG    1       -1.640  -1.854   0.008  0.00  0.00    -0.720 N 
ATOM     10  H   LIG    1       -0.894  -2.474  -0.003  0.00  0.00    +0.400 HD
ATOM     11  C   LIG    1       -1.412  -0.526   0.013  0.00  0.00    +0.520 C 
ATOM     12  O   LIG    1       -2.344   0.250   0.026  0.00  0.00    -0.510 OA
BRANCH   9  17
ATOM     13  C   LIG    1       -1.764  -5.700   2.471  0.00  0.00    +0.010 C 
ATOM     14  C   LIG    1       -2.659  -4.764   1.657  0.00  0.00    -0.020 C 
ATOM     15  C   LIG    1       -2.151  -4.697   0.215  0.00  0.00    +0.010 C 
ATOM     16  C   LIG    1       -3.046  -3.761  -0.599  0.00  0.00    +0.020 C 
ATOM     17  C   LIG    1       -3.014  -2.361   0.018  0.00  0.00    +0.240 C 
ATOM     18  C   LIG    1       -3.523  -2.427   1.460  0.00  0.00    +0.010 C 
ATOM     19  C   LIG    1       -2.627  -3.364   2.274  0.00  0.00    +0.010 C 
ENDBRANCH   9  17
ENDBRANCH   8  11
ENDBRANCH   7   8
ENDBRANCH   1   7
BRANCH   4  20
ATOM     20  C   LIG    1        4.966   4.050  -0.024  0.00  0.00    +0.100 C 
BRANCH  20  21
ATOM     21  C   LIG    1        5.424   4.276   1.394  0.00  0.00    +0.510 C 
ATOM     22  N   LIG    1        6.599   4.893   1.632  0.00  0.00    -0.730 N 
ATOM     23  H   LIG    1        7.149   5.190   0.891  0.00  0.00    +0.400 HD
ATOM     24  O   LIG    1        4.736   3.904   2.321  0.00  0.00    -0.530 OA
BRANCH  22  25
ATOM     25  C   LIG    1        7.044   5.113   3.010  0.00  0.00    +0.280 C 
BRANCH  25  26
ATOM     26  C   LIG    1        8.398   5.826   3.001  0.00  0.00    +0.170 C 
BRANCH  26  27
ATOM     27  O   LIG    1        8.245   7.131   2.440  0.00  0.00    -0.570 OA
ATOM     28  H   LIG    1        9.065   7.642   2.403  0.00  0.00    +0.380 HD
ENDBRANCH  26  27
ENDBRANCH  25  26
ENDBRANCH  22  25
ENDBRANCH  20  21
ENDBRANCH   4  20
TORSDOF 9
