REMARK  Name = ZINCrD00000hQ793.0
REMARK                            x       y       z     vdW  Elec       q    Type
REMARK                         _______ _______ _______ _____ _____    ______ ____
ROOT
ATOM      1  C   LIG    1       -0.328  -2.185  -0.006  0.00  0.00    +0.260 A 
ATOM      2  N   LIG    1        0.974  -1.976  -0.018  0.00  0.00    -0.500 NA
ATOM      3  C   LIG    1        1.225  -0.667  -0.013  0.00  0.00    +0.330 A 
ATOM      4  C   LIG    1        0.002  -0.004   0.002  0.00  0.00    -0.150 A 
ATOM      5  C   LIG    1       -0.017   1.401   0.010  0.00  0.00    +0.600 A 
ATOM      6  N   LIG    1        1.150   2.078   0.002  0.00  0.00    -0.650 N 
ATOM      7  H   LIG    1        1.140   3.048   0.007  0.00  0.00    +0.440 HD
ATOM      8  C   LIG    1        2.327   1.428  -0.013  0.00  0.00    +0.710 A 
ATOM      9  O   LIG    1        3.359   2.071  -0.019  0.00  0.00    -0.530 OA
ATOM     10  O   LIG    1       -1.077   2.003   0.018  0.00  0.00    -0.510 OA
ATOM     11  N   LIG    1        2.390   0.083  -0.020  0.00  0.00    -0.510 N 
ATOM     12  C   LIG    1        3.693  -0.588  -0.036  0.00  0.00    +0.350 C 
ATOM     13  N   LIG    1       -0.977  -0.989   0.006  0.00  0.00    -0.390 N 
ENDROOT
BRANCH   1  14
ATOM     14  S   LIG    1       -1.106  -3.766  -0.008  0.00  0.00    +0.010 S 
BRANCH  14  15
ATOM     15  C   LIG    1        0.354  -4.835  -0.028  0.00  0.00    +0.100 C 
BRANCH  15  16
ATOM     16  C   LIG    1       -0.086  -6.300  -0.032  0.00  0.00    +0.030 C 
BRANCH  16  17
ATOM     17  C   LIG    1        1.148  -7.204  -0.049  0.00  0.00    +0.030 C 
BRANCH  17  19
ATOM     18  C   LIG    1        1.942  -9.573  -0.070  0.00  0.00    +0.010 C 
ATOM     19  C   LIG    1        0.707  -8.669  -0.053  0.00  0.00    -0.010 C 
ENDBRANCH  17  19
ENDBRANCH  16  17
ENDBRANCH  15  16
ENDBRANCH  14  15
ENDBRANCH   1  14
BRANCH  13  20
ATOM     20  C   LIG    1       -2.427  -0.781   0.021  0.00  0.00    +0.310 C 
BRANCH  20  21
ATOM     21  C   LIG    1       -2.946  -0.701  -1.416  0.00  0.00    +0.030 C 
BRANCH  21  22
ATOM     22  C   LIG    1       -4.460  -0.483  -1.399  0.00  0.00    +0.080 C 
BRANCH  22  23
ATOM     23  C   LIG    1       -4.971  -0.404  -2.815  0.00  0.00    -0.080 A 
ATOM     24  C   LIG    1       -5.041   0.818  -3.457  0.00  0.00    +0.000 A 
ATOM     25  C   LIG    1       -5.505   0.890  -4.757  0.00  0.00    +0.000 A 
ATOM     26  C   LIG    1       -5.910  -0.258  -5.411  0.00  0.00    +0.000 A 
ATOM     27  C   LIG    1       -5.845  -1.480  -4.767  0.00  0.00    +0.000 A 
ATOM     28  C   LIG    1       -5.376  -1.552  -3.469  0.00  0.00    +0.000 A 
ENDBRANCH  22  23
ENDBRANCH  21  22
ENDBRANCH  20  21
ENDBRANCH  13  20
TORSDOF 9
