REMARK  Name = ZINCrD0000072ku6.0
REMARK                            x       y       z     vdW  Elec       q    Type
REMARK                         _______ _______ _______ _____ _____    ______ ____
ROOT
ATOM      1  C   LIG    1       -2.410   8.410  -0.649  0.00  0.00    +0.520 C 
ATOM      2  N   LIG    1       -2.527   9.737  -0.850  0.00  0.00    -0.660 N 
ATOM      3  H   LIG    1       -1.864  10.344  -0.484  0.00  0.00    +0.420 HD
ATOM      4  O   LIG    1       -3.289   7.661  -1.019  0.00  0.00    -0.490 OA
ENDROOT
BRANCH   2   5
ATOM      5  C   LIG    1       -3.605  10.242  -1.589  0.00  0.00    +0.130 A 
ATOM      6  C   LIG    1       -4.245   9.439  -2.521  0.00  0.00    +0.140 A 
ATOM      7  C   LIG    1       -5.312   9.937  -3.245  0.00  0.00    -0.060 A 
ATOM      8  C   LIG    1       -5.738  11.238  -3.050  0.00  0.00    +0.130 A 
ATOM      9  C   LIG    1       -5.101  12.046  -2.126  0.00  0.00    -0.030 A 
ATOM     10  C   LIG    1       -4.034  11.553  -1.393  0.00  0.00    +0.150 A 
BRANCH   7  11
ATOM     11  N   LIG    1       -5.998   9.078  -4.237  0.00  0.00    +0.030 N 
ATOM     12  O   LIG    1       -5.624   7.931  -4.410  0.00  0.00    -0.150 OA
ATOM     13  O   LIG    1       -6.935   9.517  -4.879  0.00  0.00    -0.160 OA
ENDBRANCH   7  11
BRANCH  10  14
ATOM     14  O   LIG    1       -3.406  12.346  -0.484  0.00  0.00    -0.310 OA
ATOM     15  C   LIG    1       -3.900  13.679  -0.336  0.00  0.00    +0.270 C 
ENDBRANCH  10  14
ENDBRANCH   2   5
BRANCH   1  16
ATOM     16  C   LIG    1       -1.188   7.856   0.037  0.00  0.00    +0.200 C 
ATOM     17  C   LIG    1       -1.143   8.357   1.482  0.00  0.00    +0.070 C 
BRANCH  16  18
ATOM     18  O   LIG    1       -1.243   6.405   0.029  0.00  0.00    -0.320 OA
BRANCH  18  19
ATOM     19  C   LIG    1       -0.068   5.748   0.004  0.00  0.00    +0.510 C 
ATOM     20  O   LIG    1        0.976   6.370  -0.010  0.00  0.00    -0.500 OA
BRANCH  19  24
ATOM     21  C   LIG    1       -0.008   1.502  -0.025  0.00  0.00    -0.040 A 
ATOM     22  C   LIG    1       -1.218   2.174  -0.004  0.00  0.00    +0.000 A 
ATOM     23  C   LIG    1       -1.244   3.553   0.011  0.00  0.00    +0.090 A 
ATOM     24  C   LIG    1       -0.047   4.271  -0.005  0.00  0.00    -0.140 A 
ATOM     25  C   LIG    1        1.170   3.587  -0.031  0.00  0.00    +0.090 A 
ATOM     26  C   LIG    1        1.182   2.208  -0.040  0.00  0.00    +0.000 A 
BRANCH  21  28
ATOM     27  C   LIG    1        0.045  -0.525   1.403  0.00  0.00    +0.030 C 
ATOM     28  C   LIG    1        0.013  -0.005  -0.036  0.00  0.00    +0.070 C 
ENDBRANCH  21  28
ENDBRANCH  19  24
ENDBRANCH  18  19
ENDBRANCH  16  18
ENDBRANCH   1  16
TORSDOF 8
