REMARK  Name = ZINCpe000000YyjD.0
REMARK                            x       y       z     vdW  Elec       q    Type
REMARK                         _______ _______ _______ _____ _____    ______ ____
ROOT
ATOM      1  C   LIG    1        2.186   4.636  -2.974  0.00  0.00    +0.530 C 
ATOM      2  N   LIG    1        1.634   3.925  -1.971  0.00  0.00    -0.660 N 
ATOM      3  H   LIG    1        1.013   3.207  -2.171  0.00  0.00    +0.410 HD
ATOM      4  O   LIG    1        3.037   5.466  -2.731  0.00  0.00    -0.500 OA
ENDROOT
BRANCH   2   5
ATOM      5  C   LIG    1        1.956   4.223  -0.641  0.00  0.00    +0.160 A 
ATOM      6  C   LIG    1        2.392   5.494  -0.299  0.00  0.00    +0.020 A 
ATOM      7  C   LIG    1        2.715   5.784   1.014  0.00  0.00    +0.040 A 
ATOM      8  C   LIG    1        2.598   4.812   1.990  0.00  0.00    +0.000 A 
ATOM      9  C   LIG    1        2.158   3.544   1.659  0.00  0.00    +0.040 A 
ATOM     10  C   LIG    1        1.832   3.244   0.344  0.00  0.00    +0.110 A 
BRANCH  10  11
ATOM     11  N   LIG    1        1.387   1.959   0.007  0.00  0.00    -0.580 N 
ATOM     12  C   LIG    1       -0.021   1.543   0.012  0.00  0.00    +0.260 C 
ATOM     13  C   LIG    1        0.006  -0.001   0.011  0.00  0.00    +0.060 C 
ATOM     14  C   LIG    1        1.376  -0.292  -0.644  0.00  0.00    +0.070 C 
ATOM     15  C   LIG    1        2.193   0.950  -0.364  0.00  0.00    +0.520 C 
ATOM     16  O   LIG    1        3.400   1.023  -0.458  0.00  0.00    -0.510 OA
ENDBRANCH  10  11
ENDBRANCH   2   5
BRANCH   1  17
ATOM     17  C   LIG    1        1.747   4.401  -4.396  0.00  0.00    +0.100 C 
BRANCH  17  18
ATOM     18  S   LIG    1        2.666   5.500  -5.501  0.00  0.00    +0.120 S 
BRANCH  18  23
ATOM     19  C   LIG    1        0.517   3.723  -8.268  0.00  0.00    +0.640 A 
ATOM     20  N   LIG    1        0.929   4.309  -9.388  0.00  0.00    -0.660 NA
ATOM     21  C   LIG    1        1.864   5.253  -9.339  0.00  0.00    +0.640 A 
ATOM     22  N   LIG    1        2.386   5.612  -8.171  0.00  0.00    -0.620 NA
ATOM     23  C   LIG    1        1.974   5.026  -7.051  0.00  0.00    +0.390 A 
ATOM     24  N   LIG    1        1.043   4.077  -7.100  0.00  0.00    -0.650 NA
BRANCH  19  25
ATOM     25  N   LIG    1       -0.453   2.743  -8.319  0.00  0.00    -0.810 N 
ATOM     26  H   LIG    1       -0.754   2.315  -7.503  0.00  0.00    +0.420 HD
ATOM     27  H   LIG    1       -0.834   2.482  -9.172  0.00  0.00    +0.420 HD
ENDBRANCH  19  25
BRANCH  21  28
ATOM     28  N   LIG    1        2.292   5.861 -10.502  0.00  0.00    -0.800 N 
ATOM     29  H   LIG    1        1.911   5.600 -11.355  0.00  0.00    +0.420 HD
ATOM     30  H   LIG    1        2.974   6.551 -10.467  0.00  0.00    +0.420 HD
ENDBRANCH  21  28
ENDBRANCH  18  23
ENDBRANCH  17  18
ENDBRANCH   1  17
TORSDOF 7
