REMARK  Name = ZINCpe00000bAoqk.1
REMARK                            x       y       z     vdW  Elec       q    Type
REMARK                         _______ _______ _______ _____ _____    ______ ____
ROOT
ATOM      1  C   LIG    1        3.424   2.408  -0.651  0.00  0.00    -0.090 C 
ATOM      2  C   LIG    1        2.494   3.604  -0.959  0.00  0.00    +0.050 C 
ATOM      3  C   LIG    1        1.305   3.374   0.001  0.00  0.00    +0.280 C 
ATOM      4  N   LIG    1        1.143   1.901   0.001  0.00  0.00    -0.600 N 
ATOM      5  C   LIG    1       -0.014   1.212   0.009  0.00  0.00    +0.620 C 
ATOM      6  O   LIG    1        0.002  -0.004   0.002  0.00  0.00    -0.540 OA
ATOM      7  C   LIG    1        4.520   2.822   0.332  0.00  0.00    +0.050 C 
ATOM      8  C   LIG    1        2.509   1.345  -0.015  0.00  0.00    +0.260 C 
ENDROOT
BRANCH   5   9
ATOM      9  C   LIG    1       -1.302   1.932   0.019  0.00  0.00    +0.010 A 
ATOM     10  C   LIG    1       -2.542   1.358   0.016  0.00  0.00    +0.190 A 
ATOM     11  N   LIG    1       -3.452   2.371   0.032  0.00  0.00    -0.360 N 
ATOM     12  C   LIG    1       -4.819   2.379   0.038  0.00  0.00    +0.220 A 
ATOM     13  C   LIG    1       -5.499   3.543   0.048  0.00  0.00    +0.030 A 
ATOM     14  C   LIG    1       -4.810   4.768   0.051  0.00  0.00    +0.050 A 
ATOM     15  C   LIG    1       -3.451   4.777   0.044  0.00  0.00    +0.080 A 
ATOM     16  C   LIG    1       -2.751   3.551   0.034  0.00  0.00    +0.230 A 
ATOM     17  N   LIG    1       -1.459   3.269   0.026  0.00  0.00    -0.470 NA
ENDBRANCH   5   9
BRANCH   1  18
ATOM     18  C   LIG    1        4.044   1.871  -1.942  0.00  0.00    +0.280 C 
BRANCH  18  20
ATOM     19  C   LIG    1        5.513   0.052  -2.629  0.00  0.00    +0.510 C 
ATOM     20  N   LIG    1        4.865   0.696  -1.638  0.00  0.00    -0.730 N 
ATOM     21  H   LIG    1        4.941   0.381  -0.724  0.00  0.00    +0.400 HD
ATOM     22  O   LIG    1        5.417   0.445  -3.772  0.00  0.00    -0.520 OA
BRANCH  19  23
ATOM     23  C   LIG    1        6.357  -1.157  -2.316  0.00  0.00    +0.190 C 
BRANCH  23  25
ATOM     24  C   LIG    1        7.964  -2.698  -3.267  0.00  0.00    +0.190 C 
ATOM     25  N   LIG    1        6.953  -1.673  -3.556  0.00  0.00    -0.530 NA
ATOM     26  C   LIG    1        5.918  -2.193  -4.460  0.00  0.00    +0.200 C 
ENDBRANCH  23  25
ENDBRANCH  19  23
ENDBRANCH  18  20
ENDBRANCH   1  18
TORSDOF 5
