REMARK  Name = ZINCpe000000UVYT.0
REMARK                            x       y       z     vdW  Elec       q    Type
REMARK                         _______ _______ _______ _____ _____    ______ ____
ROOT
ATOM      1  C   LIG    1        0.096   1.191   0.025  0.00  0.00    +0.220 C 
ATOM      2  C   LIG    1       -0.566   1.822  -1.204  0.00  0.00    +0.040 C 
ATOM      3  C   LIG    1        0.144   1.335  -2.469  0.00  0.00    +0.020 C 
ATOM      4  C   LIG    1        1.610   1.772  -2.433  0.00  0.00    +0.010 C 
ATOM      5  C   LIG    1        2.298   1.140  -1.218  0.00  0.00    +0.280 C 
ATOM      6  N   LIG    1        1.535   1.485  -0.011  0.00  0.00    -0.600 N 
ATOM      7  C   LIG    1        2.145   2.062   1.044  0.00  0.00    +0.500 C 
ATOM      8  O   LIG    1        1.531   2.242   2.075  0.00  0.00    -0.490 OA
ENDROOT
BRANCH   1  12
ATOM      9  C   LIG    1       -1.668   1.514   3.407  0.00  0.00    +0.290 C 
ATOM     10  N   LIG    1       -1.082   0.953   2.187  0.00  0.00    -0.730 N 
ATOM     11  H   LIG    1       -1.107  -0.004   2.032  0.00  0.00    +0.400 HD
ATOM     12  C   LIG    1       -0.506   1.768   1.280  0.00  0.00    +0.530 C 
ATOM     13  O   LIG    1       -0.474   2.964   1.474  0.00  0.00    -0.520 OA
ENDBRANCH   1  12
BRANCH   7  14
ATOM     14  C   LIG    1        3.588   2.482   0.944  0.00  0.00    +0.370 C 
BRANCH  14  15
ATOM     15  N   LIG    1        4.013   3.078   2.213  0.00  0.00    -0.410 N 
ATOM     16  N   LIG    1        3.867   4.453   2.400  0.00  0.00    -0.230 NA
ATOM     17  C   LIG    1        4.215   5.052   3.499  0.00  0.00    +0.140 A 
ATOM     18  C   LIG    1        4.798   4.284   4.599  0.00  0.00    -0.060 A 
ATOM     19  C   LIG    1        5.190   4.890   5.794  0.00  0.00    +0.040 A 
ATOM     20  C   LIG    1        5.734   4.121   6.799  0.00  0.00    +0.050 A 
ATOM     21  C   LIG    1        5.896   2.751   6.637  0.00  0.00    +0.030 A 
ATOM     22  C   LIG    1        5.516   2.131   5.467  0.00  0.00    +0.090 A 
ATOM     23  C   LIG    1        4.963   2.889   4.436  0.00  0.00    -0.120 A 
ATOM     24  C   LIG    1        4.024   6.541   3.639  0.00  0.00    +0.180 C 
ATOM     25  C   LIG    1        4.540   2.283   3.167  0.00  0.00    +0.540 A 
ATOM     26  O   LIG    1        4.662   1.086   2.980  0.00  0.00    -0.520 OA
ENDBRANCH  14  15
ENDBRANCH   7  14
TORSDOF 3
