REMARK  Name = ZINCrH000004kXPy.0
REMARK                            x       y       z     vdW  Elec       q    Type
REMARK                         _______ _______ _______ _____ _____    ______ ____
ROOT
ATOM      1  C   LIG    1        6.230   6.290  -0.229  0.00  0.00    +0.260 C 
ENDROOT
BRANCH   1   4
ATOM      2  N   LIG    1        8.700   6.357  -0.347  0.00  0.00    -0.630 N 
ATOM      3  H   LIG    1        8.693   5.388  -0.384  0.00  0.00    +0.420 HD
ATOM      4  C   LIG    1        7.539   7.036  -0.264  0.00  0.00    +0.510 C 
ATOM      5  O   LIG    1        7.548   8.248  -0.218  0.00  0.00    -0.470 OA
BRANCH   2   9
ATOM      6  C   LIG    1       11.808   8.643  -0.411  0.00  0.00    -0.340 A 
ATOM      7  C   LIG    1       12.185   7.329  -0.480  0.00  0.00    +0.150 A 
ATOM      8  C   LIG    1       11.128   6.456  -0.462  0.00  0.00    -0.060 A 
ATOM      9  C   LIG    1        9.906   7.045  -0.380  0.00  0.00    +0.020 A 
ATOM     10  S   LIG    1       10.055   8.743  -0.329  0.00  0.00    +0.380 S 
BRANCH   6  11
ATOM     11  C   LIG    1       12.693   9.750  -0.411  0.00  0.00    +0.540 C 
ATOM     12  O   LIG    1       13.894   9.568  -0.476  0.00  0.00    -0.510 OA
BRANCH  11  14
ATOM     13  C   LIG    1       13.152  12.073  -0.343  0.00  0.00    +0.260 C 
ATOM     14  O   LIG    1       12.203  11.005  -0.338  0.00  0.00    -0.360 OA
ENDBRANCH  11  14
ENDBRANCH   6  11
ENDBRANCH   2   9
ENDBRANCH   1   4
BRANCH   1  15
ATOM     15  O   LIG    1        5.152   7.223  -0.140  0.00  0.00    -0.290 OA
BRANCH  15  16
ATOM     16  C   LIG    1        3.893   6.710  -0.098  0.00  0.00    +0.130 A 
ATOM     17  C   LIG    1        2.800   7.561  -0.012  0.00  0.00    +0.010 A 
ATOM     18  C   LIG    1        1.522   7.040   0.031  0.00  0.00    +0.070 A 
ATOM     19  C   LIG    1        1.331   5.666  -0.013  0.00  0.00    +0.060 A 
ATOM     20  C   LIG    1        2.424   4.816  -0.094  0.00  0.00    +0.050 A 
ATOM     21  C   LIG    1        3.702   5.337  -0.142  0.00  0.00    -0.060 A 
BRANCH  19  22
ATOM     22  O   LIG    1        0.072   5.153   0.030  0.00  0.00    -0.250 OA
BRANCH  22  23
ATOM     23  C   LIG    1       -0.677   5.209  -1.100  0.00  0.00    +0.310 A 
ATOM     24  C   LIG    1       -1.928   4.606  -1.126  0.00  0.00    -0.040 A 
ATOM     25  C   LIG    1       -2.685   4.675  -2.283  0.00  0.00    +0.100 A 
ATOM     26  C   LIG    1       -2.155   5.338  -3.381  0.00  0.00    -0.070 A 
ATOM     27  C   LIG    1       -0.904   5.914  -3.284  0.00  0.00    +0.300 A 
ATOM     28  N   LIG    1       -0.208   5.837  -2.166  0.00  0.00    -0.530 NA
ENDBRANCH  22  23
ENDBRANCH  19  22
ENDBRANCH  15  16
ENDBRANCH   1  15
TORSDOF 8
