REMARK  Name = ZINCpe00000yiUIQ.0
REMARK                            x       y       z     vdW  Elec       q    Type
REMARK                         _______ _______ _______ _____ _____    ______ ____
ROOT
ATOM      1  N   LIG    1       -2.719   1.728   2.156  0.00  0.00    -0.710 N 
ATOM      2  H   LIG    1       -2.023   1.831   1.488  0.00  0.00    +0.410 HD
ATOM      3  C   LIG    1       -4.009   1.637   1.777  0.00  0.00    +0.570 C 
ATOM      4  O   LIG    1       -4.881   1.507   2.614  0.00  0.00    -0.530 OA
ENDROOT
BRANCH   3   5
ATOM      5  C   LIG    1       -4.364   1.695   0.342  0.00  0.00    +0.060 A 
ATOM      6  C   LIG    1       -5.702   1.600  -0.041  0.00  0.00    +0.050 A 
ATOM      7  C   LIG    1       -6.025   1.655  -1.384  0.00  0.00    +0.050 A 
ATOM      8  C   LIG    1       -4.989   1.806  -2.310  0.00  0.00    -0.010 A 
ATOM      9  C   LIG    1       -3.672   1.894  -1.850  0.00  0.00    +0.250 A 
ATOM     10  N   LIG    1       -3.406   1.843  -0.566  0.00  0.00    -0.450 NA
BRANCH   8  11
ATOM     11  C   LIG    1       -5.284   1.871  -3.762  0.00  0.00    -0.210 A 
ATOM     12  C   LIG    1       -4.369   2.015  -4.766  0.00  0.00    +0.280 A 
ATOM     13  N   LIG    1       -5.043   2.028  -5.932  0.00  0.00    -0.470 N 
ATOM     14  H   LIG    1       -4.650   2.119  -6.815  0.00  0.00    +0.450 HD
ATOM     15  N   LIG    1       -6.407   1.889  -5.652  0.00  0.00    -0.290 NA
ATOM     16  C   LIG    1       -6.558   1.789  -4.359  0.00  0.00    +0.260 A 
ENDBRANCH   8  11
ENDBRANCH   3   5
BRANCH   1  17
ATOM     17  C   LIG    1       -2.367   1.670   3.577  0.00  0.00    +0.320 C 
BRANCH  17  18
ATOM     18  C   LIG    1       -0.845   1.669   3.726  0.00  0.00    +0.080 C 
ATOM     19  C   LIG    1       -0.220   0.573   4.591  0.00  0.00    +0.050 C 
ATOM     20  C   LIG    1       -0.071   0.523   3.069  0.00  0.00    +0.060 C 
BRANCH  18  22
ATOM     21  C   LIG    1       -0.457   3.840   4.760  0.00  0.00    +0.520 C 
ATOM     22  N   LIG    1       -0.211   2.989   3.745  0.00  0.00    -0.700 N 
ATOM     23  H   LIG    1        0.387   3.251   3.027  0.00  0.00    +0.400 HD
ATOM     24  O   LIG    1       -1.273   3.551   5.610  0.00  0.00    -0.500 OA
BRANCH  21  25
ATOM     25  C   LIG    1        0.280   5.152   4.840  0.00  0.00    +0.210 C 
BRANCH  25  26
ATOM     26  O   LIG    1       -0.152   5.872   5.996  0.00  0.00    -0.360 OA
BRANCH  26  28
ATOM     27  C   LIG    1       -0.048   7.816   7.428  0.00  0.00    +0.060 C 
ATOM     28  C   LIG    1        0.489   7.138   6.166  0.00  0.00    +0.160 C 
ENDBRANCH  26  28
ENDBRANCH  25  26
ENDBRANCH  21  25
ENDBRANCH  18  22
ENDBRANCH  17  18
ENDBRANCH   1  17
TORSDOF 8
