REMARK  Name = ZINCpk00000KfLHO.0
REMARK                            x       y       z     vdW  Elec       q    Type
REMARK                         _______ _______ _______ _____ _____    ______ ____
ROOT
ATOM      1  C   LIG    1       -6.423   2.905  -0.972  0.00  0.00    +0.510 C 
ATOM      2  N   LIG    1       -5.730   2.350   0.042  0.00  0.00    -0.600 N 
ATOM      3  C   LIG    1       -5.246   3.187   1.143  0.00  0.00    +0.290 C 
ATOM      4  O   LIG    1       -6.824   2.213  -1.883  0.00  0.00    -0.530 OA
ENDROOT
BRANCH   2   5
ATOM      5  C   LIG    1       -5.460   0.910   0.043  0.00  0.00    +0.230 C 
ATOM      6  C   LIG    1       -4.645   0.545   1.286  0.00  0.00    +0.020 C 
ATOM      7  C   LIG    1       -3.321   1.312   1.271  0.00  0.00    +0.020 C 
ATOM      8  C   LIG    1       -2.531   0.941   0.015  0.00  0.00    +0.030 C 
ATOM      9  C   LIG    1       -3.346   1.306  -1.228  0.00  0.00    +0.020 C 
ATOM     10  C   LIG    1       -4.669   0.539  -1.213  0.00  0.00    +0.020 C 
BRANCH   8  11
ATOM     11  C   LIG    1       -1.227   1.696   0.000  0.00  0.00    -0.080 A 
ATOM     12  C   LIG    1       -0.029   1.006  -0.010  0.00  0.00    +0.000 A 
ATOM     13  C   LIG    1        1.167   1.699  -0.029  0.00  0.00    +0.000 A 
ATOM     14  C   LIG    1        1.165   3.082  -0.033  0.00  0.00    +0.000 A 
ATOM     15  C   LIG    1       -0.033   3.771  -0.018  0.00  0.00    +0.000 A 
ATOM     16  C   LIG    1       -1.229   3.078   0.002  0.00  0.00    +0.000 A 
ENDBRANCH   8  11
ENDBRANCH   2   5
BRANCH   1  17
ATOM     17  C   LIG    1       -6.701   4.387  -0.973  0.00  0.00    +0.300 C 
BRANCH  17  19
ATOM     18  C   LIG    1       -7.828   6.019  -2.387  0.00  0.00    +0.510 C 
ATOM     19  N   LIG    1       -7.464   4.740  -2.173  0.00  0.00    -0.710 N 
ATOM     20  H   LIG    1       -7.707   4.052  -2.812  0.00  0.00    +0.420 HD
ATOM     21  O   LIG    1       -7.524   6.879  -1.588  0.00  0.00    -0.540 OA
BRANCH  18  22
ATOM     22  C   LIG    1       -8.613   6.382  -3.621  0.00  0.00    +0.300 C 
BRANCH  22  25
ATOM     23  C   LIG    1       -9.854   9.858  -4.638  0.00  0.00    +0.110 C 
ATOM     24  C   LIG    1       -9.576   8.377  -4.636  0.00  0.00    +0.510 C 
ATOM     25  N   LIG    1       -8.883   7.822  -3.623  0.00  0.00    -0.720 N 
ATOM     26  H   LIG    1       -8.563   8.376  -2.893  0.00  0.00    +0.410 HD
ATOM     27  O   LIG    1       -9.976   7.685  -5.548  0.00  0.00    -0.550 OA
ENDBRANCH  22  25
ENDBRANCH  18  22
ENDBRANCH  17  19
ENDBRANCH   1  17
TORSDOF 6
