REMARK  Name = ZINCqH0000007Q6u.0
REMARK                            x       y       z     vdW  Elec       q    Type
REMARK                         _______ _______ _______ _____ _____    ______ ____
ROOT
ATOM      1  N   LIG    1        3.627  -0.864   0.000  0.00  0.00    -0.490 N 
ATOM      2  C   LIG    1        4.385  -0.599   1.231  0.00  0.00    +0.180 C 
ATOM      3  C   LIG    1        5.674  -1.427   1.221  0.00  0.00    +0.290 C 
ATOM      4  N   LIG    1        6.399  -1.148  -0.028  0.00  0.00    -0.600 N 
ATOM      5  C   LIG    1        5.666  -1.259  -1.298  0.00  0.00    +0.310 C 
ATOM      6  C   LIG    1        7.701  -0.799  -0.008  0.00  0.00    +0.580 C 
ATOM      7  O   LIG    1        8.309  -0.659  -1.053  0.00  0.00    -0.510 OA
ATOM      8  C   LIG    1        4.377  -0.437  -1.189  0.00  0.00    +0.180 C 
ENDROOT
BRANCH   6   9
ATOM      9  C   LIG    1        8.386  -0.588   1.274  0.00  0.00    +0.060 A 
ATOM     10  C   LIG    1        8.806  -1.574   2.113  0.00  0.00    -0.080 A 
ATOM     11  C   LIG    1        9.432  -0.918   3.258  0.00  0.00    -0.100 A 
ATOM     12  C   LIG    1       10.043  -1.387   4.426  0.00  0.00    +0.070 A 
ATOM     13  C   LIG    1       10.541  -0.498   5.334  0.00  0.00    -0.010 A 
ATOM     14  C   LIG    1       10.448   0.869   5.109  0.00  0.00    +0.050 A 
ATOM     15  C   LIG    1        9.852   1.354   3.966  0.00  0.00    +0.000 A 
ATOM     16  C   LIG    1        9.335   0.468   3.025  0.00  0.00    +0.120 A 
ATOM     17 CL   LIG    1        8.634  -3.284   1.868  0.00  0.00    -0.020 Cl
ATOM     18  N   LIG    1        8.699   0.642   1.819  0.00  0.00    -0.560 N 
ATOM     19  H   LIG    1        8.500   1.500   1.413  0.00  0.00    +0.430 HD
ENDBRANCH   6   9
BRANCH   1  25
ATOM     20  C   LIG    1        1.214  -1.034   0.042  0.00  0.00    +0.160 A 
ATOM     21  C   LIG    1       -0.029  -0.426   0.086  0.00  0.00    -0.080 A 
ATOM     22  C   LIG    1       -0.123   0.954   0.133  0.00  0.00    +0.050 A 
ATOM     23  C   LIG    1        1.022   1.728   0.136  0.00  0.00    -0.030 A 
ATOM     24  C   LIG    1        2.267   1.128   0.092  0.00  0.00    +0.010 A 
ATOM     25  C   LIG    1        2.368  -0.254   0.045  0.00  0.00    +0.050 A 
BRANCH  20  27
ATOM     26  C   LIG    1        0.082  -3.126  -0.004  0.00  0.00    +0.220 C 
ATOM     27  O   LIG    1        1.307  -2.390  -0.004  0.00  0.00    -0.290 OA
ENDBRANCH  20  27
ENDBRANCH   1  25
TORSDOF 3
