REMARK  Name = ZINCvU0000000Jaq.0
REMARK                            x       y       z     vdW  Elec       q    Type
REMARK                         _______ _______ _______ _____ _____    ______ ____
ROOT
ATOM      1  C   LIG    1        4.402   0.848  -0.040  0.00  0.00    +0.150 A 
ATOM      2  N   LIG    1        3.605  -0.188   0.097  0.00  0.00    -0.280 NA
ATOM      3  N   LIG    1        2.381   0.199   0.140  0.00  0.00    -0.250 NA
ATOM      4  C   LIG    1        2.319   1.505   0.025  0.00  0.00    +0.220 A 
ATOM      5  N   LIG    1        3.612   1.962  -0.090  0.00  0.00    -0.450 N 
ENDROOT
BRANCH   4   6
ATOM      6  C   LIG    1        1.093   2.330   0.026  0.00  0.00    -0.050 A 
ATOM      7  C   LIG    1        1.166   3.696  -0.251  0.00  0.00    +0.050 A 
ATOM      8  C   LIG    1        0.018   4.460  -0.249  0.00  0.00    +0.010 A 
ATOM      9  C   LIG    1       -1.206   3.877   0.028  0.00  0.00    +0.060 A 
ATOM     10  C   LIG    1       -1.289   2.523   0.298  0.00  0.00    -0.010 A 
ATOM     11  C   LIG    1       -0.147   1.746   0.305  0.00  0.00    +0.140 A 
ATOM     12  F   LIG    1       -0.228   0.425   0.575  0.00  0.00    -0.110 F 
ENDBRANCH   4   6
BRANCH   1  13
ATOM     13  S   LIG    1        6.160   0.809  -0.140  0.00  0.00    +0.080 S 
BRANCH  13  14
ATOM     14  C   LIG    1        6.443  -0.973  -0.002  0.00  0.00    +0.060 C 
BRANCH  14  15
ATOM     15  C   LIG    1        6.005  -1.447   1.360  0.00  0.00    -0.090 A 
ATOM     16  C   LIG    1        6.600  -0.930   2.496  0.00  0.00    +0.030 A 
ATOM     17  C   LIG    1        6.195  -1.362   3.745  0.00  0.00    +0.000 A 
ATOM     18  C   LIG    1        5.202  -2.317   3.858  0.00  0.00    +0.010 A 
ATOM     19  C   LIG    1        4.611  -2.838   2.722  0.00  0.00    +0.000 A 
ATOM     20  C   LIG    1        5.013  -2.403   1.473  0.00  0.00    +0.060 A 
ENDBRANCH  14  15
BRANCH  14  22
ATOM     21  N   LIG    1        8.306  -2.477  -0.624  0.00  0.00    -0.600 N 
ATOM     22  C   LIG    1        7.910  -1.265  -0.187  0.00  0.00    +0.540 C 
ATOM     23  O   LIG    1        8.734  -0.409   0.056  0.00  0.00    -0.520 OA
BRANCH  21  25
ATOM     24  C   LIG    1        6.884  -3.406  -2.384  0.00  0.00    +0.010 C 
ATOM     25  C   LIG    1        7.311  -3.511  -0.919  0.00  0.00    +0.270 C 
ENDBRANCH  21  25
BRANCH  21  26
ATOM     26  C   LIG    1        9.732  -2.760  -0.805  0.00  0.00    +0.280 C 
ATOM     27  C   LIG    1       10.309  -3.324   0.496  0.00  0.00    +0.020 C 
ENDBRANCH  21  26
ENDBRANCH  14  22
ENDBRANCH  13  14
ENDBRANCH   1  13
BRANCH   5  28
ATOM     28  C   LIG    1        4.050   3.352  -0.236  0.00  0.00    +0.310 C 
BRANCH  28  29
ATOM     29  C   LIG    1        3.954   3.765  -1.706  0.00  0.00    -0.040 C 
ATOM     30  C   LIG    1        4.953   2.951  -2.531  0.00  0.00    +0.040 C 
ATOM     31  C   LIG    1        4.276   5.255  -1.839  0.00  0.00    +0.040 C 
ENDBRANCH  28  29
ENDBRANCH   5  28
TORSDOF 9
