REMARK  Name = ZINCpk00000e9pe6.0
REMARK                            x       y       z     vdW  Elec       q    Type
REMARK                         _______ _______ _______ _____ _____    ______ ____
ROOT
ATOM      1  N   LIG    1        1.057   1.904   0.002  0.00  0.00    -0.290 N 
ATOM      2  C   LIG    1       -0.013   1.076   0.008  0.00  0.00    +0.140 A 
ATOM      3  C   LIG    1       -1.114   1.882   0.017  0.00  0.00    +0.040 A 
ATOM      4  N   LIG    1       -0.654   3.146   0.025  0.00  0.00    -0.260 NA
ATOM      5  N   LIG    1        0.632   3.119   0.013  0.00  0.00    -0.060 NA
ENDROOT
BRANCH   3   6
ATOM      6  C   LIG    1       -2.534   1.450   0.019  0.00  0.00    -0.180 A 
ATOM      7  C   LIG    1       -2.871   0.095   0.007  0.00  0.00    +0.380 A 
ATOM      8  N   LIG    1       -4.147  -0.250   0.015  0.00  0.00    -0.560 NA
ATOM      9  C   LIG    1       -5.099   0.671   0.024  0.00  0.00    +0.560 A 
ATOM     10  N   LIG    1       -4.820   1.966   0.031  0.00  0.00    -0.560 NA
ATOM     11  C   LIG    1       -3.568   2.390   0.029  0.00  0.00    +0.410 A 
BRANCH   9  12
ATOM     12  N   LIG    1       -6.424   0.269   0.026  0.00  0.00    -0.590 N 
ATOM     13  C   LIG    1       -6.756  -1.158   0.018  0.00  0.00    +0.310 C 
ATOM     14  C   LIG    1       -7.494   1.270   0.036  0.00  0.00    +0.300 C 
ENDBRANCH   9  12
ENDBRANCH   3   6
BRANCH   1  15
ATOM     15  C   LIG    1        2.462   1.489  -0.013  0.00  0.00    +0.360 C 
BRANCH  15  18
ATOM     16  C   LIG    1        4.330   1.671  -2.910  0.00  0.00    +0.030 C 
ATOM     17  C   LIG    1        2.843   1.493  -2.552  0.00  0.00    +0.070 C 
ATOM     18  C   LIG    1        3.174   2.143  -1.198  0.00  0.00    +0.090 C 
ATOM     19  F   LIG    1        3.054   3.537  -1.201  0.00  0.00    -0.160 F 
ATOM     20  C   LIG    1        4.616   1.649  -1.399  0.00  0.00    +0.090 C 
BRANCH  16  21
ATOM     21  C   LIG    1        4.919   0.501  -3.654  0.00  0.00    +0.470 C 
ATOM     22  O   LIG    1        5.547  -0.341  -3.056  0.00  0.00    -0.500 OA
BRANCH  21  23
ATOM     23  O   LIG    1        4.746   0.393  -4.981  0.00  0.00    -0.350 OA
BRANCH  23  25
ATOM     24  C   LIG    1        5.041  -0.711  -7.131  0.00  0.00    +0.070 C 
ATOM     25  C   LIG    1        5.342  -0.760  -5.632  0.00  0.00    +0.200 C 
ENDBRANCH  23  25
ENDBRANCH  21  23
ENDBRANCH  16  21
ENDBRANCH  15  18
ENDBRANCH   1  15
TORSDOF 7
