REMARK  Name = ZINCrD000000Aa1t.0
REMARK                            x       y       z     vdW  Elec       q    Type
REMARK                         _______ _______ _______ _____ _____    ______ ____
ROOT
ATOM      1  O   LIG    1        1.555  -1.623  -0.346  0.00  0.00    -0.530 OA
ATOM      2  C   LIG    1        0.837  -0.646  -0.381  0.00  0.00    +0.520 C 
ATOM      3  N   LIG    1        1.371   0.576  -0.578  0.00  0.00    -0.520 N 
ATOM      4  H   LIG    1        0.796   1.357  -0.610  0.00  0.00    +0.430 HD
ENDROOT
BRANCH   3   5
ATOM      5  N   LIG    1        2.755   0.718  -0.741  0.00  0.00    -0.520 N 
ATOM      6  H   LIG    1        3.329  -0.064  -0.712  0.00  0.00    +0.430 HD
ATOM      7  C   LIG    1        3.289   1.939  -0.937  0.00  0.00    +0.560 C 
ATOM      8  O   LIG    1        2.570   2.919  -0.973  0.00  0.00    -0.520 OA
BRANCH   7   9
ATOM      9  C   LIG    1        4.747   2.089  -1.109  0.00  0.00    -0.160 A 
ATOM     10  C   LIG    1        5.577   0.966  -1.068  0.00  0.00    +0.060 A 
ATOM     11  C   LIG    1        6.939   1.112  -1.229  0.00  0.00    +0.000 A 
ATOM     12  C   LIG    1        7.488   2.368  -1.431  0.00  0.00    +0.070 A 
ATOM     13  C   LIG    1        6.678   3.486  -1.472  0.00  0.00    -0.020 A 
ATOM     14  C   LIG    1        5.306   3.357  -1.319  0.00  0.00    +0.180 A 
BRANCH  14  15
ATOM     15  O   LIG    1        4.509   4.453  -1.366  0.00  0.00    -0.480 OA
ATOM     16  H   LIG    1        4.370   4.875  -0.507  0.00  0.00    +0.400 HD
ENDBRANCH  14  15
ENDBRANCH   7   9
ENDBRANCH   3   5
BRANCH   2  17
ATOM     17  C   LIG    1       -0.652  -0.798  -0.206  0.00  0.00    +0.090 C 
BRANCH  17  18
ATOM     18  C   LIG    1       -0.993  -2.276  -0.001  0.00  0.00    +0.110 C 
BRANCH  18  19
ATOM     19  C   LIG    1       -2.489  -2.443   0.052  0.00  0.00    -0.080 A 
ATOM     20  C   LIG    1       -3.241  -1.673   0.920  0.00  0.00    +0.010 A 
ATOM     21  C   LIG    1       -4.614  -1.823   0.965  0.00  0.00    +0.000 A 
ATOM     22  C   LIG    1       -5.235  -2.751   0.149  0.00  0.00    +0.000 A 
ATOM     23  C   LIG    1       -4.483  -3.525  -0.715  0.00  0.00    +0.000 A 
ATOM     24  C   LIG    1       -3.110  -3.371  -0.764  0.00  0.00    +0.010 A 
ENDBRANCH  18  19
BRANCH  18  25
ATOM     25  C   LIG    1       -0.388  -2.756   1.293  0.00  0.00    -0.060 A 
ATOM     26  C   LIG    1        0.391  -3.898   1.310  0.00  0.00    +0.030 A 
ATOM     27  C   LIG    1        0.950  -4.336   2.497  0.00  0.00    +0.000 A 
ATOM     28  C   LIG    1        0.722  -3.637   3.667  0.00  0.00    +0.000 A 
ATOM     29  C   LIG    1       -0.061  -2.498   3.651  0.00  0.00    +0.000 A 
ATOM     30  C   LIG    1       -0.616  -2.057   2.464  0.00  0.00    +0.000 A 
ENDBRANCH  18  25
ENDBRANCH  17  18
ENDBRANCH   2  17
TORSDOF 7
