REMARK  Name = ZINCrD00000F5LxZ.0
REMARK                            x       y       z     vdW  Elec       q    Type
REMARK                         _______ _______ _______ _____ _____    ______ ____
ROOT
ATOM      1  C   LIG    1        0.127  -8.624  -1.828  0.00  0.00    +0.240 C 
ATOM      2  N   LIG    1        0.027  -7.189  -2.107  0.00  0.00    -0.570 NA
ATOM      3  C   LIG    1        0.089  -6.324  -1.125  0.00  0.00    +0.340 A 
ATOM      4  S   LIG    1        0.290  -6.668   0.603  0.00  0.00    -0.020 S 
ATOM      5  C   LIG    1        0.265  -4.965   1.093  0.00  0.00    +0.000 A 
ATOM      6  C   LIG    1        0.105  -4.263  -0.036  0.00  0.00    +0.180 A 
ATOM      7  N   LIG    1        0.014  -4.960  -1.212  0.00  0.00    -0.360 N 
ENDROOT
BRANCH   6   8
ATOM      8  C   LIG    1        0.035  -2.786  -0.015  0.00  0.00    -0.070 A 
ATOM      9  C   LIG    1        1.035  -2.030  -0.626  0.00  0.00    +0.090 A 
ATOM     10  C   LIG    1        0.964  -0.652  -0.610  0.00  0.00    -0.010 A 
ATOM     11  C   LIG    1       -0.095  -0.015   0.022  0.00  0.00    +0.140 A 
ATOM     12  C   LIG    1       -1.095  -0.760   0.633  0.00  0.00    -0.030 A 
ATOM     13  C   LIG    1       -1.035  -2.142   0.617  0.00  0.00    +0.150 A 
BRANCH  11  14
ATOM     14  O   LIG    1       -0.157   1.342   0.038  0.00  0.00    -0.500 OA
ATOM     15  H   LIG    1        0.279   1.747   0.801  0.00  0.00    +0.400 HD
ENDBRANCH  11  14
BRANCH  13  16
ATOM     16  O   LIG    1       -2.013  -2.873   1.214  0.00  0.00    -0.490 OA
ATOM     17  H   LIG    1       -2.750  -3.095   0.629  0.00  0.00    +0.390 HD
ENDBRANCH  13  16
ENDBRANCH   6   8
BRANCH   7  18
ATOM     18  N   LIG    1       -0.150  -4.309  -2.441  0.00  0.00    -0.250 NA
ATOM     19  C   LIG    1       -0.352  -5.003  -3.524  0.00  0.00    +0.350 C 
BRANCH  19  20
ATOM     20  C   LIG    1       -0.388  -4.336  -4.826  0.00  0.00    -0.010 A 
ATOM     21  C   LIG    1       -0.332  -2.991  -5.051  0.00  0.00    +0.120 A 
ATOM     22  N   LIG    1       -0.389  -2.786  -6.367  0.00  0.00    -0.450 NA
ATOM     23  C   LIG    1       -0.486  -3.942  -6.987  0.00  0.00    +0.180 A 
ATOM     24  S   LIG    1       -0.616  -4.718  -8.573  0.00  0.00    +0.180 S 
ATOM     25  C   LIG    1       -0.669  -6.362  -7.915  0.00  0.00    -0.160 A 
ATOM     26  C   LIG    1       -0.588  -6.222  -6.603  0.00  0.00    +0.210 A 
ATOM     27  C   LIG    1       -0.782  -7.651  -8.688  0.00  0.00    +0.190 C 
ATOM     28  C   LIG    1       -0.223  -1.922  -3.995  0.00  0.00    +0.170 C 
ATOM     29  N   LIG    1       -0.491  -4.955  -6.079  0.00  0.00    -0.400 N 
ENDBRANCH  19  20
ENDBRANCH   7  18
TORSDOF 5
