REMARK  Name = ZINCpe00000MJLIq.0
REMARK                            x       y       z     vdW  Elec       q    Type
REMARK                         _______ _______ _______ _____ _____    ______ ____
ROOT
ATOM      1  C   LIG    1       -1.164   3.122   1.212  0.00  0.00    +0.160 C 
ATOM      2  C   LIG    1       -0.183   1.922   1.326  0.00  0.00    +0.070 C 
ATOM      3  C   LIG    1        0.044   1.521  -0.146  0.00  0.00    +0.190 C 
ATOM      4  N   LIG    1       -1.102   2.029  -0.922  0.00  0.00    -0.450 N 
ATOM      5  C   LIG    1       -2.038   2.701   0.005  0.00  0.00    +0.210 C 
ENDROOT
BRANCH   4   6
ATOM      6  C   LIG    1       -1.731   1.006  -1.604  0.00  0.00    +0.450 A 
ATOM      7  C   LIG    1       -1.179   0.483  -2.790  0.00  0.00    -0.280 A 
ATOM      8  C   LIG    1       -0.024   0.759  -3.553  0.00  0.00    +0.300 A 
ATOM      9  N   LIG    1       -0.005  -0.044  -4.578  0.00  0.00    -0.250 NA
ATOM     10  N   LIG    1       -1.131  -0.878  -4.545  0.00  0.00    -0.380 N 
ATOM     11  C   LIG    1       -1.461  -1.913  -5.528  0.00  0.00    +0.360 C 
ATOM     12  C   LIG    1       -1.865  -0.560  -3.442  0.00  0.00    +0.360 A 
ATOM     13  N   LIG    1       -3.003  -1.009  -2.914  0.00  0.00    -0.550 NA
ATOM     14  C   LIG    1       -3.479  -0.489  -1.804  0.00  0.00    +0.400 A 
ATOM     15  C   LIG    1       -4.770  -1.031  -1.248  0.00  0.00    +0.190 C 
ATOM     16  N   LIG    1       -2.868   0.487  -1.155  0.00  0.00    -0.550 NA
ENDBRANCH   4   6
BRANCH   3  17
ATOM     17  C   LIG    1        0.118   0.021  -0.264  0.00  0.00    +0.520 C 
ATOM     18  N   LIG    1        1.289  -0.575  -0.567  0.00  0.00    -0.610 N 
ATOM     19  C   LIG    1        2.563   0.116  -0.813  0.00  0.00    +0.230 C 
ATOM     20  C   LIG    1        3.614  -0.964  -1.144  0.00  0.00    +0.040 C 
ATOM     21  C   LIG    1        2.744  -2.154  -1.629  0.00  0.00    +0.040 C 
ATOM     22  C   LIG    1        1.502  -2.026  -0.713  0.00  0.00    +0.250 C 
ATOM     23  O   LIG    1       -0.876  -0.651  -0.087  0.00  0.00    -0.520 OA
ENDBRANCH   3  17
BRANCH   1  25
ATOM     24  C   LIG    1       -2.464   4.569   2.612  0.00  0.00    +0.210 C 
ATOM     25  O   LIG    1       -1.954   3.252   2.396  0.00  0.00    -0.370 OA
ENDBRANCH   1  25
TORSDOF 3
