REMARK  Name = ZINCrH000004kMzY.0
REMARK                            x       y       z     vdW  Elec       q    Type
REMARK                         _______ _______ _______ _____ _____    ______ ____
ROOT
ATOM      1  N   LIG    1       -0.011   0.966   0.007  0.00  0.00    -0.620 N 
ATOM      2  H   LIG    1        0.002  -0.004   0.002  0.00  0.00    +0.420 HD
ATOM      3  C   LIG    1        1.147   1.655   0.000  0.00  0.00    +0.600 C 
ATOM      4  O   LIG    1        1.130   2.870   0.007  0.00  0.00    -0.480 OA
ENDROOT
BRANCH   1   6
ATOM      5  C   LIG    1       -2.448   1.039   0.019  0.00  0.00    -0.180 A 
ATOM      6  C   LIG    1       -1.220   1.642   0.017  0.00  0.00    +0.040 A 
ATOM      7  S   LIG    1       -1.381   3.337   0.034  0.00  0.00    +0.310 S 
ATOM      8  C   LIG    1       -3.135   3.255   0.035  0.00  0.00    -0.240 A 
ATOM      9  C   LIG    1       -4.059   4.457   0.045  0.00  0.00    +0.120 C 
ATOM     10  C   LIG    1       -5.462   4.003  -0.367  0.00  0.00    +0.020 C 
ATOM     11  C   LIG    1       -5.858   2.782   0.469  0.00  0.00    +0.020 C 
ATOM     12  C   LIG    1       -5.017   1.580   0.034  0.00  0.00    +0.100 C 
ATOM     13  C   LIG    1       -3.551   1.983   0.029  0.00  0.00    -0.040 A 
BRANCH   5  14
ATOM     14  C   LIG    1       -2.632  -0.413   0.012  0.00  0.00    +0.530 C 
ATOM     15  O   LIG    1       -2.703  -1.023   1.062  0.00  0.00    -0.490 OA
BRANCH  14  17
ATOM     16  C   LIG    1       -2.903  -2.515  -1.091  0.00  0.00    +0.270 C 
ATOM     17  O   LIG    1       -2.722  -1.076  -1.160  0.00  0.00    -0.350 OA
ENDBRANCH  14  17
ENDBRANCH   5  14
ENDBRANCH   1   6
BRANCH   3  18
ATOM     18  C   LIG    1        2.441   0.932  -0.016  0.00  0.00    -0.020 A 
ATOM     19  N   LIG    1        2.615  -0.368  -0.025  0.00  0.00    -0.320 NA
ATOM     20  O   LIG    1        3.787  -0.663  -0.038  0.00  0.00    +0.140 OA
ATOM     21  C   LIG    1        4.575   0.427  -0.039  0.00  0.00    +0.030 A 
ATOM     22  C   LIG    1        3.738   1.508  -0.031  0.00  0.00    +0.030 A 
BRANCH  21  23
ATOM     23  C   LIG    1        6.053   0.451  -0.053  0.00  0.00    -0.080 A 
ATOM     24  C   LIG    1        6.784  -0.743  -0.066  0.00  0.00    +0.100 A 
ATOM     25  C   LIG    1        8.166  -0.665  -0.078  0.00  0.00    -0.020 A 
ATOM     26  C   LIG    1        8.775   0.577  -0.077  0.00  0.00    +0.290 A 
ATOM     27  N   LIG    1        8.060   1.685  -0.065  0.00  0.00    -0.480 NA
ATOM     28  C   LIG    1        6.743   1.664  -0.059  0.00  0.00    +0.300 A 
ENDBRANCH  21  23
ENDBRANCH   3  18
TORSDOF 5
