REMARK  Name = ZINCrH000004r1YE.0
REMARK                            x       y       z     vdW  Elec       q    Type
REMARK                         _______ _______ _______ _____ _____    ______ ____
ROOT
ATOM      1  S   LIG    1       -6.221   0.504  -2.398  0.00  0.00    +0.120 S 
ENDROOT
BRANCH   1   6
ATOM      2  N   LIG    1       -8.424   1.358  -3.893  0.00  0.00    -0.310 N 
ATOM      3  N   LIG    1       -8.620   2.210  -4.994  0.00  0.00    -0.070 NA
ATOM      4  N   LIG    1       -7.460   2.660  -5.330  0.00  0.00    -0.030 NA
ATOM      5  N   LIG    1       -6.552   2.187  -4.555  0.00  0.00    -0.330 NA
ATOM      6  C   LIG    1       -7.082   1.381  -3.661  0.00  0.00    +0.200 A 
BRANCH   2  11
ATOM      7  C   LIG    1      -12.373  -1.546  -1.032  0.00  0.00    +0.100 C 
ATOM      8  C   LIG    1      -11.325  -0.775  -1.791  0.00  0.00    -0.060 A 
ATOM      9  C   LIG    1      -10.169  -1.409  -2.208  0.00  0.00    +0.030 A 
ATOM     10  C   LIG    1       -9.208  -0.706  -2.909  0.00  0.00    +0.050 A 
ATOM     11  C   LIG    1       -9.400   0.641  -3.186  0.00  0.00    +0.100 A 
ATOM     12  C   LIG    1      -10.562   1.275  -2.766  0.00  0.00    -0.050 A 
ATOM     13  C   LIG    1      -10.776   2.735  -3.069  0.00  0.00    +0.110 C 
ATOM     14  C   LIG    1      -11.521   0.565  -2.070  0.00  0.00    +0.030 A 
ENDBRANCH   2  11
ENDBRANCH   1   6
BRANCH   1  15
ATOM     15  C   LIG    1       -4.527   1.041  -2.741  0.00  0.00    +0.010 C 
ATOM     16  C   LIG    1       -4.095   0.520  -4.113  0.00  0.00    +0.090 C 
BRANCH  15  17
ATOM     17  C   LIG    1       -3.603   0.497  -1.683  0.00  0.00    +0.540 C 
ATOM     18  N   LIG    1       -2.442   1.127  -1.413  0.00  0.00    -0.710 N 
ATOM     19  H   LIG    1       -2.202   1.931  -1.900  0.00  0.00    +0.400 HD
ATOM     20  O   LIG    1       -3.904  -0.507  -1.073  0.00  0.00    -0.520 OA
BRANCH  18  21
ATOM     21  C   LIG    1       -1.544   0.598  -0.383  0.00  0.00    +0.240 C 
ATOM     22  C   LIG    1       -1.977   1.120   0.988  0.00  0.00    +0.000 C 
ATOM     23  C   LIG    1       -1.039   0.567   2.063  0.00  0.00    +0.020 C 
ATOM     24  C   LIG    1        0.393   1.021   1.773  0.00  0.00    +0.010 C 
ATOM     25  C   LIG    1        0.826   0.500   0.402  0.00  0.00    -0.010 C 
ATOM     26  C   LIG    1        2.258   0.954   0.111  0.00  0.00    +0.030 C 
ATOM     27  C   LIG    1       -0.112   1.052  -0.673  0.00  0.00    -0.010 C 
ATOM     28  C   LIG    1        0.320   0.530  -2.045  0.00  0.00    +0.020 C 
ENDBRANCH  18  21
ENDBRANCH  15  17
ENDBRANCH   1  15
TORSDOF 5
