REMARK  Name = ZINCrH000004mueT.0
REMARK                            x       y       z     vdW  Elec       q    Type
REMARK                         _______ _______ _______ _____ _____    ______ ____
ROOT
ATOM      1  C   LIG    1        1.302   1.823   0.002  0.00  0.00    +0.290 A 
ATOM      2  C   LIG    1        1.893   0.745   0.586  0.00  0.00    -0.200 A 
ATOM      3  C   LIG    1        1.102  -0.375   0.317  0.00  0.00    +0.240 A 
ATOM      4  N   LIG    1        0.075   0.005  -0.400  0.00  0.00    -0.260 NA
ATOM      5  C   LIG    1        3.172   0.757   1.383  0.00  0.00    +0.110 C 
ATOM      6  N   LIG    1        0.173   1.386  -0.615  0.00  0.00    -0.370 N 
ENDROOT
BRANCH   6   7
ATOM      7  C   LIG    1       -0.770   2.210  -1.374  0.00  0.00    +0.310 C 
ATOM      8  C   LIG    1       -0.740   1.787  -2.841  0.00  0.00    +0.020 C 
ATOM      9  C   LIG    1       -1.879   2.505  -3.575  0.00  0.00    +0.030 C 
ATOM     10  C   LIG    1       -3.205   1.916  -3.098  0.00  0.00    +0.080 C 
ATOM     11  C   LIG    1       -3.272   1.911  -1.593  0.00  0.00    -0.060 A 
ATOM     12  C   LIG    1       -4.520   1.763  -1.002  0.00  0.00    +0.000 A 
ATOM     13  C   LIG    1       -4.646   1.738   0.372  0.00  0.00    +0.010 A 
ATOM     14  C   LIG    1       -3.522   1.862   1.167  0.00  0.00    +0.000 A 
ATOM     15  C   LIG    1       -2.281   2.012   0.581  0.00  0.00    +0.020 A 
ATOM     16  C   LIG    1       -2.153   2.039  -0.802  0.00  0.00    -0.090 A 
ENDBRANCH   6   7
BRANCH   1  18
ATOM     17  C   LIG    1        2.949   3.444  -0.542  0.00  0.00    +0.590 C 
ATOM     18  N   LIG    1        1.769   3.136   0.031  0.00  0.00    -0.650 N 
ATOM     19  H   LIG    1        1.245   3.828   0.465  0.00  0.00    +0.420 HD
ATOM     20  O   LIG    1        3.653   2.563  -0.995  0.00  0.00    -0.500 OA
BRANCH  17  24
ATOM     21  C   LIG    1        4.168   7.462  -0.753  0.00  0.00    +0.110 A 
ATOM     22  C   LIG    1        5.008   6.488  -1.285  0.00  0.00    +0.030 A 
ATOM     23  C   LIG    1        4.612   5.165  -1.212  0.00  0.00    +0.100 A 
ATOM     24  C   LIG    1        3.387   4.854  -0.622  0.00  0.00    +0.030 A 
ATOM     25  N   LIG    1        2.611   5.812  -0.125  0.00  0.00    -0.420 NA
ATOM     26  C   LIG    1        2.961   7.077  -0.174  0.00  0.00    +0.190 A 
BRANCH  21  28
ATOM     27  C   LIG    1        3.604   9.711  -0.231  0.00  0.00    +0.250 C 
ATOM     28  O   LIG    1        4.520   8.772  -0.799  0.00  0.00    -0.300 OA
ENDBRANCH  21  28
ENDBRANCH  17  24
ENDBRANCH   1  18
TORSDOF 4
