REMARK  Name = ZINCrg000000tc2m.0
REMARK                            x       y       z     vdW  Elec       q    Type
REMARK                         _______ _______ _______ _____ _____    ______ ____
ROOT
ATOM      1  O   LIG    1        0.055   0.081  -0.002  0.00  0.00    -0.520 OA
ATOM      2  C   LIG    1        0.016   1.293  -0.039  0.00  0.00    +0.510 C 
ATOM      3  N   LIG    1       -1.172   1.930  -0.026  0.00  0.00    -0.720 N 
ATOM      4  H   LIG    1       -1.203   2.899  -0.055  0.00  0.00    +0.400 HD
ENDROOT
BRANCH   3   5
ATOM      5  C   LIG    1       -2.416   1.158   0.034  0.00  0.00    +0.340 C 
BRANCH   5   6
ATOM      6  C   LIG    1       -3.592   2.100   0.037  0.00  0.00    -0.160 A 
ATOM      7  C   LIG    1       -4.327   2.300   1.193  0.00  0.00    +0.110 A 
ATOM      8  C   LIG    1       -5.399   3.181   1.151  0.00  0.00    -0.020 A 
ATOM      9  C   LIG    1       -5.705   3.818  -0.035  0.00  0.00    +0.300 A 
ATOM     10  N   LIG    1       -4.988   3.603  -1.122  0.00  0.00    -0.490 NA
ATOM     11  C   LIG    1       -3.956   2.775  -1.121  0.00  0.00    +0.350 A 
BRANCH  11  12
ATOM     12  N   LIG    1       -3.225   2.578  -2.297  0.00  0.00    -0.420 N 
ATOM     13  C   LIG    1       -2.779   3.553  -3.153  0.00  0.00    +0.150 A 
ATOM     14  C   LIG    1       -2.122   2.927  -4.147  0.00  0.00    +0.160 A 
ATOM     15  N   LIG    1       -2.169   1.607  -3.915  0.00  0.00    -0.470 NA
ATOM     16  C   LIG    1       -2.827   1.385  -2.811  0.00  0.00    +0.410 A 
ENDBRANCH  11  12
ENDBRANCH   5   6
ENDBRANCH   3   5
BRANCH   2  17
ATOM     17  C   LIG    1        1.295   2.087  -0.106  0.00  0.00    +0.330 C 
BRANCH  17  18
ATOM     18  N   LIG    1        2.438   1.170  -0.115  0.00  0.00    -0.560 N 
ATOM     19  C   LIG    1        2.969   0.680  -1.244  0.00  0.00    +0.530 C 
ATOM     20  C   LIG    1        4.184  -0.169  -0.889  0.00  0.00    +0.020 C 
ATOM     21  C   LIG    1        5.408   0.498  -1.485  0.00  0.00    +0.040 C 
ATOM     22  C   LIG    1        6.660   0.304  -0.657  0.00  0.00    +0.020 C 
ATOM     23  C   LIG    1        6.401   0.841   0.757  0.00  0.00    +0.020 C 
ATOM     24  C   LIG    1        5.376  -0.075   1.418  0.00  0.00    +0.060 C 
ATOM     25  C   LIG    1        4.121  -0.229   0.621  0.00  0.00    +0.000 C 
ATOM     26  O   LIG    1        2.550   0.879  -2.365  0.00  0.00    -0.470 OA
ATOM     27  C   LIG    1        3.048   0.755   1.008  0.00  0.00    +0.540 C 
ATOM     28  O   LIG    1        2.779   1.108   2.136  0.00  0.00    -0.470 OA
ENDBRANCH  17  18
ENDBRANCH   2  17
TORSDOF 5
