REMARK  Name = ZINCrH00000No57K.0
REMARK                            x       y       z     vdW  Elec       q    Type
REMARK                         _______ _______ _______ _____ _____    ______ ____
ROOT
ATOM      1  C   LIG    1        5.465   1.383   0.975  0.00  0.00    -0.030 C 
ATOM      2  C   LIG    1        4.974   2.814   1.207  0.00  0.00    +0.040 C 
ATOM      3  C   LIG    1        3.991   3.199   0.097  0.00  0.00    +0.280 C 
ATOM      4  N   LIG    1        2.920   2.194   0.045  0.00  0.00    -0.610 N 
ATOM      5  C   LIG    1        3.286   0.777  -0.080  0.00  0.00    +0.280 C 
ATOM      6  C   LIG    1        1.626   2.566   0.116  0.00  0.00    +0.550 C 
ATOM      7  O   LIG    1        0.753   1.720   0.174  0.00  0.00    -0.530 OA
ATOM      8  C   LIG    1        4.277   0.420   1.026  0.00  0.00    +0.040 C 
ENDROOT
BRANCH   1  10
ATOM      9  O   LIG    1        6.369   1.504   3.151  0.00  0.00    -0.450 OA
ATOM     10  C   LIG    1        6.458   1.013   2.046  0.00  0.00    +0.400 C 
BRANCH  10  11
ATOM     11  C   LIG    1        7.536   0.055   1.751  0.00  0.00    -0.170 A 
ATOM     12  C   LIG    1        7.638  -0.518   0.479  0.00  0.00    +0.060 A 
ATOM     13  C   LIG    1        8.654  -1.411   0.209  0.00  0.00    +0.000 A 
ATOM     14  C   LIG    1        9.564  -1.748   1.195  0.00  0.00    +0.040 A 
ATOM     15  C   LIG    1        9.467  -1.189   2.458  0.00  0.00    +0.000 A 
ATOM     16  C   LIG    1        8.460  -0.291   2.742  0.00  0.00    +0.070 A 
ENDBRANCH  10  11
ENDBRANCH   1  10
BRANCH   6  17
ATOM     17  C   LIG    1        1.272   3.986   0.122  0.00  0.00    -0.050 C 
ATOM     18  C   LIG    1       -0.024   4.358   0.098  0.00  0.00    +0.120 C 
BRANCH  18  19
ATOM     19  C   LIG    1       -0.381   5.786   0.110  0.00  0.00    -0.000 A 
ATOM     20  C   LIG    1        0.618   6.760   0.027  0.00  0.00    +0.040 A 
ATOM     21  C   LIG    1        0.276   8.096   0.033  0.00  0.00    +0.080 A 
ATOM     22  C   LIG    1       -1.052   8.473   0.134  0.00  0.00    +0.040 A 
ATOM     23  C   LIG    1       -2.046   7.514   0.223  0.00  0.00    +0.110 A 
ATOM     24  C   LIG    1       -1.720   6.175   0.212  0.00  0.00    -0.030 A 
BRANCH  24  25
ATOM     25  N   LIG    1       -2.785   5.151   0.307  0.00  0.00    +0.030 N 
ATOM     26  O   LIG    1       -2.507   3.971   0.190  0.00  0.00    -0.160 OA
ATOM     27  O   LIG    1       -3.939   5.489   0.502  0.00  0.00    -0.150 OA
ENDBRANCH  24  25
ENDBRANCH  18  19
ENDBRANCH   6  17
TORSDOF 5
