REMARK  Name = ZINCqH0000050Dur.1
REMARK                            x       y       z     vdW  Elec       q    Type
REMARK                         _______ _______ _______ _____ _____    ______ ____
ROOT
ATOM      1  C   LIG    1        3.710  -1.896   0.226  0.00  0.00    +0.080 A 
ATOM      2  C   LIG    1        2.553  -2.657   0.151  0.00  0.00    +0.030 A 
ATOM      3  C   LIG    1        1.321  -2.035   0.078  0.00  0.00    +0.050 A 
ATOM      4  C   LIG    1        1.242  -0.649   0.080  0.00  0.00    +0.140 A 
ATOM      5  C   LIG    1        2.402   0.112   0.149  0.00  0.00    +0.010 A 
ATOM      6  C   LIG    1        3.632  -0.511   0.227  0.00  0.00    +0.040 A 
ENDROOT
BRANCH   4   7
ATOM      7  N   LIG    1       -0.005  -0.018   0.006  0.00  0.00    -0.670 N 
ATOM      8  H   LIG    1       -0.100   0.815  -0.481  0.00  0.00    +0.410 HD
ATOM      9  C   LIG    1       -1.076  -0.570   0.611  0.00  0.00    +0.590 C 
ATOM     10  O   LIG    1       -0.977  -1.655   1.154  0.00  0.00    -0.490 OA
BRANCH   9  11
ATOM     11  C   LIG    1       -2.359   0.140   0.620  0.00  0.00    -0.000 A 
ATOM     12  C   LIG    1       -3.533  -0.305   1.192  0.00  0.00    +0.040 A 
ATOM     13  C   LIG    1       -4.498   0.682   0.969  0.00  0.00    +0.080 A 
ATOM     14  C   LIG    1       -3.914   1.685   0.272  0.00  0.00    -0.510 A 
ATOM     15  N   LIG    1       -2.614   1.368   0.054  0.00  0.00    -0.490 N 
ATOM     16  H   LIG    1       -1.970   1.916  -0.422  0.00  0.00    +0.430 HD
BRANCH  14  17
ATOM     17  S   LIG    1       -4.712   3.162  -0.264  0.00  0.00    +2.520 S 
ATOM     18  O   LIG    1       -3.661   4.112  -0.365  0.00  0.00    -0.940 OA
ATOM     19  O   LIG    1       -5.775   3.341   0.663  0.00  0.00    -0.920 OA
ATOM     20  C   LIG    1       -5.363   2.753  -1.907  0.00  0.00    -0.240 C 
ENDBRANCH  14  17
ENDBRANCH   9  11
ENDBRANCH   4   7
BRANCH   1  21
ATOM     21  O   LIG    1        4.922  -2.508   0.297  0.00  0.00    -0.250 OA
BRANCH  21  28
ATOM     22  C   LIG    1        7.534  -3.579   0.420  0.00  0.00    +0.100 C 
ATOM     23  C   LIG    1        6.705  -3.600  -0.838  0.00  0.00    -0.110 A 
ATOM     24  C   LIG    1        7.213  -4.165  -1.992  0.00  0.00    +0.040 A 
ATOM     25  C   LIG    1        6.456  -4.179  -3.149  0.00  0.00    -0.020 A 
ATOM     26  C   LIG    1        5.185  -3.634  -3.152  0.00  0.00    +0.040 A 
ATOM     27  C   LIG    1        4.669  -3.074  -1.999  0.00  0.00    -0.060 A 
ATOM     28  C   LIG    1        5.427  -3.058  -0.838  0.00  0.00    +0.120 A 
ENDBRANCH  21  28
ENDBRANCH   1  21
TORSDOF 5
