REMARK  Name = ZINCpe00000c9DJI.0
REMARK                            x       y       z     vdW  Elec       q    Type
REMARK                         _______ _______ _______ _____ _____    ______ ____
ROOT
ATOM      1  O   LIG    1       -1.117  -0.563  -2.325  0.00  0.00    -0.520 OA
ATOM      2  C   LIG    1       -1.690  -1.107  -1.404  0.00  0.00    +0.530 C 
ATOM      3  N   LIG    1       -2.764  -1.886  -1.644  0.00  0.00    -0.610 N 
ATOM      4  C   LIG    1       -3.551  -2.602  -0.623  0.00  0.00    +0.250 C 
ATOM      5  C   LIG    1       -4.213  -3.776  -1.385  0.00  0.00    +0.040 C 
ATOM      6  C   LIG    1       -4.536  -3.118  -2.753  0.00  0.00    +0.050 C 
ATOM      7  C   LIG    1       -3.348  -2.157  -2.965  0.00  0.00    +0.320 C 
ENDROOT
BRANCH   7   8
ATOM      8  C   LIG    1       -3.829  -0.871  -3.586  0.00  0.00    -0.020 A 
ATOM      9  C   LIG    1       -3.974  -0.614  -4.907  0.00  0.00    +0.150 A 
ATOM     10  N   LIG    1       -4.432   0.656  -4.996  0.00  0.00    -0.290 N 
ATOM     11  N   LIG    1       -4.545   1.129  -3.804  0.00  0.00    -0.090 NA
ATOM     12  N   LIG    1       -4.193   0.243  -2.941  0.00  0.00    -0.250 NA
BRANCH  10  13
ATOM     13  C   LIG    1       -4.742   1.372  -6.236  0.00  0.00    +0.340 C 
BRANCH  13  14
ATOM     14  C   LIG    1       -6.178   1.896  -6.178  0.00  0.00    +0.190 C 
BRANCH  14  15
ATOM     15  O   LIG    1       -6.480   2.595  -7.387  0.00  0.00    -0.570 OA
ATOM     16  H   LIG    1       -7.377   2.955  -7.420  0.00  0.00    +0.390 HD
ENDBRANCH  14  15
ENDBRANCH  13  14
ENDBRANCH  10  13
ENDBRANCH   7   8
BRANCH   2  17
ATOM     17  C   LIG    1       -1.202  -0.911   0.008  0.00  0.00    +0.150 C 
BRANCH  17  18
ATOM     18  C   LIG    1        0.002  -0.004   0.002  0.00  0.00    -0.240 A 
ATOM     19  C   LIG    1       -0.017   1.385   0.010  0.00  0.00    +0.120 A 
ATOM     20  C   LIG    1       -1.060   2.330   0.030  0.00  0.00    +0.030 A 
ATOM     21  C   LIG    1       -0.755   3.656   0.027  0.00  0.00    +0.060 A 
ATOM     22  C   LIG    1        0.591   4.059   0.017  0.00  0.00    -0.010 A 
ATOM     23  C   LIG    1        1.579   3.139   0.003  0.00  0.00    +0.280 A 
ATOM     24  N   LIG    1        1.288   1.805  -0.001  0.00  0.00    -0.270 N 
ATOM     25  N   LIG    1        2.098   0.662  -0.014  0.00  0.00    -0.320 NA
ATOM     26  C   LIG    1        1.328  -0.404  -0.013  0.00  0.00    +0.280 A 
ENDBRANCH  17  18
ENDBRANCH   2  17
TORSDOF 6
