REMARK  Name = ZINCpe000000WYUK.0
REMARK                            x       y       z     vdW  Elec       q    Type
REMARK                         _______ _______ _______ _____ _____    ______ ____
ROOT
ATOM      1  N   LIG    1        1.330   1.743   0.206  0.00  0.00    -0.740 N 
ATOM      2  H   LIG    1        1.539   2.592  -0.214  0.00  0.00    +0.400 HD
ATOM      3  C   LIG    1        2.311   1.010   0.768  0.00  0.00    +0.700 C 
ATOM      4  N   LIG    1        3.582   1.457   0.747  0.00  0.00    -0.750 N 
ATOM      5  H   LIG    1        3.791   2.306   0.327  0.00  0.00    +0.400 HD
ATOM      6  O   LIG    1        2.049  -0.054   1.294  0.00  0.00    -0.580 OA
ENDROOT
BRANCH   1  11
ATOM      7  C   LIG    1       -4.485   0.987  -0.132  0.00  0.00    +0.090 C 
ATOM      8  C   LIG    1       -3.095   1.591   0.077  0.00  0.00    -0.430 C 
ATOM      9  C   LIG    1       -2.187   1.202  -1.091  0.00  0.00    +0.090 C 
ATOM     10  C   LIG    1       -0.824   1.870  -0.937  0.00  0.00    +0.030 C 
ATOM     11  C   LIG    1       -0.052   1.258   0.229  0.00  0.00    +0.290 C 
ATOM     12  C   LIG    1       -0.708   1.654   1.553  0.00  0.00    -0.350 C 
ATOM     13  S   LIG    1       -2.381   0.953   1.621  0.00  0.00    +2.420 S 
ATOM     14  O   LIG    1       -2.288  -0.462   1.529  0.00  0.00    -0.920 OA
ATOM     15  O   LIG    1       -3.074   1.535   2.717  0.00  0.00    -0.940 OA
ENDBRANCH   1  11
BRANCH   4  16
ATOM     16  C   LIG    1        4.649   0.660   1.359  0.00  0.00    +0.310 C 
BRANCH  16  17
ATOM     17  C   LIG    1        6.000   1.323   1.087  0.00  0.00    +0.050 C 
ATOM     18  C   LIG    1        6.286   1.292  -0.428  0.00  0.00    -0.280 C 
ATOM     19  S   LIG    1        8.116   1.146  -0.423  0.00  0.00    +2.470 S 
ATOM     20  C   LIG    1        8.276   0.418   1.189  0.00  0.00    -0.630 A 
ATOM     21  C   LIG    1        9.342  -0.225   1.783  0.00  0.00    +0.140 A 
ATOM     22  C   LIG    1        9.226  -0.722   3.068  0.00  0.00    +0.010 A 
ATOM     23  C   LIG    1        8.032  -0.566   3.745  0.00  0.00    +0.070 A 
ATOM     24  C   LIG    1        6.972   0.080   3.150  0.00  0.00    +0.020 A 
ATOM     25  O   LIG    1        8.740   2.419  -0.329  0.00  0.00    -0.920 OA
ATOM     26  O   LIG    1        8.562   0.152  -1.335  0.00  0.00    -0.930 OA
ATOM     27  C   LIG    1        7.075   0.591   1.853  0.00  0.00    -0.040 A 
ENDBRANCH  16  17
ENDBRANCH   4  16
TORSDOF 3
