REMARK  Name = ZINCvU0000000CTb.0
REMARK                            x       y       z     vdW  Elec       q    Type
REMARK                         _______ _______ _______ _____ _____    ______ ____
ROOT
ATOM      1  C   LIG    1        3.761  -2.148  -0.047  0.00  0.00    +0.520 C 
ATOM      2  O   LIG    1        2.749  -2.812   0.050  0.00  0.00    -0.490 OA
ENDROOT
BRANCH   1   3
ATOM      3  C   LIG    1        3.680  -0.672  -0.037  0.00  0.00    -0.060 A 
ATOM      4  C   LIG    1        4.824   0.112  -0.029  0.00  0.00    +0.070 A 
ATOM      5  C   LIG    1        4.700   1.513  -0.021  0.00  0.00    +0.220 A 
ATOM      6  N   LIG    1        3.526   2.115  -0.019  0.00  0.00    -0.430 NA
ATOM      7  C   LIG    1        2.377   1.437  -0.026  0.00  0.00    +0.130 A 
ATOM      8  C   LIG    1        1.140   2.107  -0.024  0.00  0.00    +0.050 A 
ATOM      9  C   LIG    1       -0.017   1.388  -0.030  0.00  0.00    +0.040 A 
ATOM     10  C   LIG    1        0.002  -0.004  -0.038  0.00  0.00    +0.030 A 
ATOM     11  C   LIG    1        1.183  -0.687  -0.041  0.00  0.00    +0.050 A 
ATOM     12  C   LIG    1        2.389   0.020  -0.035  0.00  0.00    -0.060 A 
BRANCH   5  13
ATOM     13  C   LIG    1        5.923   2.336  -0.012  0.00  0.00    -0.160 A 
ATOM     14  C   LIG    1        5.954   3.686  -0.009  0.00  0.00    +0.090 A 
ATOM     15  C   LIG    1        7.218   4.233   0.003  0.00  0.00    +0.040 A 
ATOM     16  C   LIG    1        8.221   3.345  -0.001  0.00  0.00    -0.140 A 
ATOM     17 CL   LIG    1        9.910   3.745   0.004  0.00  0.00    -0.000 Cl
ATOM     18  S   LIG    1        7.567   1.712  -0.013  0.00  0.00    +0.200 S 
ENDBRANCH   5  13
ENDBRANCH   1   3
BRANCH   1  19
ATOM     19  O   LIG    1        4.957  -2.756  -0.163  0.00  0.00    -0.320 OA
BRANCH  19  20
ATOM     20  C   LIG    1        4.961  -4.208  -0.165  0.00  0.00    +0.270 C 
BRANCH  20  23
ATOM     21  N   LIG    1        6.625  -6.031  -0.328  0.00  0.00    -0.720 N 
ATOM     22  H   LIG    1        5.892  -6.664  -0.258  0.00  0.00    +0.400 HD
ATOM     23  C   LIG    1        6.376  -4.707  -0.302  0.00  0.00    +0.520 C 
ATOM     24  O   LIG    1        7.292  -3.917  -0.390  0.00  0.00    -0.510 OA
BRANCH  21  30
ATOM     25  C   LIG    1       10.492  -7.481   0.740  0.00  0.00    +0.020 C 
ATOM     26  C   LIG    1        9.544  -8.426  -0.001  0.00  0.00    +0.000 C 
ATOM     27  C   LIG    1        9.927  -8.474  -1.481  0.00  0.00    +0.010 C 
ATOM     28  C   LIG    1        9.820  -7.071  -2.082  0.00  0.00    +0.020 C 
ATOM     29  C   LIG    1        8.383  -6.565  -1.942  0.00  0.00    +0.000 C 
ATOM     30  C   LIG    1        8.000  -6.516  -0.462  0.00  0.00    +0.250 C 
ATOM     31  C   LIG    1        8.107  -7.919   0.139  0.00  0.00    -0.010 C 
ATOM     32  C   LIG    1        7.725  -7.871   1.619  0.00  0.00    +0.020 C 
ENDBRANCH  21  30
ENDBRANCH  20  23
ENDBRANCH  19  20
ENDBRANCH   1  19
TORSDOF 6
