REMARK  Name = ZINCqH0000037iEl.0
REMARK                            x       y       z     vdW  Elec       q    Type
REMARK                         _______ _______ _______ _____ _____    ______ ____
ROOT
ATOM      1  N   LIG    1       -4.054  -0.284  -0.365  0.00  0.00    -0.740 N 
ATOM      2  H   LIG    1       -4.077  -0.844  -1.157  0.00  0.00    +0.400 HD
ATOM      3  C   LIG    1       -3.051   0.599  -0.192  0.00  0.00    +0.720 C 
ATOM      4  N   LIG    1       -2.078   0.703  -1.119  0.00  0.00    -0.630 N 
ATOM      5  C   LIG    1       -2.044  -0.005  -2.412  0.00  0.00    +0.240 C 
ATOM      6  C   LIG    1       -1.143   0.870  -3.320  0.00  0.00    +0.040 C 
ATOM      7  C   LIG    1       -0.070   1.361  -2.313  0.00  0.00    +0.040 C 
ATOM      8  C   LIG    1       -0.876   1.542  -1.009  0.00  0.00    +0.240 C 
ATOM      9  O   LIG    1       -3.023   1.301   0.800  0.00  0.00    -0.580 OA
ENDROOT
BRANCH   1  10
ATOM     10  C   LIG    1       -5.112  -0.398   0.643  0.00  0.00    +0.340 C 
BRANCH  10  14
ATOM     11  C   LIG    1       -7.925  -3.373  -0.573  0.00  0.00    -0.110 A 
ATOM     12  C   LIG    1       -6.833  -3.728   0.197  0.00  0.00    +0.020 A 
ATOM     13  C   LIG    1       -5.923  -2.765   0.591  0.00  0.00    +0.040 A 
ATOM     14  C   LIG    1       -6.104  -1.448   0.214  0.00  0.00    -0.110 A 
ATOM     15  C   LIG    1       -7.199  -1.092  -0.552  0.00  0.00    +0.040 A 
ATOM     16  C   LIG    1       -8.106  -2.056  -0.949  0.00  0.00    +0.000 A 
BRANCH  11  18
ATOM     17  C   LIG    1       -8.556  -4.927  -2.399  0.00  0.00    +0.020 C 
ATOM     18  C   LIG    1       -8.918  -4.423  -1.001  0.00  0.00    +0.250 C 
BRANCH  18  19
ATOM     19  O   LIG    1      -10.230  -3.857  -1.023  0.00  0.00    -0.560 OA
ATOM     20  H   LIG    1      -10.325  -3.110  -1.629  0.00  0.00    +0.370 HD
ENDBRANCH  18  19
ENDBRANCH  11  18
ENDBRANCH  10  14
ENDBRANCH   1  10
BRANCH   8  21
ATOM     21  C   LIG    1       -0.036   1.092   0.188  0.00  0.00    +0.080 C 
BRANCH  21  22
ATOM     22  C   LIG    1        1.144   2.016   0.349  0.00  0.00    -0.050 A 
ATOM     23  C   LIG    1        2.316   1.766  -0.339  0.00  0.00    +0.000 A 
ATOM     24  C   LIG    1        3.398   2.615  -0.196  0.00  0.00    +0.040 A 
ATOM     25  C   LIG    1        3.311   3.709   0.644  0.00  0.00    -0.030 A 
ATOM     26  C   LIG    1        2.139   3.957   1.339  0.00  0.00    +0.100 A 
ATOM     27  F   LIG    1        2.053   5.027   2.160  0.00  0.00    -0.140 F 
ATOM     28  C   LIG    1        1.055   3.109   1.190  0.00  0.00    -0.010 A 
ENDBRANCH  21  22
ENDBRANCH   8  21
TORSDOF 6
