REMARK  Name = ZINCrH000004sor2.0
REMARK                            x       y       z     vdW  Elec       q    Type
REMARK                         _______ _______ _______ _____ _____    ______ ____
ROOT
ATOM      1  C   LIG    1        0.002  -0.004   0.002  0.00  0.00    +0.520 C 
ATOM      2  N   LIG    1       -0.016   1.344   0.009  0.00  0.00    -0.610 N 
ATOM      3  C   LIG    1       -1.289   2.081   0.019  0.00  0.00    +0.290 C 
ATOM      4  C   LIG    1       -1.242   3.107   1.163  0.00  0.00    +0.190 C 
ATOM      5  N   LIG    1       -0.042   3.942   1.016  0.00  0.00    -0.490 N 
ATOM      6  C   LIG    1        1.183   3.140   1.140  0.00  0.00    +0.190 C 
ATOM      7  C   LIG    1        1.236   2.116   0.002  0.00  0.00    +0.300 C 
ATOM      8  O   LIG    1        1.060  -0.596  -0.011  0.00  0.00    -0.520 OA
ENDROOT
BRANCH   5   9
ATOM      9  C   LIG    1       -0.048   4.994   1.939  0.00  0.00    +0.100 A 
ATOM     10  C   LIG    1        1.019   5.158   2.812  0.00  0.00    -0.020 A 
ATOM     11  C   LIG    1        1.015   6.200   3.718  0.00  0.00    +0.010 A 
ATOM     12  C   LIG    1       -0.059   7.077   3.763  0.00  0.00    +0.080 A 
ATOM     13  C   LIG    1       -1.127   6.911   2.894  0.00  0.00    +0.010 A 
ATOM     14  C   LIG    1       -1.122   5.872   1.984  0.00  0.00    +0.010 A 
BRANCH  12  15
ATOM     15  O   LIG    1       -0.064   8.099   4.660  0.00  0.00    -0.500 OA
ATOM     16  H   LIG    1       -0.466   7.875   5.510  0.00  0.00    +0.390 HD
ENDBRANCH  12  15
ENDBRANCH   5   9
BRANCH   1  17
ATOM     17  C   LIG    1       -1.293  -0.775   0.010  0.00  0.00    +0.160 C 
BRANCH  17  22
ATOM     18  C   LIG    1       -0.251  -6.019  -0.964  0.00  0.00    +0.180 C 
ATOM     19  C   LIG    1       -0.524  -4.630  -0.447  0.00  0.00    +0.050 A 
ATOM     20  N   LIG    1       -0.578  -4.308   0.799  0.00  0.00    -0.460 NA
ATOM     21  C   LIG    1       -0.826  -3.037   1.085  0.00  0.00    +0.150 A 
ATOM     22  C   LIG    1       -0.997  -2.253  -0.001  0.00  0.00    -0.210 A 
ATOM     23  S   LIG    1       -0.807  -3.262  -1.432  0.00  0.00    +0.160 S 
BRANCH  21  24
ATOM     24  C   LIG    1       -0.910  -2.525   2.470  0.00  0.00    -0.120 A 
ATOM     25  C   LIG    1       -1.403  -3.206   3.523  0.00  0.00    +0.050 A 
ATOM     26  C   LIG    1       -1.377  -2.517   4.719  0.00  0.00    +0.020 A 
ATOM     27  C   LIG    1       -0.868  -1.284   4.651  0.00  0.00    -0.040 A 
ATOM     28  S   LIG    1       -0.375  -0.935   2.999  0.00  0.00    +0.130 S 
ENDBRANCH  21  24
ENDBRANCH  17  22
ENDBRANCH   1  17
TORSDOF 5
