REMARK  Name = ZINCtV00000oCzLk.0
REMARK                            x       y       z     vdW  Elec       q    Type
REMARK                         _______ _______ _______ _____ _____    ______ ____
ROOT
ATOM      1  N   LIG    1        8.059  -0.593   0.141  0.00  0.00    -0.610 N 
ATOM      2  H   LIG    1        8.524  -1.269  -0.376  0.00  0.00    +0.420 HD
ENDROOT
BRANCH   1  15
ATOM      3  C   LIG    1        6.160  -1.971   0.734  0.00  0.00    +0.120 A 
ATOM      4  C   LIG    1        4.808  -2.103   0.981  0.00  0.00    -0.010 A 
ATOM      5  C   LIG    1        3.975  -0.992   0.886  0.00  0.00    -0.070 A 
ATOM      6  C   LIG    1        4.500   0.261   0.541  0.00  0.00    +0.060 A 
ATOM      7  O   LIG    1        3.490   1.159   0.519  0.00  0.00    -0.190 OA
ATOM      8  C   LIG    1        2.308   0.583   0.830  0.00  0.00    +0.090 A 
ATOM      9  C   LIG    1        1.018   1.091   0.934  0.00  0.00    +0.020 A 
ATOM     10  C   LIG    1       -0.027   0.260   1.277  0.00  0.00    +0.060 A 
ATOM     11  C   LIG    1        0.193  -1.087   1.520  0.00  0.00    -0.010 A 
ATOM     12  C   LIG    1        1.466  -1.609   1.421  0.00  0.00    +0.070 A 
ATOM     13  C   LIG    1        5.862   0.383   0.295  0.00  0.00    +0.130 A 
ATOM     14  C   LIG    1        2.527  -0.779   1.077  0.00  0.00    -0.130 A 
ATOM     15  C   LIG    1        6.687  -0.724   0.391  0.00  0.00    +0.130 A 
BRANCH   3  17
ATOM     16  C   LIG    1        6.371  -4.297   1.181  0.00  0.00    +0.250 C 
ATOM     17  O   LIG    1        6.978  -3.054   0.825  0.00  0.00    -0.320 OA
ENDBRANCH   3  17
ENDBRANCH   1  15
BRANCH   1  18
ATOM     18  C   LIG    1        8.732   0.472   0.619  0.00  0.00    +0.540 C 
ATOM     19  S   LIG    1        7.933   1.614   1.612  0.00  0.00    -0.580 S 
BRANCH  18  20
ATOM     20  N   LIG    1       10.035   0.637   0.315  0.00  0.00    -0.630 N 
ATOM     21  H   LIG    1       10.463   0.044  -0.322  0.00  0.00    +0.410 HD
BRANCH  20  22
ATOM     22  C   LIG    1       10.768   1.665   0.917  0.00  0.00    +0.120 A 
ATOM     23  C   LIG    1       11.651   2.425   0.161  0.00  0.00    +0.050 A 
ATOM     24  C   LIG    1       12.370   3.443   0.757  0.00  0.00    +0.030 A 
ATOM     25  C   LIG    1       12.220   3.698   2.107  0.00  0.00    +0.080 A 
ATOM     26  C   LIG    1       11.345   2.939   2.865  0.00  0.00    -0.170 A 
ATOM     27  C   LIG    1       10.620   1.924   2.273  0.00  0.00    +0.130 A 
BRANCH  26  28
ATOM     28  C   LIG    1       11.185   3.221   4.336  0.00  0.00    +0.510 C 
ATOM     29  F   LIG    1        9.886   2.887   4.736  0.00  0.00    -0.170 F 
ATOM     30  F   LIG    1       11.412   4.580   4.579  0.00  0.00    -0.180 F 
ATOM     31  F   LIG    1       12.106   2.457   5.060  0.00  0.00    -0.180 F 
ENDBRANCH  26  28
ENDBRANCH  20  22
ENDBRANCH  18  20
ENDBRANCH   1  18
TORSDOF 6
