REMARK  Name = ZINCpe00000VVGbi.0
REMARK                            x       y       z     vdW  Elec       q    Type
REMARK                         _______ _______ _______ _____ _____    ______ ____
ROOT
ATOM      1  C   LIG    1        1.067   7.050  -1.749  0.00  0.00    +0.520 C 
ATOM      2  N   LIG    1        0.827   5.725  -1.810  0.00  0.00    -0.730 N 
ATOM      3  H   LIG    1        0.717   5.291  -2.671  0.00  0.00    +0.400 HD
ATOM      4  O   LIG    1        1.204   7.592  -0.673  0.00  0.00    -0.520 OA
ENDROOT
BRANCH   1   5
ATOM      5  C   LIG    1        1.166   7.857  -3.018  0.00  0.00    +0.130 C 
ATOM      6  C   LIG    1       -0.151   7.756  -3.790  0.00  0.00    +0.070 C 
BRANCH   5  13
ATOM      7  C   LIG    1        5.771   8.725  -5.550  0.00  0.00    +0.200 C 
ATOM      8  C   LIG    1        4.379   9.297  -5.475  0.00  0.00    +0.180 A 
ATOM      9  N   LIG    1        3.721   9.874  -6.449  0.00  0.00    -0.300 NA
ATOM     10  N   LIG    1        2.557  10.241  -6.031  0.00  0.00    -0.280 NA
ATOM     11  C   LIG    1        2.424   9.916  -4.783  0.00  0.00    +0.130 A 
ATOM     12  C   LIG    1        1.249  10.129  -3.862  0.00  0.00    +0.370 C 
ATOM     13  N   LIG    1        1.431   9.263  -2.684  0.00  0.00    -0.500 NA
ATOM     14  C   LIG    1        2.773   9.423  -2.107  0.00  0.00    +0.260 C 
ATOM     15  C   LIG    1        3.817   8.803  -3.045  0.00  0.00    +0.260 C 
ATOM     16  N   LIG    1        3.577   9.311  -4.396  0.00  0.00    -0.470 N 
ENDBRANCH   5  13
ENDBRANCH   1   5
BRANCH   2  17
ATOM     17  C   LIG    1        0.731   4.940  -0.577  0.00  0.00    +0.330 C 
BRANCH  17  18
ATOM     18  C   LIG    1        0.459   3.498  -0.919  0.00  0.00    -0.100 A 
ATOM     19  C   LIG    1       -0.844   3.050  -1.032  0.00  0.00    +0.050 A 
ATOM     20  C   LIG    1       -1.098   1.728  -1.350  0.00  0.00    +0.040 A 
ATOM     21  C   LIG    1       -0.047   0.848  -1.548  0.00  0.00    +0.040 A 
ATOM     22  O   LIG    1       -0.026  -0.480  -1.862  0.00  0.00    -0.310 OA
ATOM     23  C   LIG    1        1.303  -0.931  -1.538  0.00  0.00    +0.440 C 
ATOM     24  O   LIG    1        2.109   0.254  -1.677  0.00  0.00    -0.310 OA
ATOM     25  C   LIG    1        1.266   1.300  -1.434  0.00  0.00    +0.030 A 
ATOM     26  C   LIG    1        1.513   2.626  -1.119  0.00  0.00    +0.060 A 
ENDBRANCH  17  18
ENDBRANCH   2  17
TORSDOF 4
