REMARK  Name = ZINCrH000004tPLQ.0
REMARK                            x       y       z     vdW  Elec       q    Type
REMARK                         _______ _______ _______ _____ _____    ______ ____
ROOT
ATOM      1  C   LIG    1        6.231   6.289  -0.214  0.00  0.00    +0.240 C 
ENDROOT
BRANCH   1   3
ATOM      2  O   LIG    1        7.547   8.248  -0.222  0.00  0.00    -0.490 OA
ATOM      3  C   LIG    1        7.539   7.036  -0.261  0.00  0.00    +0.510 C 
ATOM      4  N   LIG    1        8.700   6.357  -0.347  0.00  0.00    -0.660 N 
ATOM      5  H   LIG    1        8.691   5.393  -0.460  0.00  0.00    +0.420 HD
BRANCH   4   6
ATOM      6  C   LIG    1        9.916   7.040  -0.275  0.00  0.00    +0.150 A 
ATOM      7  C   LIG    1        9.999   8.244   0.362  0.00  0.00    +0.050 A 
ATOM      8  C   LIG    1       11.201   8.946   0.449  0.00  0.00    +0.000 A 
ATOM      9  C   LIG    1       12.354   8.481  -0.090  0.00  0.00    +0.070 A 
ATOM     10  C   LIG    1       12.373   7.245  -0.771  0.00  0.00    -0.190 A 
ATOM     11  C   LIG    1       13.341   6.501  -1.418  0.00  0.00    +0.280 A 
ATOM     12  N   LIG    1       12.761   5.385  -1.884  0.00  0.00    -0.430 N 
ATOM     13  H   LIG    1       13.216   4.686  -2.380  0.00  0.00    +0.450 HD
ATOM     14  N   LIG    1       11.401   5.380  -1.551  0.00  0.00    -0.300 NA
ATOM     15  C   LIG    1       11.123   6.476  -0.874  0.00  0.00    +0.090 A 
ENDBRANCH   4   6
ENDBRANCH   1   3
BRANCH   1  16
ATOM     16  O   LIG    1        5.152   7.222  -0.124  0.00  0.00    -0.290 OA
BRANCH  16  17
ATOM     17  C   LIG    1        3.894   6.708  -0.072  0.00  0.00    +0.130 A 
ATOM     18  C   LIG    1        2.802   7.558   0.016  0.00  0.00    +0.010 A 
ATOM     19  C   LIG    1        1.524   7.037   0.070  0.00  0.00    +0.060 A 
ATOM     20  C   LIG    1        1.333   5.663   0.035  0.00  0.00    +0.060 A 
ATOM     21  C   LIG    1        2.427   4.813  -0.047  0.00  0.00    +0.050 A 
ATOM     22  C   LIG    1        3.704   5.335  -0.106  0.00  0.00    -0.060 A 
BRANCH  20  23
ATOM     23  O   LIG    1        0.076   5.149   0.088  0.00  0.00    -0.250 OA
BRANCH  23  24
ATOM     24  C   LIG    1       -0.694   5.232  -1.026  0.00  0.00    +0.310 A 
ATOM     25  C   LIG    1       -1.944   4.628  -1.045  0.00  0.00    -0.050 A 
ATOM     26  C   LIG    1       -2.721   4.725  -2.187  0.00  0.00    +0.100 A 
ATOM     27  C   LIG    1       -2.213   5.416  -3.277  0.00  0.00    -0.070 A 
ATOM     28  C   LIG    1       -0.961   5.993  -3.188  0.00  0.00    +0.300 A 
ATOM     29  N   LIG    1       -0.246   5.888  -2.084  0.00  0.00    -0.530 NA
ENDBRANCH  23  24
ENDBRANCH  20  23
ENDBRANCH  16  17
ENDBRANCH   1  16
TORSDOF 6
