REMARK  Name = ZINCvU0000000CRC.0
REMARK                            x       y       z     vdW  Elec       q    Type
REMARK                         _______ _______ _______ _____ _____    ______ ____
ROOT
ATOM      1  C   LIG    1        2.158   0.045  -1.277  0.00  0.00    +0.140 C 
ATOM      2  C   LIG    1        2.151   1.575  -1.228  0.00  0.00    +0.040 C 
ATOM      3  C   LIG    1        1.452   2.036   0.054  0.00  0.00    +0.000 C 
ATOM      4  C   LIG    1        0.032   1.463   0.086  0.00  0.00    +0.030 C 
ATOM      5  C   LIG    1        0.101  -0.063  -0.001  0.00  0.00    +0.160 C 
ATOM      6  N   LIG    1        0.778  -0.454  -1.245  0.00  0.00    -0.470 NA
ENDROOT
BRANCH   1  12
ATOM      7  C   LIG    1        1.054   0.750  -3.891  0.00  0.00    +0.650 C 
ATOM      8  N   LIG    1        2.328   0.342  -3.720  0.00  0.00    -0.600 N 
ATOM      9  C   LIG    1        3.437   0.584  -4.654  0.00  0.00    +0.250 C 
ATOM     10  C   LIG    1        4.704  -0.040  -4.032  0.00  0.00    +0.030 C 
ATOM     11  C   LIG    1        4.354  -0.104  -2.521  0.00  0.00    +0.040 C 
ATOM     12  C   LIG    1        2.838  -0.420  -2.567  0.00  0.00    +0.240 C 
ATOM     13  O   LIG    1        0.235   0.566  -3.013  0.00  0.00    -0.480 OA
BRANCH   7  14
ATOM     14  O   LIG    1        0.690   1.360  -5.035  0.00  0.00    -0.370 OA
BRANCH  14  16
ATOM     15  C   LIG    1       -1.030   2.761  -4.032  0.00  0.00    +0.020 C 
ATOM     16  C   LIG    1       -0.698   1.771  -5.149  0.00  0.00    +0.140 C 
ATOM     17  C   LIG    1       -1.605   0.545  -5.031  0.00  0.00    +0.030 C 
ATOM     18  C   LIG    1       -0.920   2.441  -6.507  0.00  0.00    +0.060 C 
ENDBRANCH  14  16
ENDBRANCH   7  14
ENDBRANCH   1  12
BRANCH   6  19
ATOM     19  C   LIG    1        0.740  -1.911  -1.429  0.00  0.00    +0.320 C 
BRANCH  19  20
ATOM     20  C   LIG    1       -0.690  -2.360  -1.591  0.00  0.00    +0.220 A 
ATOM     21  N   LIG    1       -1.331  -2.448  -2.723  0.00  0.00    -0.450 NA
ATOM     22  C   LIG    1       -2.577  -2.884  -2.482  0.00  0.00    +0.170 A 
ATOM     23  C   LIG    1       -2.698  -3.058  -1.141  0.00  0.00    -0.020 A 
ATOM     24  O   LIG    1       -1.508  -2.726  -0.595  0.00  0.00    -0.200 OA
BRANCH  23  25
ATOM     25  C   LIG    1       -3.900  -3.523  -0.418  0.00  0.00    +0.010 A 
ATOM     26  C   LIG    1       -3.873  -3.660   0.971  0.00  0.00    +0.030 A 
ATOM     27  C   LIG    1       -5.001  -4.088   1.641  0.00  0.00    +0.040 A 
ATOM     28  C   LIG    1       -6.153  -4.392   0.939  0.00  0.00    +0.040 A 
ATOM     29  C   LIG    1       -6.186  -4.264  -0.439  0.00  0.00    -0.030 A 
ATOM     30 CL   LIG    1       -7.636  -4.649  -1.312  0.00  0.00    -0.060 Cl
ATOM     31  C   LIG    1       -5.066  -3.831  -1.121  0.00  0.00    +0.050 A 
ENDBRANCH  23  25
ENDBRANCH  19  20
ENDBRANCH   6  19
TORSDOF 6
