REMARK  Name = ZINCrD000000B9pL.0
REMARK                            x       y       z     vdW  Elec       q    Type
REMARK                         _______ _______ _______ _____ _____    ______ ____
ROOT
ATOM      1  C   LIG    1        2.424   0.737  -0.017  0.00  0.00    +0.110 C 
ENDROOT
BRANCH   1   2
ATOM      2  C   LIG    1        3.716   1.504   0.099  0.00  0.00    -0.160 A 
ATOM      3  C   LIG    1        4.168   2.441  -0.750  0.00  0.00    +0.240 A 
ATOM      4  N   LIG    1        5.377   2.916  -0.320  0.00  0.00    -0.590 N 
ATOM      5  H   LIG    1        5.898   3.599  -0.770  0.00  0.00    +0.420 HD
ATOM      6  C   LIG    1        5.742   2.280   0.845  0.00  0.00    +0.100 A 
ATOM      7  C   LIG    1        6.847   2.380   1.684  0.00  0.00    -0.010 A 
ATOM      8  C   LIG    1        6.926   1.587   2.808  0.00  0.00    +0.030 A 
ATOM      9  C   LIG    1        5.913   0.688   3.113  0.00  0.00    -0.020 A 
ATOM     10  C   LIG    1        4.819   0.574   2.303  0.00  0.00    +0.050 A 
ATOM     11  C   LIG    1        4.715   1.372   1.162  0.00  0.00    -0.100 A 
ENDBRANCH   1   2
BRANCH   1  12
ATOM     12  C   LIG    1        2.414  -0.039  -1.309  0.00  0.00    -0.080 A 
ATOM     13  C   LIG    1        2.511   0.628  -2.516  0.00  0.00    +0.010 A 
ATOM     14  C   LIG    1        2.505  -0.085  -3.701  0.00  0.00    +0.000 A 
ATOM     15  C   LIG    1        2.395  -1.462  -3.679  0.00  0.00    +0.000 A 
ATOM     16  C   LIG    1        2.293  -2.128  -2.472  0.00  0.00    +0.010 A 
ATOM     17  C   LIG    1        2.302  -1.416  -1.287  0.00  0.00    +0.000 A 
ENDBRANCH   1  12
BRANCH   1  18
ATOM     18  C   LIG    1        1.248   1.716  -0.001  0.00  0.00    +0.290 C 
BRANCH  18  21
ATOM     19  O   LIG    1       -1.204   2.839   0.023  0.00  0.00    -0.520 OA
ATOM     20  C   LIG    1       -1.187   1.624   0.017  0.00  0.00    +0.560 C 
ATOM     21  N   LIG    1       -0.011   0.966   0.007  0.00  0.00    -0.720 N 
ATOM     22  H   LIG    1        0.002  -0.004   0.002  0.00  0.00    +0.400 HD
BRANCH  20  23
ATOM     23  C   LIG    1       -2.459   0.867   0.018  0.00  0.00    -0.100 C 
ATOM     24  C   LIG    1       -2.462  -0.533   0.005  0.00  0.00    +0.080 C 
ATOM     25  C   LIG    1       -3.671  -1.199   0.012  0.00  0.00    +0.260 C 
ATOM     26  N   LIG    1       -4.811  -0.534   0.021  0.00  0.00    -0.110 NA
ATOM     27  C   LIG    1       -4.852   0.785   0.029  0.00  0.00    +0.260 C 
ATOM     28  O   LIG    1       -6.027  -1.259   0.023  0.00  0.00    -0.530 OA
ATOM     29  C   LIG    1       -3.691   1.530   0.028  0.00  0.00    +0.120 C 
ENDBRANCH  20  23
ENDBRANCH  18  21
ENDBRANCH   1  18
TORSDOF 5
