REMARK  Name = ZINCpe000000WaQI.0
REMARK                            x       y       z     vdW  Elec       q    Type
REMARK                         _______ _______ _______ _____ _____    ______ ____
ROOT
ATOM      1  N   LIG    1        0.002  -0.004   0.002  0.00  0.00    -0.690 N 
ATOM      2  H   LIG    1       -0.747  -0.501   0.366  0.00  0.00    +0.410 HD
ATOM      3  C   LIG    1        1.061  -0.661  -0.511  0.00  0.00    +0.580 C 
ATOM      4  O   LIG    1        2.001  -0.037  -0.967  0.00  0.00    -0.540 OA
ENDROOT
BRANCH   3   5
ATOM      5  C   LIG    1        1.081  -2.134  -0.519  0.00  0.00    -0.220 A 
ATOM      6  C   LIG    1        2.154  -2.814  -1.039  0.00  0.00    +0.380 A 
ATOM      7  N   LIG    1        2.195  -4.173  -1.059  0.00  0.00    -0.510 N 
ATOM      8  C   LIG    1        3.376  -4.763  -1.699  0.00  0.00    +0.340 C 
ATOM      9  C   LIG    1        3.809  -6.031  -0.959  0.00  0.00    -0.380 C 
ATOM     10  S   LIG    1        2.388  -7.168  -0.972  0.00  0.00    +2.550 S 
ATOM     11  N   LIG    1        1.153  -6.216  -0.423  0.00  0.00    -0.960 NA
ATOM     12  O   LIG    1        2.018  -7.500  -2.304  0.00  0.00    -0.960 OA
ATOM     13  O   LIG    1        2.535  -8.171   0.024  0.00  0.00    -0.940 OA
ATOM     14  C   LIG    1        1.176  -4.906  -0.516  0.00  0.00    +0.520 A 
ATOM     15  C   LIG    1        0.028  -4.244   0.017  0.00  0.00    +0.020 A 
ATOM     16  C   LIG    1       -0.040  -2.896   0.033  0.00  0.00    +0.140 A 
ENDBRANCH   3   5
BRANCH   1  19
ATOM     17  C   LIG    1       -2.069   2.015   0.038  0.00  0.00    +0.170 C 
ATOM     18  C   LIG    1       -0.968   2.072  -1.036  0.00  0.00    -0.040 C 
ATOM     19  C   LIG    1       -0.018   1.461   0.010  0.00  0.00    +0.250 C 
ATOM     20  C   LIG    1       -1.232   1.155  -2.232  0.00  0.00    +0.040 C 
ATOM     21  C   LIG    1       -0.941   2.056   1.074  0.00  0.00    -0.110 C 
ATOM     22  C   LIG    1       -0.579   3.353   1.798  0.00  0.00    +0.050 C 
ATOM     23  C   LIG    1       -1.379   2.806   2.995  0.00  0.00    +0.010 C 
ATOM     24  C   LIG    1       -1.098   1.396   2.444  0.00  0.00    +0.040 C 
BRANCH  17  26
ATOM     25  C   LIG    1       -4.151   0.920  -0.426  0.00  0.00    +0.200 C 
ATOM     26  O   LIG    1       -2.806   0.791   0.040  0.00  0.00    -0.370 OA
ENDBRANCH  17  26
ENDBRANCH   1  19
TORSDOF 3
