REMARK  Name = ZINCrH000004pzzT.0
REMARK                            x       y       z     vdW  Elec       q    Type
REMARK                         _______ _______ _______ _____ _____    ______ ____
ROOT
ATOM      1  C   LIG    1       -1.117   5.245  -1.435  0.00  0.00    +0.020 A 
ATOM      2  N   LIG    1       -1.418   5.878  -0.318  0.00  0.00    -0.230 NA
ATOM      3  N   LIG    1       -0.430   5.822   0.501  0.00  0.00    -0.220 N 
ATOM      4  C   LIG    1        0.600   5.129  -0.056  0.00  0.00    -0.020 A 
ATOM      5  C   LIG    1        2.008   4.643   0.209  0.00  0.00    +0.130 C 
ATOM      6  C   LIG    1        2.574   4.281  -1.182  0.00  0.00    +0.060 C 
ATOM      7  C   LIG    1        1.289   3.967  -1.980  0.00  0.00    +0.110 C 
ATOM      8  C   LIG    1        0.199   4.747  -1.287  0.00  0.00    -0.150 A 
ENDROOT
BRANCH   3   9
ATOM      9  C   LIG    1       -0.415   6.393   1.782  0.00  0.00    +0.120 A 
ATOM     10  C   LIG    1        0.709   6.265   2.586  0.00  0.00    +0.060 A 
ATOM     11  C   LIG    1        0.722   6.833   3.847  0.00  0.00    -0.030 A 
ATOM     12  C   LIG    1       -0.386   7.519   4.311  0.00  0.00    +0.070 A 
ATOM     13  C   LIG    1       -1.510   7.643   3.514  0.00  0.00    +0.040 A 
ATOM     14 CL   LIG    1        2.130   6.680   4.851  0.00  0.00    -0.040 Cl
ATOM     15  C   LIG    1       -1.528   7.082   2.250  0.00  0.00    +0.120 A 
ATOM     16  F   LIG    1       -2.625   7.205   1.472  0.00  0.00    -0.110 F 
ENDBRANCH   3   9
BRANCH   1  18
ATOM     17  N   LIG    1       -3.236   5.594  -2.607  0.00  0.00    -0.590 N 
ATOM     18  C   LIG    1       -1.988   5.087  -2.617  0.00  0.00    +0.600 C 
ATOM     19  O   LIG    1       -1.579   4.498  -3.599  0.00  0.00    -0.530 OA
ATOM     20  C   LIG    1       -3.691   6.399  -1.470  0.00  0.00    +0.300 C 
BRANCH  17  22
ATOM     21  C   LIG    1       -4.553   6.671  -4.363  0.00  0.00    +0.040 C 
ATOM     22  C   LIG    1       -4.139   5.341  -3.732  0.00  0.00    +0.240 C 
BRANCH  22  23
ATOM     23  C   LIG    1       -5.384   4.604  -3.232  0.00  0.00    +0.150 C 
ATOM     24  C   LIG    1       -6.284   4.226  -4.428  0.00  0.00    +0.010 C 
ATOM     25  C   LIG    1       -7.708   4.485  -3.860  0.00  0.00    +0.000 C 
ATOM     26  C   LIG    1       -7.442   5.698  -2.934  0.00  0.00    +0.190 C 
ATOM     27  O   LIG    1       -6.142   5.461  -2.371  0.00  0.00    -0.370 OA
ENDBRANCH  22  23
ENDBRANCH  17  22
ENDBRANCH   1  18
TORSDOF 4
