REMARK  Name = ZINCkj000005mkhS.0
REMARK                            x       y       z     vdW  Elec       q    Type
REMARK                         _______ _______ _______ _____ _____    ______ ____
ROOT
ATOM      1  N   LIG    1        0.002  -0.004   0.002  0.00  0.00    -0.530 NA
ATOM      2  C   LIG    1       -0.018   1.464   0.010  0.00  0.00    +0.210 C 
ATOM      3  C   LIG    1        1.417   1.995  -0.001  0.00  0.00    +0.050 C 
ATOM      4  C   LIG    1        2.160   1.470   1.231  0.00  0.00    +0.150 C 
ATOM      5  C   LIG    1        2.125  -0.061   1.224  0.00  0.00    +0.050 C 
ATOM      6  C   LIG    1        0.669  -0.533   1.199  0.00  0.00    +0.190 C 
ENDROOT
BRANCH   4   7
ATOM      7  N   LIG    1        3.555   1.928   1.195  0.00  0.00    -0.380 N 
ATOM      8  C   LIG    1        4.269   1.409   2.368  0.00  0.00    +0.250 C 
ATOM      9  C   LIG    1        5.742   1.817   2.295  0.00  0.00    +0.050 C 
ATOM     10  C   LIG    1        5.843   3.344   2.268  0.00  0.00    +0.030 C 
ATOM     11  C   LIG    1        5.034   3.879   1.084  0.00  0.00    +0.050 C 
ATOM     12  C   LIG    1        3.587   3.396   1.202  0.00  0.00    +0.250 C 
ATOM     13  H   LIG    1        3.999   1.587   0.356  0.00  0.00    +0.420 HD
ENDBRANCH   4   7
BRANCH   1  14
ATOM     14  C   LIG    1       -1.356  -0.548  -0.128  0.00  0.00    +0.160 C 
BRANCH  14  15
ATOM     15  C   LIG    1       -1.280  -2.055  -0.382  0.00  0.00    +0.220 C 
BRANCH  15  16
ATOM     16  C   LIG    1       -2.695  -2.622  -0.517  0.00  0.00    -0.070 C 
ATOM     17  C   LIG    1       -2.646  -4.152  -0.745  0.00  0.00    +0.020 C 
ATOM     18  C   LIG    1       -3.753  -4.357  -1.810  0.00  0.00    +0.210 C 
ATOM     19  O   LIG    1       -3.632  -3.191  -2.651  0.00  0.00    -0.370 OA
ATOM     20  C   LIG    1       -3.377  -2.073  -1.785  0.00  0.00    +0.190 C 
ENDBRANCH  15  16
BRANCH  15  21
ATOM     21  O   LIG    1       -0.552  -2.298  -1.588  0.00  0.00    -0.540 OA
ATOM     22  H   LIG    1       -0.947  -1.895  -2.373  0.00  0.00    +0.380 HD
ENDBRANCH  15  21
ENDBRANCH  14  15
ENDBRANCH   1  14
TORSDOF 5
