REMARK  Name = ZINCpe00000FUbaU.0
REMARK                            x       y       z     vdW  Elec       q    Type
REMARK                         _______ _______ _______ _____ _____    ______ ____
ROOT
ATOM      1  N   LIG    1       -2.698   3.972   0.051  0.00  0.00    -0.550 N 
ATOM      2  C   LIG    1       -2.219   2.711   0.039  0.00  0.00    +0.600 A 
ATOM      3  C   LIG    1       -0.831   2.502   0.028  0.00  0.00    -0.190 A 
ATOM      4  C   LIG    1        0.023   3.605   0.022  0.00  0.00    +0.380 A 
ATOM      5  N   LIG    1       -0.530   4.877   0.035  0.00  0.00    -0.510 N 
ATOM      6  C   LIG    1        0.341   6.054   0.034  0.00  0.00    +0.340 C 
ATOM      7  N   LIG    1        1.271   3.144   0.007  0.00  0.00    -0.500 NA
ATOM      8  C   LIG    1        1.263   1.819  -0.000  0.00  0.00    +0.460 A 
ATOM      9  N   LIG    1        2.077   0.717  -0.014  0.00  0.00    -0.450 N 
ATOM     10  C   LIG    1        1.270  -0.405  -0.012  0.00  0.00    +0.070 A 
ATOM     11  C   LIG    1        1.745  -1.835  -0.025  0.00  0.00    +0.180 C 
ATOM     12  C   LIG    1        0.002  -0.004   0.002  0.00  0.00    +0.180 A 
ATOM     13  N   LIG    1       -0.017   1.380   0.010  0.00  0.00    -0.350 N 
ATOM     14  O   LIG    1       -2.984   1.762   0.041  0.00  0.00    -0.520 OA
ATOM     15  C   LIG    1       -1.868   5.029   0.050  0.00  0.00    +0.710 A 
ATOM     16  O   LIG    1       -2.337   6.151   0.061  0.00  0.00    -0.530 OA
ENDROOT
BRANCH   1  17
ATOM     17  C   LIG    1       -4.146   4.193   0.067  0.00  0.00    +0.350 C 
BRANCH  17  19
ATOM     18  C   LIG    1       -5.623   3.487  -1.745  0.00  0.00    +0.040 C 
ATOM     19  C   LIG    1       -4.656   4.278  -1.349  0.00  0.00    -0.070 C 
ENDBRANCH  17  19
ENDBRANCH   1  17
BRANCH   9  20
ATOM     20  C   LIG    1        3.542   0.726  -0.028  0.00  0.00    +0.320 C 
BRANCH  20  21
ATOM     21  C   LIG    1        4.038   0.736  -1.475  0.00  0.00    +0.150 C 
ATOM     22  C   LIG    1        5.577   0.624  -1.502  0.00  0.00    +0.020 C 
ATOM     23  C   LIG    1        5.957   1.597  -2.654  0.00  0.00    +0.010 C 
ATOM     24  C   LIG    1        4.867   2.685  -2.493  0.00  0.00    +0.200 C 
ATOM     25  O   LIG    1        3.681   1.974  -2.102  0.00  0.00    -0.360 OA
ENDBRANCH  20  21
ENDBRANCH   9  20
TORSDOF 4
