REMARK  Name = ZINCvU0000000GW7.0
REMARK                            x       y       z     vdW  Elec       q    Type
REMARK                         _______ _______ _______ _____ _____    ______ ____
ROOT
ATOM      1  C   LIG    1        3.961  -2.741  -0.049  0.00  0.00    +0.360 A 
ATOM      2  N   LIG    1        2.731  -3.190  -0.039  0.00  0.00    -0.530 NA
ATOM      3  C   LIG    1        2.460  -4.511  -0.044  0.00  0.00    +0.160 A 
ATOM      4  C   LIG    1        1.146  -4.988  -0.035  0.00  0.00    +0.030 A 
ATOM      5  C   LIG    1        0.912  -6.344  -0.040  0.00  0.00    +0.070 A 
ATOM      6  C   LIG    1        1.966  -7.248  -0.055  0.00  0.00    +0.000 A 
ATOM      7  C   LIG    1        3.270  -6.804  -0.065  0.00  0.00    +0.100 A 
ATOM      8  C   LIG    1        3.530  -5.435  -0.059  0.00  0.00    -0.200 A 
ATOM      9  C   LIG    1        4.902  -4.907  -0.069  0.00  0.00    +0.560 A 
ATOM     10  O   LIG    1        5.864  -5.652  -0.083  0.00  0.00    -0.490 OA
ATOM     11  N   LIG    1        5.054  -3.563  -0.069  0.00  0.00    -0.480 N 
ENDROOT
BRANCH  11  12
ATOM     12  C   LIG    1        6.342  -3.008  -0.083  0.00  0.00    +0.040 A 
ATOM     13  C   LIG    1        6.997  -2.740   1.111  0.00  0.00    +0.120 A 
ATOM     14  C   LIG    1        8.266  -2.194   1.095  0.00  0.00    +0.010 A 
ATOM     15  C   LIG    1        8.886  -1.913  -0.111  0.00  0.00    +0.160 A 
ATOM     16  C   LIG    1        8.235  -2.178  -1.305  0.00  0.00    -0.030 A 
ATOM     17  F   LIG    1       10.126  -1.378  -0.123  0.00  0.00    -0.120 F 
ATOM     18  C   LIG    1        6.968  -2.730  -1.294  0.00  0.00    +0.160 A 
ATOM     19  F   LIG    1        6.335  -2.995  -2.458  0.00  0.00    -0.120 F 
ENDBRANCH  11  12
BRANCH   1  20
ATOM     20  S   LIG    1        4.220  -0.998  -0.042  0.00  0.00    +0.060 S 
BRANCH  20  21
ATOM     21  C   LIG    1        2.502  -0.426  -0.023  0.00  0.00    +0.110 C 
BRANCH  21  22
ATOM     22  C   LIG    1        2.475   1.081  -0.015  0.00  0.00    +0.420 C 
ATOM     23  O   LIG    1        3.514   1.706  -0.022  0.00  0.00    -0.440 OA
BRANCH  22  28
ATOM     24  C   LIG    1       -2.554   3.864   0.047  0.00  0.00    +0.100 C 
ATOM     25  C   LIG    1       -1.236   3.135   0.031  0.00  0.00    -0.050 A 
ATOM     26  C   LIG    1       -1.215   1.751   0.017  0.00  0.00    +0.000 A 
ATOM     27  C   LIG    1       -0.013   1.076   0.008  0.00  0.00    +0.060 A 
ATOM     28  C   LIG    1        1.188   1.793   0.000  0.00  0.00    -0.170 A 
ATOM     29  C   LIG    1        1.158   3.192   0.008  0.00  0.00    +0.090 A 
ATOM     30  C   LIG    1       -0.052   3.852   0.023  0.00  0.00    -0.100 A 
ATOM     31  C   LIG    1       -0.086   5.359   0.031  0.00  0.00    +0.090 C 
ENDBRANCH  22  28
ENDBRANCH  21  22
ENDBRANCH  20  21
ENDBRANCH   1  20
TORSDOF 5
