REMARK  Name = ZINCAx0000000bdS.0
REMARK                            x       y       z     vdW  Elec       q    Type
REMARK                         _______ _______ _______ _____ _____    ______ ____
ROOT
ATOM      1  C   LIG    1       -0.684   0.719   0.226  0.00  0.00    +0.240 C 
ENDROOT
BRANCH   1   2
ATOM      2  N   LIG    1       -1.817   1.093  -0.631  0.00  0.00    -0.500 NA
ATOM      3  C   LIG    1       -3.097   0.783   0.022  0.00  0.00    +0.200 C 
ATOM      4  C   LIG    1       -4.248   1.259  -0.867  0.00  0.00    +0.210 C 
ATOM      5  N   LIG    1       -4.156   0.602  -2.178  0.00  0.00    -0.480 N 
ATOM      6  C   LIG    1       -2.876   0.912  -2.831  0.00  0.00    +0.240 C 
ATOM      7  C   LIG    1       -1.725   0.436  -1.942  0.00  0.00    +0.170 C 
BRANCH   5   8
ATOM      8  C   LIG    1       -5.225   0.955  -2.987  0.00  0.00    +0.370 A 
ATOM      9  C   LIG    1       -6.532   0.746  -2.560  0.00  0.00    -0.110 A 
ATOM     10  C   LIG    1       -7.570   1.119  -3.409  0.00  0.00    +0.370 A 
ATOM     11  N   LIG    1       -7.277   1.657  -4.591  0.00  0.00    -0.570 NA
ATOM     12  C   LIG    1       -6.025   1.838  -4.960  0.00  0.00    +0.550 A 
ATOM     13  N   LIG    1       -5.015   1.504  -4.183  0.00  0.00    -0.570 NA
BRANCH  10  14
ATOM     14  N   LIG    1       -8.890   0.932  -3.030  0.00  0.00    -0.470 N 
ATOM     15  C   LIG    1       -9.149  -0.476  -2.696  0.00  0.00    +0.180 C 
ATOM     16  C   LIG    1      -10.598  -0.627  -2.227  0.00  0.00    +0.230 C 
ATOM     17  O   LIG    1      -11.476  -0.142  -3.246  0.00  0.00    -0.380 OA
ATOM     18  C   LIG    1      -11.253   1.226  -3.595  0.00  0.00    +0.230 C 
ATOM     19  C   LIG    1       -9.811   1.395  -4.079  0.00  0.00    +0.190 C 
ENDBRANCH  10  14
ENDBRANCH   5   8
ENDBRANCH   1   2
BRANCH   1  20
ATOM     20  C   LIG    1        0.608   1.063  -0.469  0.00  0.00    +0.260 A 
ATOM     21  N   LIG    1        0.807   2.067  -1.283  0.00  0.00    -0.290 NA
ATOM     22  N   LIG    1        2.020   2.075  -1.703  0.00  0.00    -0.030 NA
ATOM     23  N   LIG    1        2.675   1.088  -1.193  0.00  0.00    -0.070 NA
ATOM     24  N   LIG    1        1.776   0.394  -0.364  0.00  0.00    -0.330 N 
BRANCH  24  25
ATOM     25  C   LIG    1        2.037  -0.750   0.406  0.00  0.00    +0.110 A 
ATOM     26  C   LIG    1        1.419  -0.914   1.638  0.00  0.00    +0.050 A 
ATOM     27  C   LIG    1        1.673  -2.042   2.392  0.00  0.00    +0.020 A 
ATOM     28  C   LIG    1        2.552  -3.005   1.925  0.00  0.00    +0.120 A 
ATOM     29  C   LIG    1        3.174  -2.840   0.699  0.00  0.00    +0.020 A 
ATOM     30  F   LIG    1        2.804  -4.106   2.667  0.00  0.00    -0.130 F 
ATOM     31  C   LIG    1        2.918  -1.716  -0.061  0.00  0.00    +0.090 A 
ENDBRANCH  24  25
ENDBRANCH   1  20
BRANCH   1  32
ATOM     32  C   LIG    1       -0.771   1.485   1.548  0.00  0.00    +0.050 C 
BRANCH  32  34
ATOM     33  C   LIG    1       -1.393   3.318  -0.031  0.00  0.00    +0.060 C 
ATOM     34  C   LIG    1       -0.669   2.987   1.275  0.00  0.00    -0.060 C 
ATOM     35  C   LIG    1        0.804   3.385   1.157  0.00  0.00    +0.010 C 
ATOM     36  C   LIG    1       -1.315   3.759   2.427  0.00  0.00    +0.020 C 
ENDBRANCH  32  34
ENDBRANCH   1  32
TORSDOF 7
