REMARK  Name = ZINCqH0000001b1T.0
REMARK                            x       y       z     vdW  Elec       q    Type
REMARK                         _______ _______ _______ _____ _____    ______ ____
ROOT
ATOM      1  C   LIG    1       -3.600   2.179  -0.163  0.00  0.00    +0.340 C 
ENDROOT
BRANCH   1   2
ATOM      2  N   LIG    1       -2.339   1.439  -0.067  0.00  0.00    -0.740 N 
ATOM      3  H   LIG    1       -2.343   0.469  -0.078  0.00  0.00    +0.400 HD
ATOM      4  C   LIG    1       -1.173   2.107   0.036  0.00  0.00    +0.710 C 
ATOM      5  N   LIG    1       -0.006   1.431   0.022  0.00  0.00    -0.630 N 
ATOM      6  C   LIG    1        1.275   2.150   0.018  0.00  0.00    +0.290 C 
ATOM      7  C   LIG    1        2.132   1.638   1.180  0.00  0.00    +0.030 C 
ATOM      8  C   LIG    1        2.265   0.117   1.078  0.00  0.00    +0.040 C 
ATOM      9  C   LIG    1        0.879  -0.526   1.180  0.00  0.00    -0.030 C 
ATOM     10  C   LIG    1        0.008  -0.038   0.018  0.00  0.00    +0.300 C 
ATOM     11  O   LIG    1       -1.172   3.318   0.141  0.00  0.00    -0.580 OA
BRANCH   9  12
ATOM     12  C   LIG    1        1.016  -2.048   1.111  0.00  0.00    +0.460 C 
ATOM     13  F   LIG    1        1.609  -2.409  -0.103  0.00  0.00    -0.180 F 
ATOM     14  F   LIG    1       -0.251  -2.635   1.204  0.00  0.00    -0.180 F 
ATOM     15  F   LIG    1        1.815  -2.493   2.171  0.00  0.00    -0.180 F 
ENDBRANCH   9  12
ENDBRANCH   1   2
BRANCH   1  19
ATOM     16  C   LIG    1       -6.851  -0.580  -0.459  0.00  0.00    +0.150 A 
ATOM     17  C   LIG    1       -6.419  -0.144   0.787  0.00  0.00    +0.020 A 
ATOM     18  C   LIG    1       -5.369   0.747   0.879  0.00  0.00    +0.050 A 
ATOM     19  C   LIG    1       -4.746   1.206  -0.267  0.00  0.00    -0.130 A 
ATOM     20  C   LIG    1       -5.176   0.778  -1.510  0.00  0.00    +0.050 A 
ATOM     21  C   LIG    1       -6.223  -0.118  -1.609  0.00  0.00    -0.020 A 
BRANCH  16  23
ATOM     22  C   LIG    1       -8.937  -1.418   0.319  0.00  0.00    +0.520 C 
ATOM     23  N   LIG    1       -7.914  -1.484  -0.556  0.00  0.00    -0.680 N 
ATOM     24  H   LIG    1       -7.916  -2.158  -1.254  0.00  0.00    +0.410 HD
ATOM     25  O   LIG    1       -8.895  -0.631   1.242  0.00  0.00    -0.510 OA
BRANCH  22  27
ATOM     26  C   LIG    1      -11.139  -2.046   1.270  0.00  0.00    +0.050 C 
ATOM     27  C   LIG    1      -10.132  -2.321   0.152  0.00  0.00    -0.010 C 
ATOM     28  C   LIG    1      -10.788  -2.053  -1.204  0.00  0.00    +0.040 C 
ENDBRANCH  22  27
ENDBRANCH  16  23
ENDBRANCH   1  19
TORSDOF 5
