REMARK  Name = ZINCrD0000071T0F.0
REMARK                            x       y       z     vdW  Elec       q    Type
REMARK                         _______ _______ _______ _____ _____    ______ ____
ROOT
ATOM      1  C   LIG    1        0.002  -0.004   0.002  0.00  0.00    -0.010 C 
ATOM      2  C   LIG    1        0.543  -0.518  -1.348  0.00  0.00    +0.060 C 
ATOM      3  C   LIG    1       -0.301  -1.783  -1.639  0.00  0.00    +0.020 C 
ATOM      4  C   LIG    1       -1.708  -1.379  -1.133  0.00  0.00    +0.030 C 
ATOM      5  C   LIG    1       -1.429  -0.551   0.139  0.00  0.00    +0.060 C 
ENDROOT
BRANCH   1   6
ATOM      6  C   LIG    1       -0.018   1.503   0.010  0.00  0.00    -0.070 A 
ATOM      7  C   LIG    1        0.556   2.196   1.059  0.00  0.00    +0.050 A 
ATOM      8  C   LIG    1        0.541   3.578   1.065  0.00  0.00    +0.030 A 
ATOM      9  C   LIG    1       -0.057   4.267   0.026  0.00  0.00    +0.070 A 
ATOM     10  C   LIG    1       -0.635   3.574  -1.021  0.00  0.00    -0.180 A 
ATOM     11  C   LIG    1       -0.617   2.192  -1.028  0.00  0.00    +0.080 A 
BRANCH  10  12
ATOM     12  C   LIG    1       -1.287   4.325  -2.153  0.00  0.00    +0.510 C 
ATOM     13  F   LIG    1       -1.182   3.576  -3.331  0.00  0.00    -0.180 F 
ATOM     14  F   LIG    1       -0.647   5.557  -2.325  0.00  0.00    -0.170 F 
ATOM     15  F   LIG    1       -2.637   4.538  -1.855  0.00  0.00    -0.180 F 
ENDBRANCH  10  12
ENDBRANCH   1   6
BRANCH   1  16
ATOM     16  C   LIG    1        0.860  -0.514   1.131  0.00  0.00    +0.480 C 
ATOM     17  O   LIG    1        0.382  -1.234   1.975  0.00  0.00    -0.490 OA
BRANCH  16  18
ATOM     18  O   LIG    1        2.155  -0.169   1.199  0.00  0.00    -0.330 OA
BRANCH  18  19
ATOM     19  C   LIG    1        2.921  -0.698   2.313  0.00  0.00    +0.280 C 
BRANCH  19  23
ATOM     20  C   LIG    1        6.514  -0.134   3.078  0.00  0.00    +0.640 C 
ATOM     21  N   LIG    1        5.242  -0.573   3.158  0.00  0.00    -0.660 N 
ATOM     22  H   LIG    1        4.974  -1.152   3.889  0.00  0.00    +0.420 HD
ATOM     23  C   LIG    1        4.343  -0.207   2.224  0.00  0.00    +0.520 C 
ATOM     24  O   LIG    1        4.678   0.516   1.310  0.00  0.00    -0.430 OA
ATOM     25  O   LIG    1        6.850   0.591   2.163  0.00  0.00    -0.500 OA
BRANCH  20  26
ATOM     26  O   LIG    1        7.412  -0.499   4.012  0.00  0.00    -0.360 OA
BRANCH  26  28
ATOM     27  C   LIG    1        9.634  -0.507   5.008  0.00  0.00    +0.080 C 
ATOM     28  C   LIG    1        8.763   0.011   3.862  0.00  0.00    +0.240 C 
ENDBRANCH  26  28
ENDBRANCH  20  26
ENDBRANCH  19  23
ENDBRANCH  18  19
ENDBRANCH  16  18
ENDBRANCH   1  16
TORSDOF 8
