REMARK  Name = ZINCpe00000gMRkt.0
REMARK                            x       y       z     vdW  Elec       q    Type
REMARK                         _______ _______ _______ _____ _____    ______ ____
ROOT
ATOM      1  C   LIG    1        0.122  -4.319  -0.021  0.00  0.00    +0.300 C 
ENDROOT
BRANCH   1   3
ATOM      2  C   LIG    1        1.249  -2.159  -0.021  0.00  0.00    +0.560 C 
ATOM      3  N   LIG    1        0.095  -2.854  -0.013  0.00  0.00    -0.730 N 
ATOM      4  H   LIG    1       -0.754  -2.385  -0.003  0.00  0.00    +0.400 HD
ATOM      5  O   LIG    1        2.313  -2.747  -0.034  0.00  0.00    -0.510 OA
BRANCH   2  10
ATOM      6  C   LIG    1        1.136   3.596   0.010  0.00  0.00    +0.100 C 
ATOM      7  C   LIG    1        1.170   2.089   0.002  0.00  0.00    -0.040 A 
ATOM      8  C   LIG    1       -0.017   1.374   0.010  0.00  0.00    -0.010 A 
ATOM      9  C   LIG    1        0.002  -0.004   0.002  0.00  0.00    +0.060 A 
ATOM     10  C   LIG    1        1.222  -0.684  -0.013  0.00  0.00    -0.180 A 
ATOM     11  C   LIG    1        2.420   0.043  -0.021  0.00  0.00    +0.180 A 
ATOM     12  C   LIG    1        2.383   1.429  -0.013  0.00  0.00    -0.020 A 
BRANCH  11  13
ATOM     13  O   LIG    1        3.611  -0.606  -0.035  0.00  0.00    -0.480 OA
ATOM     14  H   LIG    1        3.948  -0.790  -0.923  0.00  0.00    +0.400 HD
ENDBRANCH  11  13
ENDBRANCH   2  10
ENDBRANCH   1   3
BRANCH   1  15
ATOM     15  C   LIG    1       -1.311  -4.856  -0.010  0.00  0.00    +0.050 C 
BRANCH  15  16
ATOM     16  C   LIG    1       -1.283  -6.363  -0.017  0.00  0.00    +0.520 C 
ATOM     17  N   LIG    1       -2.437  -7.058  -0.010  0.00  0.00    -0.610 N 
ATOM     18  C   LIG    1       -3.738  -6.370   0.013  0.00  0.00    +0.250 C 
ATOM     19  C   LIG    1       -4.609  -6.950  -1.114  0.00  0.00    +0.220 C 
ATOM     20  O   LIG    1       -4.641  -8.375  -0.997  0.00  0.00    -0.360 OA
ATOM     21  C   LIG    1       -3.366  -9.001  -1.142  0.00  0.00    +0.120 C 
ATOM     22  C   LIG    1       -3.521 -10.520  -1.082  0.00  0.00    +0.250 C 
ATOM     23  O   LIG    1       -4.005 -10.905   0.206  0.00  0.00    -0.370 OA
ATOM     24  C   LIG    1       -3.133 -10.549   1.282  0.00  0.00    +0.220 C 
ATOM     25  C   LIG    1       -2.982  -9.027   1.326  0.00  0.00    +0.000 C 
ATOM     26  C   LIG    1       -2.437  -8.531  -0.017  0.00  0.00    +0.220 C 
ATOM     27  O   LIG    1       -0.222  -6.949  -0.031  0.00  0.00    -0.530 OA
ENDBRANCH  15  16
ENDBRANCH   1  15
TORSDOF 5
