REMARK  Name = ZINCrD00000hQ5Jz.0
REMARK                            x       y       z     vdW  Elec       q    Type
REMARK                         _______ _______ _______ _____ _____    ______ ____
ROOT
ATOM      1  C   LIG    1        1.268   2.768   0.057  0.00  0.00    +0.500 C 
ATOM      2  N   LIG    1        0.729   3.399  -1.005  0.00  0.00    -0.720 N 
ATOM      3  H   LIG    1        0.249   2.892  -1.679  0.00  0.00    +0.400 HD
ATOM      4  O   LIG    1        1.788   3.410   0.944  0.00  0.00    -0.500 OA
ENDROOT
BRANCH   1  15
ATOM      5  C   LIG    1       -1.116   1.273  -0.757  0.00  0.00    +0.080 C 
ATOM      6  C   LIG    1       -0.219   0.802   0.390  0.00  0.00    +0.160 C 
ATOM      7  O   LIG    1       -0.668   1.376   1.622  0.00  0.00    -0.300 OA
ATOM      8  C   LIG    1        0.185   1.298   2.680  0.00  0.00    +0.050 A 
ATOM      9  C   LIG    1       -0.301   1.499   3.963  0.00  0.00    +0.020 A 
ATOM     10  C   LIG    1        0.554   1.430   5.046  0.00  0.00    +0.010 A 
ATOM     11  C   LIG    1        1.896   1.159   4.854  0.00  0.00    +0.010 A 
ATOM     12  C   LIG    1        2.387   0.956   3.578  0.00  0.00    +0.020 A 
ATOM     13  C   LIG    1        1.534   1.023   2.487  0.00  0.00    +0.060 A 
ATOM     14  O   LIG    1        2.031   0.818   1.237  0.00  0.00    -0.280 OA
ATOM     15  C   LIG    1        1.223   1.264   0.142  0.00  0.00    +0.180 C 
ENDBRANCH   1  15
BRANCH   2  16
ATOM     16  C   LIG    1        0.867   4.851  -1.141  0.00  0.00    +0.320 C 
ATOM     17  C   LIG    1        0.759   5.244  -2.619  0.00  0.00    +0.020 C 
ATOM     18  C   LIG    1        0.645   6.766  -2.737  0.00  0.00    +0.040 C 
ATOM     19  C   LIG    1       -0.725   7.219  -2.218  0.00  0.00    +0.110 C 
ATOM     20  C   LIG    1       -0.951   6.593  -0.864  0.00  0.00    +0.100 A 
ATOM     21  N   LIG    1       -1.850   6.944   0.070  0.00  0.00    -0.350 N 
ATOM     22  N   LIG    1       -1.691   6.082   1.165  0.00  0.00    -0.300 NA
ATOM     23  C   LIG    1       -0.724   5.241   0.888  0.00  0.00    +0.260 A 
ATOM     24  C   LIG    1       -0.242   5.540  -0.384  0.00  0.00    -0.260 A 
BRANCH  21  25
ATOM     25  C   LIG    1       -2.824   8.034  -0.036  0.00  0.00    +0.180 C 
ATOM     26  C   LIG    1       -2.087   9.374  -0.082  0.00  0.00    +0.060 C 
ATOM     27  C   LIG    1       -3.755   8.005   1.178  0.00  0.00    +0.070 C 
ATOM     28  C   LIG    1       -3.647   7.860  -1.314  0.00  0.00    +0.050 C 
ENDBRANCH  21  25
ENDBRANCH   2  16
TORSDOF 3
