REMARK  Name = ZINCpe00000ca7te.0
REMARK                            x       y       z     vdW  Elec       q    Type
REMARK                         _______ _______ _______ _____ _____    ______ ____
ROOT
ATOM      1  C   LIG    1       -0.098  -0.187   0.143  0.00  0.00    +0.290 C 
ENDROOT
BRANCH   1   4
ATOM      2  O   LIG    1       -2.642  -0.147   1.044  0.00  0.00    -0.530 OA
ATOM      3  C   LIG    1       -1.845  -0.741   1.748  0.00  0.00    +0.590 C 
ATOM      4  N   LIG    1       -0.561  -0.864   1.356  0.00  0.00    -0.720 N 
ATOM      5  H   LIG    1        0.056  -1.397   1.881  0.00  0.00    +0.410 HD
BRANCH   3   6
ATOM      6  C   LIG    1       -2.268  -1.303   2.978  0.00  0.00    -0.030 A 
ATOM      7  C   LIG    1       -3.578  -1.345   3.448  0.00  0.00    +0.090 A 
ATOM      8  C   LIG    1       -3.562  -1.976   4.676  0.00  0.00    -0.010 A 
ATOM      9  C   LIG    1       -2.238  -2.312   4.960  0.00  0.00    +0.010 A 
ATOM     10  C   LIG    1       -1.637  -2.955   6.057  0.00  0.00    +0.160 A 
ATOM     11  C   LIG    1       -0.288  -3.149   6.055  0.00  0.00    -0.050 A 
ATOM     12  C   LIG    1        0.482  -2.711   4.971  0.00  0.00    +0.340 A 
ATOM     13  N   LIG    1       -0.073  -2.113   3.950  0.00  0.00    -0.290 NA
ATOM     14  N   LIG    1       -1.456  -1.894   3.913  0.00  0.00    -0.230 N 
ENDBRANCH   3   6
ENDBRANCH   1   4
BRANCH   1  15
ATOM     15  C   LIG    1        1.412  -0.387  -0.007  0.00  0.00    +0.140 C 
ATOM     16  C   LIG    1        1.934  -0.096  -1.424  0.00  0.00    +0.050 C 
ATOM     17  C   LIG    1        2.849  -1.320  -1.254  0.00  0.00    +0.020 C 
ATOM     18  C   LIG    1        1.819  -1.851  -0.244  0.00  0.00    +0.030 C 
BRANCH  15  19
ATOM     19  N   LIG    1        2.181   0.272   1.051  0.00  0.00    -0.710 N 
ATOM     20  H   LIG    1        2.687  -0.259   1.685  0.00  0.00    +0.400 HD
ATOM     21  C   LIG    1        2.187   1.617   1.142  0.00  0.00    +0.490 C 
ATOM     22  O   LIG    1        1.494   2.278   0.398  0.00  0.00    -0.520 OA
BRANCH  21  23
ATOM     23  C   LIG    1        3.053   2.299   2.170  0.00  0.00    +0.250 C 
BRANCH  23  24
ATOM     24  C   LIG    1        2.565   1.931   3.573  0.00  0.00    -0.090 C 
ATOM     25  C   LIG    1        1.921   3.039   4.409  0.00  0.00    +0.030 C 
ATOM     26  C   LIG    1        3.320   2.528   4.762  0.00  0.00    +0.040 C 
ENDBRANCH  23  24
BRANCH  23  27
ATOM     27  O   LIG    1        2.975   3.715   1.994  0.00  0.00    -0.530 OA
ATOM     28  H   LIG    1        2.083   4.074   2.089  0.00  0.00    +0.390 HD
ENDBRANCH  23  27
ENDBRANCH  21  23
ENDBRANCH  15  19
ENDBRANCH   1  15
TORSDOF 7
