REMARK  Name = ZINCtV000002Jl3S.0
REMARK                            x       y       z     vdW  Elec       q    Type
REMARK                         _______ _______ _______ _____ _____    ______ ____
ROOT
ATOM      1  C   LIG    1        0.549   7.370  -0.001  0.00  0.00    +0.150 A 
ATOM      2  N   LIG    1       -0.746   7.297  -0.188  0.00  0.00    -0.470 NA
ATOM      3  C   LIG    1       -1.144   6.021   0.010  0.00  0.00    +0.060 A 
ATOM      4  C   LIG    1       -0.022   5.293   0.344  0.00  0.00    +0.010 A 
ATOM      5  O   LIG    1        1.021   6.156   0.326  0.00  0.00    -0.170 OA
ENDROOT
BRANCH   4   6
ATOM      6  C   LIG    1        0.033   3.852   0.654  0.00  0.00    -0.020 A 
ATOM      7  C   LIG    1        0.978   3.035   0.028  0.00  0.00    +0.040 A 
ATOM      8  C   LIG    1        1.023   1.688   0.323  0.00  0.00    +0.010 A 
ATOM      9  C   LIG    1        0.136   1.147   1.237  0.00  0.00    +0.030 A 
ATOM     10  C   LIG    1       -0.806   1.949   1.856  0.00  0.00    +0.010 A 
ATOM     11  C   LIG    1       -0.860   3.298   1.575  0.00  0.00    +0.050 A 
ENDBRANCH   4   6
BRANCH   3  12
ATOM     12  C   LIG    1       -2.527   5.503  -0.105  0.00  0.00    -0.020 A 
ATOM     13  C   LIG    1       -2.766   4.281  -0.733  0.00  0.00    +0.030 A 
ATOM     14  C   LIG    1       -4.056   3.801  -0.832  0.00  0.00    +0.010 A 
ATOM     15  C   LIG    1       -5.112   4.535  -0.320  0.00  0.00    +0.020 A 
ATOM     16  C   LIG    1       -4.881   5.750   0.298  0.00  0.00    +0.010 A 
ATOM     17  C   LIG    1       -3.595   6.238   0.408  0.00  0.00    +0.030 A 
ENDBRANCH   3  12
BRANCH   1  18
ATOM     18  S   LIG    1        1.520   8.832  -0.155  0.00  0.00    +0.140 S 
BRANCH  18  19
ATOM     19  C   LIG    1        0.230  10.019  -0.605  0.00  0.00    +0.100 C 
BRANCH  19  22
ATOM     20  N   LIG    1        0.069  12.430  -1.134  0.00  0.00    -0.660 N 
ATOM     21  H   LIG    1       -0.893  12.324  -1.190  0.00  0.00    +0.410 HD
ATOM     22  C   LIG    1        0.845  11.382  -0.794  0.00  0.00    +0.540 C 
ATOM     23  O   LIG    1        2.038  11.536  -0.639  0.00  0.00    -0.500 OA
BRANCH  20  30
ATOM     24  C   LIG    1       -1.140  14.076  -3.116  0.00  0.00    +0.080 C 
ATOM     25  C   LIG    1        0.094  14.507  -2.368  0.00  0.00    -0.110 A 
ATOM     26  C   LIG    1        0.672  15.732  -2.635  0.00  0.00    +0.030 A 
ATOM     27  C   LIG    1        1.805  16.129  -1.948  0.00  0.00    -0.010 A 
ATOM     28  C   LIG    1        2.363  15.300  -0.992  0.00  0.00    +0.020 A 
ATOM     29  C   LIG    1        1.786  14.076  -0.716  0.00  0.00    +0.020 A 
ATOM     30  C   LIG    1        0.652  13.673  -1.408  0.00  0.00    +0.140 A 
ENDBRANCH  20  30
ENDBRANCH  19  22
ENDBRANCH  18  19
ENDBRANCH   1  18
TORSDOF 6
