REMARK  Name = ZINCrH000004jkrG.1
REMARK                            x       y       z     vdW  Elec       q    Type
REMARK                         _______ _______ _______ _____ _____    ______ ____
ROOT
ATOM      1  C   LIG    1        3.646   6.147  -0.032  0.00  0.00    +0.260 C 
ENDROOT
BRANCH   1   4
ATOM      2  N   LIG    1        4.463   8.482  -0.038  0.00  0.00    -0.620 N 
ATOM      3  H   LIG    1        5.321   8.149  -0.345  0.00  0.00    +0.430 HD
ATOM      4  C   LIG    1        3.466   7.618   0.240  0.00  0.00    +0.510 C 
ATOM      5  O   LIG    1        2.425   8.026   0.709  0.00  0.00    -0.460 OA
BRANCH   2   9
ATOM      6  C   LIG    1        4.239  12.288   0.280  0.00  0.00    +0.020 A 
ATOM      7  N   LIG    1        3.147  11.671   0.605  0.00  0.00    -0.230 NA
ATOM      8  N   LIG    1        3.163  10.412   0.519  0.00  0.00    -0.270 NA
ATOM      9  C   LIG    1        4.263   9.849   0.116  0.00  0.00    +0.220 A 
ATOM     10  S   LIG    1        5.426  11.070  -0.187  0.00  0.00    +0.110 S 
BRANCH   6  12
ATOM     11  C   LIG    1        4.988  14.196   1.675  0.00  0.00    +0.040 C 
ATOM     12  C   LIG    1        4.458  13.779   0.302  0.00  0.00    +0.150 C 
ENDBRANCH   6  12
ENDBRANCH   2   9
ENDBRANCH   1   4
BRANCH   1  13
ATOM     13  N   LIG    1        2.728   5.379   0.813  0.00  0.00    -0.710 N 
ATOM     14  H   LIG    1        1.911   5.788   1.139  0.00  0.00    +0.410 HD
ATOM     15  C   LIG    1        3.018   4.103   1.136  0.00  0.00    +0.570 C 
ATOM     16  O   LIG    1        4.041   3.590   0.728  0.00  0.00    -0.530 OA
BRANCH  15  17
ATOM     17  C   LIG    1        2.091   3.328   1.988  0.00  0.00    -0.140 A 
ATOM     18  C   LIG    1        2.388   2.006   2.325  0.00  0.00    +0.090 A 
ATOM     19  C   LIG    1        1.519   1.288   3.121  0.00  0.00    +0.010 A 
ATOM     20  C   LIG    1        0.353   1.874   3.581  0.00  0.00    -0.040 A 
ATOM     21  C   LIG    1        0.055   3.186   3.255  0.00  0.00    +0.000 A 
ATOM     22  C   LIG    1        0.915   3.914   2.460  0.00  0.00    +0.050 A 
BRANCH  20  23
ATOM     23  C   LIG    1       -0.595   1.082   4.444  0.00  0.00    -0.040 C 
ATOM     24  C   LIG    1       -1.075  -0.151   3.676  0.00  0.00    +0.040 C 
ATOM     25  C   LIG    1       -1.797   1.953   4.814  0.00  0.00    +0.030 C 
ATOM     26  C   LIG    1        0.126   0.639   5.719  0.00  0.00    +0.040 C 
ENDBRANCH  20  23
ENDBRANCH  15  17
ENDBRANCH   1  13
BRANCH   1  27
ATOM     27  C   LIG    1        3.346   5.860  -1.504  0.00  0.00    -0.020 C 
ATOM     28  C   LIG    1        1.869   6.139  -1.788  0.00  0.00    +0.030 C 
ATOM     29  C   LIG    1        3.655   4.393  -1.811  0.00  0.00    +0.040 C 
ENDBRANCH   1  27
TORSDOF 7
