REMARK  Name = ZINCqH0000001oWD.0
REMARK                            x       y       z     vdW  Elec       q    Type
REMARK                         _______ _______ _______ _____ _____    ______ ____
ROOT
ATOM      1  C   LIG    1       -1.965  10.006  -0.806  0.00  0.00    -0.020 C 
ATOM      2  C   LIG    1       -0.442  10.127  -0.711  0.00  0.00    +0.060 C 
ATOM      3  C   LIG    1        0.196   8.755  -0.940  0.00  0.00    +0.030 C 
ATOM      4  C   LIG    1       -0.281   7.787   0.153  0.00  0.00    +0.250 C 
ATOM      5  N   LIG    1       -1.751   7.775   0.159  0.00  0.00    -0.610 N 
ATOM      6  C   LIG    1       -2.429   6.615   0.058  0.00  0.00    +0.590 C 
ATOM      7  O   LIG    1       -3.640   6.626  -0.056  0.00  0.00    -0.510 OA
ATOM      8  C   LIG    1       -2.467   9.052   0.282  0.00  0.00    +0.300 C 
ENDROOT
BRANCH   6   9
ATOM      9  C   LIG    1       -1.705   5.336   0.086  0.00  0.00    +0.030 A 
ATOM     10  C   LIG    1       -2.146   4.169  -0.454  0.00  0.00    +0.070 A 
ATOM     11  C   LIG    1       -1.159   3.183  -0.214  0.00  0.00    -0.140 A 
ATOM     12  C   LIG    1       -1.060   1.822  -0.537  0.00  0.00    +0.170 A 
ATOM     13  C   LIG    1        0.053   1.109  -0.153  0.00  0.00    -0.010 A 
ATOM     14  C   LIG    1        1.082   1.732   0.542  0.00  0.00    -0.030 A 
ATOM     15  C   LIG    1        1.004   3.070   0.863  0.00  0.00    +0.030 A 
ATOM     16 BR   LIG    1        2.605   0.733   1.053  0.00  0.00    -0.020 Br
ATOM     17  F   LIG    1       -2.055   1.212  -1.219  0.00  0.00    -0.120 F 
ATOM     18  C   LIG    1       -0.113   3.811   0.491  0.00  0.00    +0.140 A 
ATOM     19  N   LIG    1       -0.467   5.128   0.664  0.00  0.00    -0.570 N 
ATOM     20  H   LIG    1        0.065   5.801   1.117  0.00  0.00    +0.430 HD
ENDBRANCH   6   9
BRANCH   1  22
ATOM     21  N   LIG    1       -3.931  11.499  -0.654  0.00  0.00    -0.610 N 
ATOM     22  C   LIG    1       -2.591  11.364  -0.613  0.00  0.00    +0.520 C 
ATOM     23  O   LIG    1       -1.888  12.333  -0.421  0.00  0.00    -0.530 OA
ATOM     24  C   LIG    1       -4.780  10.328  -0.886  0.00  0.00    +0.290 C 
BRANCH  21  26
ATOM     25  C   LIG    1       -5.349  13.189  -1.711  0.00  0.00    +0.030 C 
ATOM     26  C   LIG    1       -4.539  12.819  -0.466  0.00  0.00    +0.230 C 
ATOM     27  C   LIG    1       -5.464  12.786   0.752  0.00  0.00    +0.030 C 
ENDBRANCH  21  26
ENDBRANCH   1  22
TORSDOF 3
