REMARK  Name = ZINCvU0000000EEX.0
REMARK                            x       y       z     vdW  Elec       q    Type
REMARK                         _______ _______ _______ _____ _____    ______ ____
ROOT
ATOM      1  C   LIG    1        5.819  -1.130  -0.167  0.00  0.00    +0.150 A 
ATOM      2  N   LIG    1        5.118  -2.234  -0.306  0.00  0.00    -0.290 NA
ATOM      3  N   LIG    1        3.872  -1.993  -0.104  0.00  0.00    -0.270 NA
ATOM      4  C   LIG    1        3.701  -0.723   0.177  0.00  0.00    +0.230 A 
ATOM      5  N   LIG    1        4.942  -0.130   0.140  0.00  0.00    -0.460 N 
ATOM      6  C   LIG    1        5.257   1.280   0.382  0.00  0.00    +0.350 C 
ENDROOT
BRANCH   4   7
ATOM      7  C   LIG    1        2.416  -0.053   0.471  0.00  0.00    -0.030 A 
ATOM      8  C   LIG    1        1.213  -0.644   0.081  0.00  0.00    +0.070 A 
ATOM      9  C   LIG    1        0.017  -0.014   0.357  0.00  0.00    +0.020 A 
ATOM     10  C   LIG    1        0.009   1.201   1.020  0.00  0.00    -0.050 A 
ATOM     11  C   LIG    1        1.198   1.791   1.409  0.00  0.00    +0.010 A 
ATOM     12  C   LIG    1        2.400   1.172   1.139  0.00  0.00    +0.020 A 
BRANCH  10  13
ATOM     13  C   LIG    1       -1.301   1.886   1.314  0.00  0.00    -0.030 C 
ATOM     14  C   LIG    1       -2.031   2.174   0.000  0.00  0.00    +0.040 C 
ATOM     15  C   LIG    1       -1.035   3.201   2.048  0.00  0.00    +0.030 C 
ATOM     16  C   LIG    1       -2.167   0.979   2.190  0.00  0.00    +0.040 C 
ENDBRANCH  10  13
ENDBRANCH   4   7
BRANCH   1  17
ATOM     17  S   LIG    1        7.565  -0.971  -0.348  0.00  0.00    +0.070 S 
BRANCH  17  19
ATOM     18  C   LIG    1        7.375  -3.062  -2.095  0.00  0.00    +0.080 C 
ATOM     19  C   LIG    1        7.997  -2.682  -0.750  0.00  0.00    +0.020 C 
BRANCH  19  20
ATOM     20  C   LIG    1        9.495  -2.815  -0.834  0.00  0.00    +0.540 C 
ATOM     21  N   LIG    1       10.071  -4.028  -0.719  0.00  0.00    -0.600 N 
ATOM     22  C   LIG    1        9.241  -5.217  -0.513  0.00  0.00    +0.300 C 
ATOM     23  O   LIG    1       10.183  -1.831  -1.004  0.00  0.00    -0.520 OA
BRANCH  21  24
ATOM     24  C   LIG    1       11.528  -4.158  -0.800  0.00  0.00    +0.350 C 
BRANCH  24  25
ATOM     25  C   LIG    1       12.122  -4.024   0.578  0.00  0.00    -0.080 A 
ATOM     26  C   LIG    1       12.496  -2.781   1.052  0.00  0.00    +0.030 A 
ATOM     27  C   LIG    1       13.037  -2.656   2.318  0.00  0.00    +0.040 A 
ATOM     28  C   LIG    1       13.214  -3.776   3.108  0.00  0.00    -0.010 A 
ATOM     29  C   LIG    1       12.844  -5.023   2.633  0.00  0.00    +0.090 A 
ATOM     30  F   LIG    1       13.016  -6.119   3.404  0.00  0.00    -0.140 F 
ATOM     31  C   LIG    1       12.298  -5.146   1.366  0.00  0.00    -0.010 A 
ENDBRANCH  24  25
ENDBRANCH  21  24
ENDBRANCH  19  20
ENDBRANCH  17  19
ENDBRANCH   1  17
TORSDOF 7
