REMARK  Name = ZINCvU00000005dY.0
REMARK                            x       y       z     vdW  Elec       q    Type
REMARK                         _______ _______ _______ _____ _____    ______ ____
ROOT
ATOM      1  N   LIG    1        3.626  -0.629  -0.048  0.00  0.00    -0.740 N 
ATOM      2  H   LIG    1        3.649  -1.599  -0.047  0.00  0.00    +0.400 HD
ENDROOT
BRANCH   1   3
ATOM      3  C   LIG    1        2.399   0.042  -0.035  0.00  0.00    +0.200 A 
ATOM      4  C   LIG    1        2.365   1.429  -0.036  0.00  0.00    -0.060 A 
ATOM      5  C   LIG    1        1.150   2.090  -0.024  0.00  0.00    +0.040 A 
ATOM      6  C   LIG    1       -0.032   1.373  -0.011  0.00  0.00    -0.040 A 
ATOM      7  C   LIG    1       -0.007  -0.009  -0.010  0.00  0.00    +0.070 A 
ATOM      8  C   LIG    1        1.206  -0.681  -0.022  0.00  0.00    +0.070 A 
BRANCH   8   9
ATOM      9  N   LIG    1        1.233  -2.082  -0.020  0.00  0.00    -0.670 N 
ATOM     10  H   LIG    1        1.928  -2.553  -0.505  0.00  0.00    +0.400 HD
ATOM     11  C   LIG    1        0.294  -2.773   0.655  0.00  0.00    +0.560 C 
ATOM     12  O   LIG    1       -0.623  -2.186   1.194  0.00  0.00    -0.520 OA
BRANCH  11  13
ATOM     13  C   LIG    1        0.380  -4.247   0.739  0.00  0.00    -0.140 A 
ATOM     14  C   LIG    1        1.429  -4.925   0.116  0.00  0.00    +0.030 A 
ATOM     15  C   LIG    1        1.505  -6.300   0.203  0.00  0.00    +0.000 A 
ATOM     16  C   LIG    1        0.539  -7.007   0.897  0.00  0.00    +0.040 A 
ATOM     17  C   LIG    1       -0.506  -6.341   1.512  0.00  0.00    +0.000 A 
ATOM     18  C   LIG    1       -0.591  -4.966   1.438  0.00  0.00    +0.080 A 
ENDBRANCH  11  13
ENDBRANCH   8   9
ENDBRANCH   1   3
BRANCH   1  19
ATOM     19  C   LIG    1        4.878   0.133  -0.061  0.00  0.00    +0.290 C 
BRANCH  19  31
ATOM     20  C   LIG    1       10.071  -0.994  -3.601  0.00  0.00    +0.070 C 
ATOM     21  C   LIG    1        9.454  -0.447  -2.313  0.00  0.00    +0.030 C 
ATOM     22  C   LIG    1        8.871  -1.596  -1.505  0.00  0.00    +0.030 C 
ATOM     23  C   LIG    1        8.459  -1.255  -0.092  0.00  0.00    +0.300 C 
ATOM     24  N   LIG    1        7.305  -0.342  -0.087  0.00  0.00    -0.560 N 
ATOM     25  C   LIG    1        7.550   1.038  -0.090  0.00  0.00    +0.150 A 
ATOM     26  C   LIG    1        7.331   1.778   1.066  0.00  0.00    +0.010 A 
ATOM     27  C   LIG    1        7.619   3.130   1.080  0.00  0.00    +0.040 A 
ATOM     28  C   LIG    1        8.126   3.756  -0.044  0.00  0.00    +0.030 A 
ATOM     29  C   LIG    1        8.329   3.030  -1.207  0.00  0.00    +0.080 A 
ATOM     30  C   LIG    1        8.018   1.685  -1.225  0.00  0.00    -0.100 A 
ATOM     31  C   LIG    1        6.045  -0.820  -0.073  0.00  0.00    +0.530 C 
ATOM     32  O   LIG    1        5.851  -2.017  -0.070  0.00  0.00    -0.520 OA
ATOM     33  S   LIG    1        8.152   0.749  -2.730  0.00  0.00    -0.140 S 
ENDBRANCH  19  31
ENDBRANCH   1  19
TORSDOF 5
