REMARK  Name = ZINCvU0000000DpI.0
REMARK                            x       y       z     vdW  Elec       q    Type
REMARK                         _______ _______ _______ _____ _____    ______ ____
ROOT
ATOM      1  N   LIG    1       -3.183   2.983  -1.404  0.00  0.00    -0.980 NA
ENDROOT
BRANCH   1   2
ATOM      2  S   LIG    1       -4.572   2.082  -1.412  0.00  0.00    +2.690 S 
ATOM      3  O   LIG    1       -4.227   0.818  -1.963  0.00  0.00    -0.940 OA
ATOM      4  O   LIG    1       -5.587   2.915  -1.955  0.00  0.00    -0.940 OA
BRANCH   2   5
ATOM      5  C   LIG    1       -5.014   1.789   0.268  0.00  0.00    -0.680 A 
ATOM      6  C   LIG    1       -4.540   0.667   0.921  0.00  0.00    +0.140 A 
ATOM      7  C   LIG    1       -4.882   0.439   2.241  0.00  0.00    +0.020 A 
ATOM      8  C   LIG    1       -5.708   1.329   2.905  0.00  0.00    +0.020 A 
ATOM      9  C   LIG    1       -6.186   2.449   2.249  0.00  0.00    +0.020 A 
ATOM     10 CL   LIG    1       -6.144   1.039   4.560  0.00  0.00    -0.050 Cl
ATOM     11  C   LIG    1       -5.838   2.679   0.931  0.00  0.00    +0.140 A 
ENDBRANCH   2   5
ENDBRANCH   1   2
BRANCH   1  12
ATOM     12  C   LIG    1       -3.258   4.446  -1.396  0.00  0.00    +0.350 C 
BRANCH  12  14
ATOM     13  O   LIG    1       -3.034   4.184  -3.731  0.00  0.00    -0.500 OA
ATOM     14  C   LIG    1       -3.157   4.962  -2.809  0.00  0.00    +0.500 C 
ATOM     15  N   LIG    1       -3.204   6.288  -3.047  0.00  0.00    -0.670 N 
ATOM     16  H   LIG    1       -3.369   6.906  -2.318  0.00  0.00    +0.420 HD
BRANCH  15  17
ATOM     17  C   LIG    1       -3.013   6.773  -4.346  0.00  0.00    +0.160 A 
ATOM     18  C   LIG    1       -3.482   6.048  -5.434  0.00  0.00    +0.060 A 
ATOM     19  C   LIG    1       -3.293   6.527  -6.716  0.00  0.00    +0.050 A 
ATOM     20  C   LIG    1       -2.637   7.729  -6.918  0.00  0.00    +0.050 A 
ATOM     21  C   LIG    1       -2.168   8.455  -5.833  0.00  0.00    +0.090 A 
ATOM     22  F   LIG    1       -1.528   9.628  -6.032  0.00  0.00    -0.120 F 
ATOM     23  F   LIG    1       -2.454   8.196  -8.172  0.00  0.00    -0.130 F 
ATOM     24  C   LIG    1       -2.361   7.981  -4.548  0.00  0.00    +0.000 A 
ENDBRANCH  15  17
ENDBRANCH  12  14
ENDBRANCH   1  12
BRANCH   1  25
ATOM     25  C   LIG    1       -1.878   2.317  -1.405  0.00  0.00    +0.310 C 
BRANCH  25  26
ATOM     26  C   LIG    1       -1.370   2.190   0.033  0.00  0.00    +0.030 C 
BRANCH  26  27
ATOM     27  C   LIG    1       -0.027   1.505   0.033  0.00  0.00    -0.120 C 
ATOM     28  C   LIG    1        1.033   2.247   0.034  0.00  0.00    -0.050 C 
ATOM     29  C   LIG    1        2.435   1.712   0.017  0.00  0.00    +0.050 C 
ATOM     30  C   LIG    1        2.440   0.236   0.423  0.00  0.00    +0.000 C 
ATOM     31  C   LIG    1        1.377  -0.498  -0.405  0.00  0.00    +0.020 C 
ATOM     32  C   LIG    1       -0.003   0.004   0.025  0.00  0.00    +0.050 C 
ENDBRANCH  26  27
ENDBRANCH  25  26
ENDBRANCH   1  25
TORSDOF 8
