REMARK  Name = ZINCvU0000000GFG.0
REMARK                            x       y       z     vdW  Elec       q    Type
REMARK                         _______ _______ _______ _____ _____    ______ ____
ROOT
ATOM      1  C   LIG    1        3.382   3.080  -0.319  0.00  0.00    -0.110 A 
ATOM      2  C   LIG    1        2.872   4.269   0.203  0.00  0.00    +0.090 A 
ATOM      3  C   LIG    1        1.528   4.572   0.066  0.00  0.00    +0.110 A 
ATOM      4  C   LIG    1        0.684   3.691  -0.592  0.00  0.00    -0.110 A 
ATOM      5  C   LIG    1       -0.761   3.693  -0.913  0.00  0.00    +0.580 C 
ATOM      6  N   LIG    1       -1.051   2.566  -1.587  0.00  0.00    -0.530 N 
ATOM      7  C   LIG    1        0.044   1.801  -1.747  0.00  0.00    +0.580 C 
ATOM      8  O   LIG    1        0.082   0.728  -2.314  0.00  0.00    -0.440 OA
ATOM      9  O   LIG    1       -1.550   4.568  -0.621  0.00  0.00    -0.440 OA
ATOM     10  C   LIG    1        1.194   2.488  -1.123  0.00  0.00    -0.140 A 
ATOM     11  C   LIG    1        2.538   2.187  -0.985  0.00  0.00    +0.170 A 
ENDROOT
BRANCH   6  12
ATOM     12  C   LIG    1       -2.328   2.231  -2.058  0.00  0.00    +0.120 A 
ATOM     13  C   LIG    1       -3.196   1.504  -1.256  0.00  0.00    +0.060 A 
ATOM     14  C   LIG    1       -4.457   1.180  -1.721  0.00  0.00    +0.040 A 
ATOM     15  C   LIG    1       -4.849   1.569  -2.988  0.00  0.00    +0.050 A 
ATOM     16  C   LIG    1       -3.985   2.289  -3.793  0.00  0.00    +0.050 A 
ATOM     17  C   LIG    1       -2.725   2.621  -3.332  0.00  0.00    -0.020 A 
ATOM     18 CL   LIG    1       -1.640   3.524  -4.342  0.00  0.00    -0.050 Cl
ENDBRANCH   6  12
BRANCH   1  20
ATOM     19  N   LIG    1        5.728   3.760  -0.135  0.00  0.00    -0.540 N 
ATOM     20  C   LIG    1        4.820   2.765  -0.168  0.00  0.00    +0.560 C 
ATOM     21  O   LIG    1        5.182   1.609  -0.074  0.00  0.00    -0.490 OA
BRANCH  19  22
ATOM     22  C   LIG    1        7.094   3.461  -0.140  0.00  0.00    +0.150 A 
ATOM     23  C   LIG    1        8.030   4.482  -0.243  0.00  0.00    -0.030 A 
ATOM     24  C   LIG    1        9.378   4.183  -0.242  0.00  0.00    +0.030 A 
ATOM     25  C   LIG    1        9.797   2.868  -0.149  0.00  0.00    -0.020 A 
ATOM     26  C   LIG    1        8.867   1.849  -0.052  0.00  0.00    +0.030 A 
ATOM     27  C   LIG    1        7.517   2.141  -0.046  0.00  0.00    +0.010 A 
ENDBRANCH  19  22
BRANCH  19  28
ATOM     28  C   LIG    1        5.285   5.156  -0.094  0.00  0.00    +0.270 C 
BRANCH  28  29
ATOM     29  C   LIG    1        5.366   5.675   1.343  0.00  0.00    +0.000 C 
BRANCH  29  31
ATOM     30  C   LIG    1        4.984   7.652   2.822  0.00  0.00    +0.030 C 
ATOM     31  C   LIG    1        4.903   7.133   1.385  0.00  0.00    +0.020 C 
ENDBRANCH  29  31
ENDBRANCH  28  29
ENDBRANCH  19  28
ENDBRANCH   1  20
TORSDOF 6
