REMARK  Name = ZINCrD00000hQ4Iw.0
REMARK                            x       y       z     vdW  Elec       q    Type
REMARK                         _______ _______ _______ _____ _____    ______ ____
ROOT
ATOM      1  C   LIG    1       -2.703   1.711   0.792  0.00  0.00    +0.100 C 
ATOM      2  C   LIG    1       -1.360   2.363   0.586  0.00  0.00    -0.130 A 
ATOM      3  C   LIG    1       -1.248   3.740   0.623  0.00  0.00    +0.070 A 
ATOM      4  C   LIG    1       -0.020   4.342   0.428  0.00  0.00    -0.010 A 
ATOM      5  C   LIG    1        1.107   3.563   0.199  0.00  0.00    +0.190 A 
ATOM      6  C   LIG    1        0.998   2.179   0.167  0.00  0.00    -0.110 A 
ATOM      7  C   LIG    1       -0.236   1.580   0.363  0.00  0.00    +0.150 A 
ENDROOT
BRANCH   5   8
ATOM      8  N   LIG    1        2.350   4.172   0.002  0.00  0.00    -0.650 N 
ATOM      9  H   LIG    1        3.155   3.752   0.342  0.00  0.00    +0.420 HD
BRANCH   8  10
ATOM     10  C   LIG    1        2.432   5.375  -0.681  0.00  0.00    +0.440 A 
ATOM     11  N   LIG    1        1.353   5.902  -1.253  0.00  0.00    -0.560 NA
ATOM     12  C   LIG    1        1.428   7.048  -1.899  0.00  0.00    +0.540 A 
ATOM     13  N   LIG    1        2.562   7.707  -2.014  0.00  0.00    -0.550 NA
ATOM     14  C   LIG    1        3.684   7.241  -1.475  0.00  0.00    +0.220 A 
ATOM     15  C   LIG    1        4.958   8.027  -1.636  0.00  0.00    +0.130 C 
ATOM     16  C   LIG    1        5.994   7.552  -0.615  0.00  0.00    +0.180 C 
ATOM     17  N   LIG    1        6.088   6.085  -0.689  0.00  0.00    -0.540 NA
ATOM     18  C   LIG    1        7.288   5.599   0.006  0.00  0.00    +0.200 C 
ATOM     19  C   LIG    1        4.876   5.468  -0.139  0.00  0.00    +0.240 C 
ATOM     20  C   LIG    1        3.651   6.053  -0.785  0.00  0.00    -0.240 A 
ENDBRANCH   8  10
ENDBRANCH   5   8
BRANCH   7  21
ATOM     21  O   LIG    1       -0.346   0.226   0.332  0.00  0.00    -0.310 OA
BRANCH  21  22
ATOM     22  C   LIG    1        0.851  -0.517   0.093  0.00  0.00    +0.190 C 
BRANCH  22  23
ATOM     23  C   LIG    1        0.531  -2.014   0.094  0.00  0.00    -0.010 C 
ATOM     24  C   LIG    1        0.075  -2.439   1.493  0.00  0.00    +0.000 C 
ATOM     25  C   LIG    1       -0.167  -3.951   1.504  0.00  0.00    +0.210 C 
ATOM     26  O   LIG    1        1.030  -4.627   1.113  0.00  0.00    -0.380 OA
ATOM     27  C   LIG    1        1.477  -4.304  -0.205  0.00  0.00    +0.210 C 
ATOM     28  C   LIG    1        1.786  -2.806  -0.285  0.00  0.00    +0.010 C 
ENDBRANCH  22  23
ENDBRANCH  21  22
ENDBRANCH   7  21
TORSDOF 5
