REMARK  Name = ZINCvU00000004Ld.0
REMARK                            x       y       z     vdW  Elec       q    Type
REMARK                         _______ _______ _______ _____ _____    ______ ____
ROOT
ATOM      1  C   LIG    1        2.744   3.415  -4.257  0.00  0.00    +0.120 C 
ATOM      2  C   LIG    1        2.019   4.631  -3.739  0.00  0.00    -0.080 A 
ATOM      3  C   LIG    1        2.212   5.041  -2.423  0.00  0.00    +0.150 A 
ATOM      4  C   LIG    1        1.545   6.154  -1.939  0.00  0.00    +0.040 A 
ATOM      5  C   LIG    1        0.692   6.866  -2.775  0.00  0.00    -0.060 A 
ATOM      6  C   LIG    1        0.497   6.449  -4.104  0.00  0.00    +0.030 A 
ATOM      7  O   LIG    1       -0.375   7.304  -4.684  0.00  0.00    -0.170 OA
ATOM      8  C   LIG    1       -0.768   8.252  -3.836  0.00  0.00    +0.120 A 
ATOM      9  C   LIG    1       -1.729   9.391  -4.082  0.00  0.00    +0.170 C 
ATOM     10  C   LIG    1       -2.268   9.898  -2.743  0.00  0.00    -0.050 C 
ATOM     11  C   LIG    1       -3.102  11.159  -2.980  0.00  0.00    +0.060 C 
ATOM     12  C   LIG    1       -3.154   8.820  -2.115  0.00  0.00    +0.040 C 
ATOM     13  C   LIG    1       -1.117  10.226  -1.786  0.00  0.00    +0.050 C 
ATOM     14  C   LIG    1       -0.373   8.935  -1.478  0.00  0.00    +0.420 C 
ATOM     15  O   LIG    1        0.009   8.656  -0.361  0.00  0.00    -0.440 OA
ATOM     16  C   LIG    1       -0.151   8.054  -2.626  0.00  0.00    -0.270 A 
ATOM     17  C   LIG    1        1.170   5.327  -4.571  0.00  0.00    +0.060 A 
ENDROOT
BRANCH   3  18
ATOM     18  N   LIG    1        3.076   4.326  -1.587  0.00  0.00    -1.050 N 
ATOM     19  H   LIG    1        3.884   3.930  -1.950  0.00  0.00    +0.430 HD
BRANCH  18  20
ATOM     20  S   LIG    1        2.719   4.155   0.021  0.00  0.00    +2.690 S 
ATOM     21  O   LIG    1        3.696   3.273   0.557  0.00  0.00    -0.950 OA
ATOM     22  O   LIG    1        2.496   5.465   0.524  0.00  0.00    -0.940 OA
BRANCH  20  23
ATOM     23  C   LIG    1        1.176   3.312   0.127  0.00  0.00    -0.680 A 
ATOM     24  C   LIG    1        1.145   1.931   0.184  0.00  0.00    +0.130 A 
ATOM     25  C   LIG    1       -0.066   1.270   0.266  0.00  0.00    -0.010 A 
ATOM     26  C   LIG    1       -1.247   1.989   0.286  0.00  0.00    -0.010 A 
ATOM     27  C   LIG    1       -1.215   3.370   0.234  0.00  0.00    +0.000 A 
ATOM     28  C   LIG    1       -0.004   4.032   0.152  0.00  0.00    +0.130 A 
BRANCH  26  29
ATOM     29  C   LIG    1       -2.567   1.268   0.369  0.00  0.00    -0.040 C 
ATOM     30  C   LIG    1       -2.719   0.341  -0.838  0.00  0.00    +0.040 C 
ATOM     31  C   LIG    1       -3.707   2.289   0.375  0.00  0.00    +0.030 C 
ATOM     32  C   LIG    1       -2.616   0.442   1.656  0.00  0.00    +0.040 C 
ENDBRANCH  26  29
ENDBRANCH  20  23
ENDBRANCH  18  20
ENDBRANCH   3  18
TORSDOF 4
