REMARK  Name = ZINCqH0000050303.0
REMARK                            x       y       z     vdW  Elec       q    Type
REMARK                         _______ _______ _______ _____ _____    ______ ____
ROOT
ATOM      1  C   LIG    1       -4.290  -0.494   3.933  0.00  0.00    +0.110 C 
ATOM      2  C   LIG    1       -4.697  -0.641   2.489  0.00  0.00    -0.260 A 
ATOM      3  C   LIG    1       -3.989  -0.208   1.409  0.00  0.00    +0.280 A 
ATOM      4  N   LIG    1       -4.699  -0.541   0.297  0.00  0.00    -0.340 N 
ATOM      5  N   LIG    1       -5.870  -1.187   0.714  0.00  0.00    -0.290 NA
ATOM      6  C   LIG    1       -5.869  -1.242   2.021  0.00  0.00    +0.140 A 
ENDROOT
BRANCH   4   7
ATOM      7  C   LIG    1       -4.324  -0.284  -1.029  0.00  0.00    +0.150 A 
ATOM      8  C   LIG    1       -3.759   0.938  -1.368  0.00  0.00    +0.010 A 
ATOM      9  C   LIG    1       -3.385   1.186  -2.675  0.00  0.00    +0.030 A 
ATOM     10  C   LIG    1       -3.586   0.223  -3.647  0.00  0.00    +0.010 A 
ATOM     11  C   LIG    1       -4.154  -0.992  -3.314  0.00  0.00    +0.030 A 
ATOM     12  C   LIG    1       -4.524  -1.248  -2.008  0.00  0.00    +0.020 A 
ENDBRANCH   4   7
BRANCH   6  13
ATOM     13  C   LIG    1       -6.946  -1.857   2.877  0.00  0.00    +0.040 C 
ATOM     14  C   LIG    1       -8.046  -2.649   2.168  0.00  0.00    +0.030 C 
ATOM     15  C   LIG    1       -8.356  -1.274   2.764  0.00  0.00    +0.040 C 
ENDBRANCH   6  13
BRANCH   3  16
ATOM     16  N   LIG    1       -2.762   0.448   1.438  0.00  0.00    -0.590 N 
ATOM     17  H   LIG    1       -2.206   0.212   0.629  0.00  0.00    +0.360 HD
BRANCH  16  18
ATOM     18  C   LIG    1       -2.036   0.153   2.680  0.00  0.00    +0.280 C 
BRANCH  18  19
ATOM     19  C   LIG    1       -0.638   0.708   2.588  0.00  0.00    -0.070 A 
ATOM     20  C   LIG    1       -0.380   1.999   3.015  0.00  0.00    +0.040 A 
ATOM     21  C   LIG    1        0.899   2.511   2.939  0.00  0.00    +0.080 A 
ATOM     22  C   LIG    1        1.932   1.726   2.425  0.00  0.00    -0.130 A 
ATOM     23  C   LIG    1        1.664   0.427   1.991  0.00  0.00    +0.040 A 
ATOM     24  C   LIG    1        0.381  -0.073   2.073  0.00  0.00    +0.010 A 
BRANCH  22  25
ATOM     25  C   LIG    1        3.305   2.269   2.341  0.00  0.00    +0.560 C 
ATOM     26  O   LIG    1        3.536   3.401   2.720  0.00  0.00    -0.540 OA
ATOM     27  N   LIG    1        4.301   1.508   1.844  0.00  0.00    -0.850 N 
ATOM     28  H   LIG    1        5.202   1.864   1.789  0.00  0.00    +0.410 HD
ATOM     29  H   LIG    1        4.117   0.605   1.542  0.00  0.00    +0.400 HD
ENDBRANCH  22  25
ENDBRANCH  18  19
ENDBRANCH  16  18
ENDBRANCH   3  16
TORSDOF 6
