REMARK  Name = ZINCqH00000508gb.0
REMARK                            x       y       z     vdW  Elec       q    Type
REMARK                         _______ _______ _______ _____ _____    ______ ____
ROOT
ATOM      1  S   LIG    1       -0.928   0.322  -2.868  0.00  0.00    +2.680 S 
ATOM      2  O   LIG    1        0.130  -0.565  -2.534  0.00  0.00    -0.940 OA
ATOM      3  O   LIG    1       -1.167   0.785  -4.190  0.00  0.00    -0.930 OA
ENDROOT
BRANCH   1   4
ATOM      4  N   LIG    1       -0.722   1.671  -1.930  0.00  0.00    -0.940 N 
ATOM      5  C   LIG    1       -0.168   1.572  -0.571  0.00  0.00    +0.350 C 
ATOM      6  C   LIG    1       -0.947   2.479   0.346  0.00  0.00    +0.510 C 
ATOM      7  N   LIG    1       -1.535   3.596  -0.127  0.00  0.00    -0.660 N 
ATOM      8  H   LIG    1       -2.005   4.185   0.484  0.00  0.00    +0.420 HD
ATOM      9  C   LIG    1       -1.474   3.915  -1.488  0.00  0.00    +0.140 A 
ATOM     10  C   LIG    1       -1.815   5.180  -1.936  0.00  0.00    +0.000 A 
ATOM     11  C   LIG    1       -1.757   5.472  -3.287  0.00  0.00    +0.030 A 
ATOM     12  C   LIG    1       -1.359   4.507  -4.194  0.00  0.00    +0.030 A 
ATOM     13  C   LIG    1       -1.014   3.240  -3.755  0.00  0.00    +0.060 A 
ATOM     14  O   LIG    1       -1.048   2.199   1.522  0.00  0.00    -0.510 OA
ATOM     15  C   LIG    1       -1.069   2.943  -2.406  0.00  0.00    +0.110 A 
ENDBRANCH   1   4
BRANCH   1  23
ATOM     16  C   LIG    1       -1.036  -1.996  -0.927  0.00  0.00    +0.120 C 
ATOM     17  C   LIG    1       -2.365  -1.513  -1.447  0.00  0.00    +0.030 A 
ATOM     18  C   LIG    1       -3.533  -2.122  -1.028  0.00  0.00    -0.010 A 
ATOM     19  C   LIG    1       -4.753  -1.682  -1.509  0.00  0.00    +0.000 A 
ATOM     20  C   LIG    1       -4.804  -0.631  -2.405  0.00  0.00    -0.020 A 
ATOM     21  C   LIG    1       -3.636  -0.019  -2.820  0.00  0.00    +0.030 A 
ATOM     22  C   LIG    1       -3.692   1.127  -3.797  0.00  0.00    +0.120 C 
ATOM     23  C   LIG    1       -2.417  -0.458  -2.339  0.00  0.00    -0.690 A 
BRANCH  19  24
ATOM     24  C   LIG    1       -6.026  -2.349  -1.056  0.00  0.00    -0.040 C 
ATOM     25  C   LIG    1       -6.924  -1.320  -0.367  0.00  0.00    +0.040 C 
ATOM     26  C   LIG    1       -5.691  -3.473  -0.073  0.00  0.00    +0.030 C 
ATOM     27  C   LIG    1       -6.755  -2.933  -2.268  0.00  0.00    +0.040 C 
ENDBRANCH  19  24
ENDBRANCH   1  23
TORSDOF 3
