REMARK  Name = ZINCqH0000000sNM.0
REMARK                            x       y       z     vdW  Elec       q    Type
REMARK                         _______ _______ _______ _____ _____    ______ ____
ROOT
ATOM      1  C   LIG    1        5.343  -4.948   0.017  0.00  0.00    +0.510 C 
ATOM      2  N   LIG    1        4.908  -3.676  -0.075  0.00  0.00    -0.680 N 
ATOM      3  H   LIG    1        5.546  -2.950  -0.162  0.00  0.00    +0.410 HD
ATOM      4  O   LIG    1        4.546  -5.862   0.032  0.00  0.00    -0.500 OA
ENDROOT
BRANCH   2   5
ATOM      5  C   LIG    1        3.536  -3.402  -0.046  0.00  0.00    +0.150 A 
ATOM      6  C   LIG    1        3.023  -2.341  -0.784  0.00  0.00    +0.000 A 
ATOM      7  C   LIG    1        1.669  -2.067  -0.759  0.00  0.00    +0.040 A 
ATOM      8  C   LIG    1        0.816  -2.847  -0.005  0.00  0.00    +0.020 A 
ATOM      9  C   LIG    1        1.322  -3.911   0.745  0.00  0.00    +0.000 A 
ATOM     10  C   LIG    1        2.688  -4.188   0.719  0.00  0.00    +0.070 A 
BRANCH   9  11
ATOM     11  C   LIG    1        0.411  -4.744   1.558  0.00  0.00    +0.230 A 
ATOM     12  N   LIG    1        0.765  -5.769   2.297  0.00  0.00    -0.460 NA
ATOM     13  C   LIG    1       -0.330  -6.272   2.886  0.00  0.00    +0.150 A 
ATOM     14  C   LIG    1       -1.384  -5.534   2.495  0.00  0.00    -0.040 A 
ATOM     15  C   LIG    1       -2.819  -5.732   2.912  0.00  0.00    +0.190 C 
ATOM     16  O   LIG    1       -0.919  -4.579   1.665  0.00  0.00    -0.190 OA
ENDBRANCH   9  11
ENDBRANCH   2   5
BRANCH   1  17
ATOM     17  C   LIG    1        6.820  -5.235   0.101  0.00  0.00    +0.120 C 
BRANCH  17  21
ATOM     18  C   LIG    1        7.440  -9.455   0.369  0.00  0.00    +0.140 A 
ATOM     19  C   LIG    1        7.394  -8.836  -0.873  0.00  0.00    +0.020 A 
ATOM     20  C   LIG    1        7.193  -7.472  -0.956  0.00  0.00    +0.040 A 
ATOM     21  C   LIG    1        7.038  -6.723   0.196  0.00  0.00    -0.090 A 
ATOM     22  C   LIG    1        7.089  -7.336   1.434  0.00  0.00    +0.050 A 
ATOM     23  C   LIG    1        7.284  -8.700   1.524  0.00  0.00    -0.010 A 
BRANCH  18  26
ATOM     24  C   LIG    1        8.755 -12.924  -0.268  0.00  0.00    +0.110 C 
ATOM     25  C   LIG    1        8.453 -11.456  -0.424  0.00  0.00    +0.510 C 
ATOM     26  N   LIG    1        7.643 -10.837   0.457  0.00  0.00    -0.680 N 
ATOM     27  H   LIG    1        7.201 -11.349   1.152  0.00  0.00    +0.410 HD
ATOM     28  O   LIG    1        8.940 -10.831  -1.343  0.00  0.00    -0.530 OA
ENDBRANCH  18  26
ENDBRANCH  17  21
ENDBRANCH   1  17
TORSDOF 5
