REMARK  Name = ZINCrg000000sWfh.0
REMARK                            x       y       z     vdW  Elec       q    Type
REMARK                         _______ _______ _______ _____ _____    ______ ____
ROOT
ATOM      1  CA  TYR A  1       -0.368   4.262  -3.968  0.00  0.00    +0.270 C 
ENDROOT
BRANCH   1   2
ATOM      2  C   TYR A  1        0.960   4.650  -3.371  0.00  0.00    +0.510 C 
ATOM      3  N   UNK A  2        1.698   3.732  -2.717  0.00  0.00    -0.620 N 
ATOM      4  C   UNK A  2        1.328   2.318  -2.512  0.00  0.00    +0.250 C 
ATOM      5  C   UNK A  2        2.126   1.878  -1.266  0.00  0.00    -0.080 C 
ATOM      6  C   UNK A  2        3.456   2.645  -1.442  0.00  0.00    +0.060 C 
ATOM      7  C   UNK A  2        1.420   2.327   0.001  0.00  0.00    +0.050 C 
ATOM      8  C   UNK A  2       -0.023   1.813   0.012  0.00  0.00    +0.100 C 
ATOM      9  S   UNK A  2        0.002  -0.004   0.002  0.00  0.00    -0.260 S 
ATOM     10  C   UNK A  2        1.044  -0.369  -1.442  0.00  0.00    +0.100 C 
ATOM     11  C   UNK A  2        2.371   0.380  -1.296  0.00  0.00    +0.050 C 
ATOM     12  C   UNK A  2        3.006   3.973  -2.089  0.00  0.00    +0.220 C 
ATOM     13  O   TYR A  1        1.364   5.788  -3.480  0.00  0.00    -0.450 OA
BRANCH  12  14
ATOM     14  C   UNK A  2        4.021   4.404  -3.150  0.00  0.00    +0.150 C 
BRANCH  14  15
ATOM     15  O   UNK A  2        3.658   5.689  -3.661  0.00  0.00    -0.530 OA
ATOM     16  H   UNK A  2        4.259   6.026  -4.340  0.00  0.00    +0.370 HD
ENDBRANCH  14  15
ENDBRANCH  12  14
ENDBRANCH   1   2
BRANCH   1  21
ATOM     17  N   UNK A  0       -1.465   7.547  -5.205  0.00  0.00    -0.870 N 
ATOM     18  H   UNK A  0       -1.140   8.248  -5.791  0.00  0.00    +0.410 HD
ATOM     19  H   UNK A  0       -2.324   7.642  -4.764  0.00  0.00    +0.390 HD
ATOM     20  C   UNK A  0       -0.723   6.440  -5.003  0.00  0.00    +0.710 C 
ATOM     21  N   TYR A  1       -1.175   5.466  -4.188  0.00  0.00    -0.730 N 
ATOM     22  H   TYR A  1       -2.034   5.561  -3.747  0.00  0.00    +0.400 HD
ATOM     23  O   UNK A  0        0.353   6.320  -5.555  0.00  0.00    -0.560 OA
ENDBRANCH   1  21
BRANCH   1  24
ATOM     24  CB  TYR A  1       -0.140   3.551  -5.303  0.00  0.00    +0.100 C 
BRANCH  24  25
ATOM     25  CG  TYR A  1       -1.457   3.055  -5.841  0.00  0.00    -0.090 A 
ATOM     26  CD2 TYR A  1       -1.904   1.789  -5.513  0.00  0.00    +0.020 A 
ATOM     27  CE2 TYR A  1       -3.114   1.334  -6.000  0.00  0.00    -0.010 A 
ATOM     28  CZ  TYR A  1       -3.876   2.145  -6.828  0.00  0.00    +0.100 A 
ATOM     29  CE1 TYR A  1       -3.423   3.414  -7.160  0.00  0.00    -0.010 A 
ATOM     30  CD1 TYR A  1       -2.215   3.866  -6.666  0.00  0.00    +0.030 A 
BRANCH  28  31
ATOM     31  OH  TYR A  1       -5.065   1.698  -7.312  0.00  0.00    -0.500 OA
ATOM     32  HH  TYR A  1       -4.996   1.236  -8.159  0.00  0.00    +0.390 HD
ENDBRANCH  28  31
ENDBRANCH  24  25
ENDBRANCH   1  24
TORSDOF 7
