REMARK  Name = ZINCpe000000WaIo.0
REMARK                            x       y       z     vdW  Elec       q    Type
REMARK                         _______ _______ _______ _____ _____    ______ ____
ROOT
ATOM      1  N   LIG    1       -2.438  -0.124   0.071  0.00  0.00    -0.690 N 
ATOM      2  H   LIG    1       -2.460   0.846   0.077  0.00  0.00    +0.410 HD
ATOM      3  C   LIG    1       -1.256  -0.770   0.034  0.00  0.00    +0.580 C 
ATOM      4  O   LIG    1       -1.227  -1.986   0.027  0.00  0.00    -0.540 OA
ENDROOT
BRANCH   3   5
ATOM      5  C   LIG    1        0.002  -0.004   0.002  0.00  0.00    -0.220 A 
ATOM      6  C   LIG    1        1.212  -0.651  -0.036  0.00  0.00    +0.380 A 
ATOM      7  N   LIG    1        2.386   0.034  -0.066  0.00  0.00    -0.510 N 
ATOM      8  C   LIG    1        3.598  -0.787  -0.164  0.00  0.00    +0.340 C 
ATOM      9  C   LIG    1        4.731  -0.173   0.661  0.00  0.00    -0.380 C 
ATOM     10  S   LIG    1        4.998   1.514   0.030  0.00  0.00    +2.550 S 
ATOM     11  N   LIG    1        3.471   2.150   0.034  0.00  0.00    -0.960 NA
ATOM     12  O   LIG    1        5.370   1.486  -1.342  0.00  0.00    -0.960 OA
ATOM     13  O   LIG    1        5.715   2.298   0.973  0.00  0.00    -0.940 OA
ATOM     14  C   LIG    1        2.394   1.401  -0.013  0.00  0.00    +0.520 A 
ATOM     15  C   LIG    1        1.160   2.119   0.002  0.00  0.00    +0.020 A 
ATOM     16  C   LIG    1       -0.018   1.460   0.010  0.00  0.00    +0.140 A 
ENDBRANCH   3   5
BRANCH   1  19
ATOM     17  C   LIG    1       -5.137   0.410   0.963  0.00  0.00    +0.170 C 
ATOM     18  C   LIG    1       -4.402  -0.845   1.466  0.00  0.00    -0.050 C 
ATOM     19  C   LIG    1       -3.688  -0.885   0.103  0.00  0.00    +0.250 C 
ATOM     20  C   LIG    1       -5.326  -2.040   1.709  0.00  0.00    +0.060 C 
ATOM     21  C   LIG    1       -4.889  -0.117  -0.451  0.00  0.00    -0.110 C 
ATOM     22  C   LIG    1       -5.992  -0.831  -1.234  0.00  0.00    +0.050 C 
ATOM     23  C   LIG    1       -6.199   0.497  -1.984  0.00  0.00    +0.010 C 
ATOM     24  C   LIG    1       -4.739   0.837  -1.636  0.00  0.00    +0.040 C 
BRANCH  17  26
ATOM     25  C   LIG    1       -5.127   2.469   2.189  0.00  0.00    +0.200 C 
ATOM     26  O   LIG    1       -4.453   1.631   1.248  0.00  0.00    -0.370 OA
ENDBRANCH  17  26
ENDBRANCH   1  19
TORSDOF 3
