REMARK  Name = ZINCAx00000008WA.0
REMARK                            x       y       z     vdW  Elec       q    Type
REMARK                         _______ _______ _______ _____ _____    ______ ____
ROOT
ATOM      1  C   LIG    1        5.241  -7.149   6.313  0.00  0.00    +0.290 C 
ATOM      2  N   LIG    1        5.887  -6.365   5.257  0.00  0.00    -0.570 N 
ATOM      3  C   LIG    1        5.199  -6.036   4.146  0.00  0.00    +0.530 C 
ATOM      4  O   LIG    1        5.734  -5.388   3.271  0.00  0.00    -0.510 OA
ENDROOT
BRANCH   2   5
ATOM      5  C   LIG    1        7.212  -5.960   5.401  0.00  0.00    +0.200 A 
ATOM      6  C   LIG    1        7.509  -4.744   6.001  0.00  0.00    +0.010 A 
ATOM      7  C   LIG    1        8.823  -4.345   6.143  0.00  0.00    +0.050 A 
ATOM      8  C   LIG    1        9.853  -5.152   5.690  0.00  0.00    +0.010 A 
ATOM      9  C   LIG    1        9.578  -6.362   5.091  0.00  0.00    +0.050 A 
ATOM     10  C   LIG    1        8.254  -6.783   4.946  0.00  0.00    -0.130 A 
BRANCH  10  11
ATOM     11  C   LIG    1        7.952  -8.080   4.312  0.00  0.00    +0.560 C 
ATOM     12  N   LIG    1        8.956  -8.867   3.877  0.00  0.00    -0.730 N 
ATOM     13  H   LIG    1        9.877  -8.580   3.980  0.00  0.00    +0.400 HD
ATOM     14  O   LIG    1        6.798  -8.440   4.183  0.00  0.00    -0.520 OA
BRANCH  12  15
ATOM     15  C   LIG    1        8.657 -10.156   3.248  0.00  0.00    +0.400 C 
BRANCH  15  16
ATOM     16  C   LIG    1        9.944 -10.834   2.854  0.00  0.00    -0.040 A 
ATOM     17  C   LIG    1       10.661 -11.670   3.626  0.00  0.00    -0.030 A 
ATOM     18  C   LIG    1       11.783 -12.070   2.865  0.00  0.00    -0.070 A 
ATOM     19  C   LIG    1       11.688 -11.449   1.676  0.00  0.00    +0.180 A 
ATOM     20  O   LIG    1       10.573 -10.701   1.675  0.00  0.00    -0.170 OA
ENDBRANCH  15  16
ENDBRANCH  12  15
ENDBRANCH  10  11
ENDBRANCH   2   5
BRANCH   3  21
ATOM     21  C   LIG    1        3.766  -6.474   3.989  0.00  0.00    +0.220 C 
BRANCH  21  22
ATOM     22  N   LIG    1        3.244  -5.993   2.703  0.00  0.00    -0.520 NA
ATOM     23  C   LIG    1        1.937  -6.595   2.407  0.00  0.00    +0.180 C 
ATOM     24  C   LIG    1        1.466  -6.132   1.026  0.00  0.00    +0.190 C 
ATOM     25  N   LIG    1        1.384  -4.665   1.006  0.00  0.00    -0.540 NA
ATOM     26  C   LIG    1        2.692  -4.063   1.302  0.00  0.00    +0.190 C 
ATOM     27  C   LIG    1        3.162  -4.526   2.683  0.00  0.00    +0.190 C 
BRANCH  25  28
ATOM     28  C   LIG    1        0.862  -4.184  -0.280  0.00  0.00    +0.240 C 
BRANCH  28  29
ATOM     29  C   LIG    1        0.561  -2.711  -0.181  0.00  0.00    -0.070 A 
ATOM     30  C   LIG    1       -0.691  -2.288   0.222  0.00  0.00    +0.050 A 
ATOM     31  C   LIG    1       -0.972  -0.938   0.314  0.00  0.00    +0.040 A 
ATOM     32  C   LIG    1        0.002  -0.004   0.002  0.00  0.00    +0.030 A 
ATOM     33  O   LIG    1       -0.016   1.361   0.009  0.00  0.00    -0.310 OA
ATOM     34  C   LIG    1        1.366   1.764  -0.002  0.00  0.00    +0.420 C 
ATOM     35  O   LIG    1        2.037   0.668  -0.651  0.00  0.00    -0.310 OA
ATOM     36  C   LIG    1        1.265  -0.430  -0.404  0.00  0.00    +0.030 A 
ATOM     37  C   LIG    1        1.539  -1.784  -0.494  0.00  0.00    +0.040 A 
ENDBRANCH  28  29
ENDBRANCH  25  28
ENDBRANCH  21  22
ENDBRANCH   3  21
TORSDOF 8
