REMARK  Name = ZINCpk000000h2az.0
REMARK                            x       y       z     vdW  Elec       q    Type
REMARK                         _______ _______ _______ _____ _____    ______ ____
ROOT
ATOM      1  N   LIG    1       -1.513   2.801   0.753  0.00  0.00    -0.500 NA
ATOM      2  C   LIG    1       -0.778   1.605   1.244  0.00  0.00    +0.170 C 
ATOM      3  C   LIG    1       -0.013   1.086   0.008  0.00  0.00    +0.020 C 
ATOM      4  C   LIG    1       -0.801   1.618  -1.207  0.00  0.00    +0.240 C 
ATOM      5  C   LIG    1       -1.978   2.413  -0.604  0.00  0.00    +0.180 C 
ENDROOT
BRANCH   4   6
ATOM      6  N   LIG    1        0.045   2.497  -2.017  0.00  0.00    -0.700 N 
ATOM      7  H   LIG    1        0.034   3.455  -1.866  0.00  0.00    +0.410 HD
ATOM      8  C   LIG    1        0.840   1.975  -2.972  0.00  0.00    +0.610 C 
ATOM      9  O   LIG    1        0.854   0.775  -3.162  0.00  0.00    -0.500 OA
BRANCH   8  10
ATOM     10  C   LIG    1        1.698   2.866  -3.793  0.00  0.00    +0.130 A 
ATOM     11  N   LIG    1        1.776   4.167  -3.701  0.00  0.00    -0.350 NA
ATOM     12  O   LIG    1        2.571   4.595  -4.512  0.00  0.00    +0.100 OA
ATOM     13  C   LIG    1        3.084   3.588  -5.225  0.00  0.00    +0.190 A 
ATOM     14  C   LIG    1        4.099   3.702  -6.333  0.00  0.00    +0.250 C 
ATOM     15  N   LIG    1        2.539   2.484  -4.780  0.00  0.00    -0.440 NA
ENDBRANCH   8  10
ENDBRANCH   4   6
BRANCH   1  16
ATOM     16  C   LIG    1       -2.649   3.118   1.629  0.00  0.00    +0.220 C 
BRANCH  16  19
ATOM     17  C   LIG    1       -1.308   4.640   4.818  0.00  0.00    +0.170 A 
ATOM     18  C   LIG    1       -1.756   4.502   3.512  0.00  0.00    -0.040 A 
ATOM     19  C   LIG    1       -2.163   3.266   3.047  0.00  0.00    -0.010 A 
ATOM     20  C   LIG    1       -2.130   2.166   3.883  0.00  0.00    -0.050 A 
ATOM     21  C   LIG    1       -1.678   2.298   5.189  0.00  0.00    +0.170 A 
ATOM     22  C   LIG    1       -1.269   3.537   5.657  0.00  0.00    -0.170 A 
BRANCH  17  24
ATOM     23  C   LIG    1       -0.459   5.925   6.630  0.00  0.00    +0.250 C 
ATOM     24  O   LIG    1       -0.908   5.856   5.275  0.00  0.00    -0.310 OA
ENDBRANCH  17  24
BRANCH  21  25
ATOM     25  O   LIG    1       -1.640   1.215   6.008  0.00  0.00    -0.310 OA
ATOM     26  C   LIG    1       -1.168   1.425   7.340  0.00  0.00    +0.250 C 
ENDBRANCH  21  25
ENDBRANCH  16  19
ENDBRANCH   1  16
TORSDOF 6
