REMARK  Name = ZINCtV000002vV4j.0
REMARK                            x       y       z     vdW  Elec       q    Type
REMARK                         _______ _______ _______ _____ _____    ______ ____
ROOT
ATOM      1  C   LIG    1       -0.823  -1.683   0.095  0.00  0.00    +0.180 C 
ENDROOT
BRANCH   1   2
ATOM      2  C   LIG    1       -2.213  -2.242  -0.067  0.00  0.00    -0.080 A 
ATOM      3  C   LIG    1       -2.912  -2.026  -1.240  0.00  0.00    +0.070 A 
ATOM      4  C   LIG    1       -4.185  -2.541  -1.392  0.00  0.00    +0.010 A 
ATOM      5  C   LIG    1       -4.765  -3.268  -0.362  0.00  0.00    +0.090 A 
ATOM      6  C   LIG    1       -4.063  -3.480   0.816  0.00  0.00    -0.010 A 
ATOM      7  C   LIG    1       -2.789  -2.966   0.961  0.00  0.00    +0.030 A 
BRANCH   5   8
ATOM      8  O   LIG    1       -6.018  -3.773  -0.507  0.00  0.00    -0.260 OA
BRANCH   8   9
ATOM      9  C   LIG    1       -7.013  -3.239   0.249  0.00  0.00    +0.120 A 
ATOM     10  C   LIG    1       -6.758  -2.139   1.056  0.00  0.00    -0.060 A 
ATOM     11  C   LIG    1       -7.772  -1.595   1.821  0.00  0.00    +0.050 A 
ATOM     12  C   LIG    1       -9.037  -2.152   1.790  0.00  0.00    -0.020 A 
ATOM     13  C   LIG    1       -9.293  -3.251   0.990  0.00  0.00    +0.050 A 
ATOM     14  C   LIG    1       -8.283  -3.795   0.220  0.00  0.00    -0.020 A 
ENDBRANCH   8   9
ENDBRANCH   5   8
ENDBRANCH   1   2
BRANCH   1  15
ATOM     15  N   LIG    1       -0.084  -1.837  -1.166  0.00  0.00    -0.670 NA
ATOM     16  H   LIG    1        0.621  -1.122  -1.262  0.00  0.00    +0.350 HD
BRANCH  15  17
ATOM     17  C   LIG    1        0.509  -3.177  -1.268  0.00  0.00    +0.190 C 
ATOM     18  C   LIG    1       -0.406  -4.127  -2.076  0.00  0.00    +0.260 C 
ATOM     19  O   LIG    1        0.101  -3.996  -3.415  0.00  0.00    -0.280 OA
ATOM     20  C   LIG    1        1.420  -3.662  -3.365  0.00  0.00    +0.190 A 
ATOM     21  C   LIG    1        2.403  -3.761  -4.346  0.00  0.00    -0.040 A 
ATOM     22  C   LIG    1        3.696  -3.350  -4.082  0.00  0.00    +0.180 A 
ATOM     23  C   LIG    1        4.025  -2.836  -2.839  0.00  0.00    -0.070 A 
ATOM     24  C   LIG    1        3.053  -2.738  -1.857  0.00  0.00    +0.190 A 
ATOM     25  F   LIG    1        3.368  -2.238  -0.641  0.00  0.00    -0.130 F 
ATOM     26  F   LIG    1        4.642  -3.450  -5.040  0.00  0.00    -0.120 F 
ATOM     27  C   LIG    1        1.764  -3.151  -2.119  0.00  0.00    -0.250 A 
ENDBRANCH  15  17
ENDBRANCH   1  15
BRANCH   1  28
ATOM     28  C   LIG    1       -0.909  -0.199   0.457  0.00  0.00    +0.040 C 
BRANCH  28  30
ATOM     29  C   LIG    1        0.419   1.833   1.049  0.00  0.00    +0.030 C 
ATOM     30  C   LIG    1        0.490   0.328   0.784  0.00  0.00    -0.010 C 
ENDBRANCH  28  30
ENDBRANCH   1  28
TORSDOF 7
