REMARK  Name = ZINCrH000004mRAW.0
REMARK                            x       y       z     vdW  Elec       q    Type
REMARK                         _______ _______ _______ _____ _____    ______ ____
ROOT
ATOM      1  S   LIG    1        0.530  -2.434  -0.550  0.00  0.00    +2.700 S 
ATOM      2  O   LIG    1        0.794  -3.625  -1.279  0.00  0.00    -0.950 OA
ATOM      3  O   LIG    1       -0.629  -1.637  -0.756  0.00  0.00    -0.940 OA
ENDROOT
BRANCH   1   9
ATOM      4  C   LIG    1        1.952  -0.125  -0.208  0.00  0.00    +0.220 A 
ATOM      5  C   LIG    1        3.039   0.711  -0.415  0.00  0.00    -0.060 A 
ATOM      6  C   LIG    1        4.090   0.295  -1.209  0.00  0.00    +0.090 A 
ATOM      7  C   LIG    1        4.053  -0.956  -1.809  0.00  0.00    +0.090 A 
ATOM      8  C   LIG    1        2.962  -1.791  -1.605  0.00  0.00    +0.170 A 
ATOM      9  C   LIG    1        1.915  -1.376  -0.807  0.00  0.00    -0.690 A 
BRANCH   7  10
ATOM     10  N   LIG    1        5.116  -1.377  -2.618  0.00  0.00    -0.670 N 
ATOM     11  H   LIG    1        6.021  -1.094  -2.416  0.00  0.00    +0.410 HD
ATOM     12  C   LIG    1        4.881  -2.176  -3.678  0.00  0.00    +0.510 C 
ATOM     13  O   LIG    1        3.742  -2.465  -3.978  0.00  0.00    -0.520 OA
ATOM     14  C   LIG    1        6.033  -2.711  -4.489  0.00  0.00    +0.110 C 
ENDBRANCH   7  10
BRANCH   4  16
ATOM     15  C   LIG    1        0.971   1.624   1.069  0.00  0.00    +0.260 C 
ATOM     16  O   LIG    1        0.920   0.283   0.578  0.00  0.00    -0.310 OA
ENDBRANCH   4  16
ENDBRANCH   1   9
BRANCH   1  17
ATOM     17  N   LIG    1        0.527  -2.858   1.051  0.00  0.00    -1.100 NA
ATOM     18  H   LIG    1       -0.202  -2.576   1.626  0.00  0.00    +0.420 HD
BRANCH  17  19
ATOM     19  C   LIG    1        1.625  -3.658   1.599  0.00  0.00    +0.330 C 
BRANCH  19  20
ATOM     20  C   LIG    1        2.490  -2.790   2.477  0.00  0.00    -0.090 A 
ATOM     21  C   LIG    1        1.907  -1.851   3.308  0.00  0.00    +0.050 A 
ATOM     22  C   LIG    1        2.700  -1.058   4.117  0.00  0.00    +0.020 A 
ATOM     23  C   LIG    1        4.076  -1.196   4.086  0.00  0.00    -0.030 A 
ATOM     24  C   LIG    1        4.658  -2.132   3.250  0.00  0.00    +0.020 A 
ATOM     25 CL   LIG    1        5.072  -0.196   5.096  0.00  0.00    -0.070 Cl
ATOM     26  C   LIG    1        3.865  -2.929   2.446  0.00  0.00    +0.040 A 
ENDBRANCH  19  20
BRANCH  19  27
ATOM     27  C   LIG    1        1.053  -4.810   2.427  0.00  0.00    -0.050 C 
ATOM     28  C   LIG    1        1.446  -6.233   2.023  0.00  0.00    +0.030 C 
ATOM     29  C   LIG    1        0.029  -5.725   1.751  0.00  0.00    +0.030 C 
ENDBRANCH  19  27
ENDBRANCH  17  19
ENDBRANCH   1  17
TORSDOF 7
