REMARK  Name = ZINCrD0000075AZ9.0
REMARK                            x       y       z     vdW  Elec       q    Type
REMARK                         _______ _______ _______ _____ _____    ______ ____
ROOT
ATOM      1  O   LIG    1        5.663   7.084   2.985  0.00  0.00    -0.520 OA
ATOM      2  C   LIG    1        5.529   7.936   2.128  0.00  0.00    +0.560 C 
ATOM      3  N   LIG    1        4.581   7.796   1.180  0.00  0.00    -0.720 N 
ATOM      4  H   LIG    1        4.475   8.475   0.496  0.00  0.00    +0.400 HD
ENDROOT
BRANCH   2   5
ATOM      5  C   LIG    1        6.407   9.126   2.125  0.00  0.00    -0.100 A 
ATOM      6  C   LIG    1        6.256  10.105   1.143  0.00  0.00    +0.060 A 
ATOM      7  C   LIG    1        7.080  11.215   1.146  0.00  0.00    +0.100 A 
ATOM      8  C   LIG    1        8.052  11.355   2.123  0.00  0.00    +0.080 A 
ATOM      9  C   LIG    1        8.205  10.387   3.099  0.00  0.00    -0.160 A 
ATOM     10  F   LIG    1        6.936  12.165   0.196  0.00  0.00    -0.120 F 
ATOM     11  C   LIG    1        7.386   9.277   3.109  0.00  0.00    +0.140 A 
BRANCH   9  12
ATOM     12  C   LIG    1        9.266  10.547   4.157  0.00  0.00    +0.510 C 
ATOM     13  F   LIG    1       10.158   9.471   4.090  0.00  0.00    -0.170 F 
ATOM     14  F   LIG    1        8.665  10.576   5.420  0.00  0.00    -0.170 F 
ATOM     15  F   LIG    1        9.960  11.742   3.944  0.00  0.00    -0.170 F 
ENDBRANCH   9  12
ENDBRANCH   2   5
BRANCH   3  16
ATOM     16  C   LIG    1        3.712   6.617   1.183  0.00  0.00    +0.280 C 
BRANCH  16  17
ATOM     17  C   LIG    1        2.732   6.703   0.011  0.00  0.00    +0.150 C 
BRANCH  17  18
ATOM     18  C   LIG    1        1.837   5.490   0.013  0.00  0.00    +0.010 A 
ATOM     19  N   LIG    1        2.211   4.230   0.008  0.00  0.00    -0.280 NA
ATOM     20  N   LIG    1        1.161   3.488   0.009  0.00  0.00    -0.100 N 
ATOM     21  N   LIG    1        0.095   4.206   0.023  0.00  0.00    -0.280 NA
ATOM     22  C   LIG    1        0.440   5.474   0.027  0.00  0.00    +0.200 A 
BRANCH  20  23
ATOM     23  C   LIG    1        1.177   2.086   0.002  0.00  0.00    +0.140 A 
ATOM     24  C   LIG    1       -0.017   1.377   0.010  0.00  0.00    +0.040 A 
ATOM     25  C   LIG    1        0.002  -0.004   0.002  0.00  0.00    +0.040 A 
ATOM     26  C   LIG    1        1.208  -0.680  -0.013  0.00  0.00    +0.020 A 
ATOM     27  C   LIG    1        2.398   0.023  -0.021  0.00  0.00    +0.040 A 
ATOM     28  C   LIG    1        2.386   1.404  -0.014  0.00  0.00    +0.040 A 
ENDBRANCH  20  23
ENDBRANCH  17  18
ENDBRANCH  16  17
ENDBRANCH   3  16
TORSDOF 6
