REMARK  Name = ZINCvU00000005CU.0
REMARK                            x       y       z     vdW  Elec       q    Type
REMARK                         _______ _______ _______ _____ _____    ______ ____
ROOT
ATOM      1  C   LIG    1        4.203   4.845  -1.546  0.00  0.00    +0.500 C 
ATOM      2  N   LIG    1        4.767   5.143  -2.733  0.00  0.00    -0.680 N 
ATOM      3  H   LIG    1        4.342   4.858  -3.557  0.00  0.00    +0.410 HD
ATOM      4  O   LIG    1        4.776   5.128  -0.514  0.00  0.00    -0.480 OA
ENDROOT
BRANCH   2   5
ATOM      5  C   LIG    1        5.968   5.865  -2.777  0.00  0.00    +0.140 A 
ATOM      6  C   LIG    1        6.197   6.768  -3.807  0.00  0.00    +0.000 A 
ATOM      7  C   LIG    1        7.377   7.483  -3.848  0.00  0.00    +0.010 A 
ATOM      8  C   LIG    1        8.341   7.290  -2.866  0.00  0.00    -0.100 A 
ATOM      9  C   LIG    1        8.113   6.382  -1.839  0.00  0.00    +0.050 A 
ATOM     10  C   LIG    1        6.930   5.672  -1.795  0.00  0.00    +0.050 A 
BRANCH   8  11
ATOM     11  S   LIG    1        9.851   8.196  -2.922  0.00  0.00    -0.100 S 
BRANCH  11  12
ATOM     12  C   LIG    1        9.660   9.214  -4.411  0.00  0.00    +0.140 C 
BRANCH  12  13
ATOM     13  C   LIG    1       10.891  10.062  -4.601  0.00  0.00    -0.130 A 
ATOM     14  C   LIG    1       11.960   9.590  -5.347  0.00  0.00    +0.080 A 
ATOM     15  C   LIG    1       13.073  10.405  -5.495  0.00  0.00    -0.030 A 
ATOM     16  C   LIG    1       13.078  11.652  -4.899  0.00  0.00    +0.270 A 
ATOM     17  N   LIG    1       12.043  12.068  -4.197  0.00  0.00    -0.480 NA
ATOM     18  C   LIG    1       10.967  11.323  -4.039  0.00  0.00    +0.280 A 
ENDBRANCH  12  13
ENDBRANCH  11  12
ENDBRANCH   8  11
ENDBRANCH   2   5
BRANCH   1  19
ATOM     19  C   LIG    1        2.861   4.161  -1.499  0.00  0.00    +0.060 C 
BRANCH  19  31
ATOM     20  C   LIG    1        2.940   7.064   2.123  0.00  0.00    +0.100 C 
ATOM     21  C   LIG    1        3.163   5.732   1.454  0.00  0.00    +0.510 C 
ATOM     22  N   LIG    1        2.236   5.237   0.610  0.00  0.00    -0.560 N 
ATOM     23  C   LIG    1        1.073   5.953   0.355  0.00  0.00    +0.240 C 
ATOM     24  C   LIG    1       -0.062   5.300   0.086  0.00  0.00    -0.040 C 
ATOM     25  C   LIG    1       -0.052   3.825   0.034  0.00  0.00    -0.030 A 
ATOM     26  C   LIG    1       -1.245   3.103   0.033  0.00  0.00    +0.020 A 
ATOM     27  C   LIG    1       -1.208   1.723   0.018  0.00  0.00    +0.020 A 
ATOM     28  C   LIG    1        0.005   1.059   0.014  0.00  0.00    +0.010 A 
ATOM     29  C   LIG    1        1.193   1.771   0.006  0.00  0.00    +0.030 A 
ATOM     30  C   LIG    1        1.169   3.148   0.008  0.00  0.00    -0.100 A 
ATOM     31  C   LIG    1        2.452   3.940  -0.042  0.00  0.00    +0.320 C 
ATOM     32  O   LIG    1        4.178   5.105   1.675  0.00  0.00    -0.480 OA
ENDBRANCH  19  31
ENDBRANCH   1  19
TORSDOF 6
