REMARK  Name = ZINCqH0000050Dxw.0
REMARK                            x       y       z     vdW  Elec       q    Type
REMARK                         _______ _______ _______ _____ _____    ______ ____
ROOT
ATOM      1  C   LIG    1        2.379   0.874  -0.036  0.00  0.00    +0.310 C 
ENDROOT
BRANCH   1   2
ATOM      2  C   LIG    1        1.120   1.702   0.001  0.00  0.00    -0.130 C 
ATOM      3  C   LIG    1       -0.013   1.076   0.008  0.00  0.00    -0.010 C 
ATOM      4  C   LIG    1       -1.347   1.768   0.018  0.00  0.00    +0.330 C 
ATOM      5  N   LIG    1       -1.146   3.199   0.295  0.00  0.00    -0.600 N 
ATOM      6  C   LIG    1       -0.037   3.868  -0.408  0.00  0.00    +0.310 C 
ATOM      7  C   LIG    1       -1.943   3.870   1.149  0.00  0.00    +0.660 C 
ATOM      8  O   LIG    1       -1.754   5.053   1.353  0.00  0.00    -0.560 OA
ATOM      9  C   LIG    1        1.268   3.195   0.025  0.00  0.00    +0.070 C 
BRANCH   7  10
ATOM     10  O   LIG    1       -2.948   3.231   1.776  0.00  0.00    -0.360 OA
BRANCH  10  11
ATOM     11  C   LIG    1       -3.766   4.018   2.682  0.00  0.00    +0.140 C 
ATOM     12  C   LIG    1       -2.886   4.591   3.795  0.00  0.00    +0.040 C 
ATOM     13  C   LIG    1       -4.848   3.127   3.296  0.00  0.00    +0.080 C 
ATOM     14  C   LIG    1       -4.425   5.163   1.911  0.00  0.00    +0.040 C 
ENDBRANCH  10  11
ENDBRANCH   7  10
ENDBRANCH   1   2
BRANCH   1  16
ATOM     15  C   LIG    1        3.944   0.026  -1.700  0.00  0.00    +0.530 C 
ATOM     16  N   LIG    1        2.829   0.732  -1.423  0.00  0.00    -0.720 N 
ATOM     17  H   LIG    1        2.326   1.145  -2.141  0.00  0.00    +0.400 HD
ATOM     18  O   LIG    1        4.573  -0.491  -0.801  0.00  0.00    -0.520 OA
BRANCH  15  19
ATOM     19  C   LIG    1        4.407  -0.120  -3.126  0.00  0.00    +0.080 C 
BRANCH  19  20
ATOM     20  S   LIG    1        5.922  -1.117  -3.170  0.00  0.00    -0.020 S 
BRANCH  20  27
ATOM     21  C   LIG    1        8.326  -2.562  -4.332  0.00  0.00    +0.100 C 
ATOM     22  C   LIG    1        7.432  -1.867  -5.326  0.00  0.00    -0.060 A 
ATOM     23  C   LIG    1        7.727  -1.918  -6.674  0.00  0.00    +0.030 A 
ATOM     24  C   LIG    1        6.911  -1.275  -7.587  0.00  0.00    +0.010 A 
ATOM     25  C   LIG    1        5.793  -0.585  -7.155  0.00  0.00    +0.010 A 
ATOM     26  C   LIG    1        5.489  -0.534  -5.809  0.00  0.00    -0.010 A 
ATOM     27  C   LIG    1        6.307  -1.179  -4.888  0.00  0.00    -0.110 A 
ENDBRANCH  20  27
ENDBRANCH  19  20
ENDBRANCH  15  19
ENDBRANCH   1  16
TORSDOF 7
