REMARK  Name = ZINCtV000002H0rt.0
REMARK                            x       y       z     vdW  Elec       q    Type
REMARK                         _______ _______ _______ _____ _____    ______ ____
ROOT
ATOM      1  C   LIG    1        3.712   1.838  -0.024  0.00  0.00    -0.040 A 
ATOM      2  C   LIG    1        4.653   0.895  -0.038  0.00  0.00    +0.000 A 
ATOM      3  S   LIG    1        3.947  -0.709  -0.040  0.00  0.00    +0.200 S 
ATOM      4  C   LIG    1        2.311  -0.068  -0.020  0.00  0.00    +0.100 A 
ATOM      5  N   LIG    1        1.123  -0.688  -0.012  0.00  0.00    -0.490 NA
ATOM      6  C   LIG    1        0.002  -0.004   0.002  0.00  0.00    +0.540 A 
ATOM      7  N   LIG    1       -0.016   1.316   0.009  0.00  0.00    -0.460 NA
ATOM      8  C   LIG    1        1.110   2.017   0.002  0.00  0.00    +0.180 A 
ATOM      9  C   LIG    1        2.348   1.327  -0.013  0.00  0.00    -0.150 A 
ENDROOT
BRANCH   1  14
ATOM     10  C   LIG    1        4.935   7.465  -0.006  0.00  0.00    +0.100 C 
ATOM     11  C   LIG    1        4.615   5.992  -0.011  0.00  0.00    -0.080 A 
ATOM     12  C   LIG    1        5.231   5.150   0.897  0.00  0.00    +0.020 A 
ATOM     13  C   LIG    1        4.942   3.801   0.898  0.00  0.00    +0.040 A 
ATOM     14  C   LIG    1        4.027   3.287  -0.019  0.00  0.00    -0.040 A 
ATOM     15  C   LIG    1        3.413   4.139  -0.936  0.00  0.00    +0.020 A 
ATOM     16  C   LIG    1        3.707   5.487  -0.924  0.00  0.00    +0.020 A 
ENDBRANCH   1  14
BRANCH   8  17
ATOM     17  S   LIG    1        1.067   3.778   0.012  0.00  0.00    +0.230 S 
BRANCH  17  18
ATOM     18  C   LIG    1       -0.675   4.042   0.029  0.00  0.00    +0.110 A 
ATOM     19  N   LIG    1       -1.599   3.116   0.034  0.00  0.00    -0.190 NA
ATOM     20  N   LIG    1       -2.765   3.657   0.048  0.00  0.00    -0.240 NA
ATOM     21  C   LIG    1       -2.645   4.959   0.053  0.00  0.00    +0.140 A 
ATOM     22  S   LIG    1       -3.526   6.491   0.070  0.00  0.00    +0.210 S 
ATOM     23  C   LIG    1       -2.073   7.498   0.075  0.00  0.00    -0.140 A 
ATOM     24  C   LIG    1       -1.895   8.872   0.087  0.00  0.00    +0.100 A 
ATOM     25  C   LIG    1       -0.618   9.401   0.081  0.00  0.00    +0.060 A 
ATOM     26  C   LIG    1        0.472   8.548   0.063  0.00  0.00    +0.050 A 
ATOM     27  C   LIG    1        0.298   7.183   0.051  0.00  0.00    +0.040 A 
ATOM     28  C   LIG    1       -0.989   6.625   0.057  0.00  0.00    +0.100 A 
ATOM     29  N   LIG    1       -1.319   5.268   0.047  0.00  0.00    -0.420 N 
ENDBRANCH  17  18
ENDBRANCH   8  17
TORSDOF 3
