REMARK  Name = ZINC650000001I4S.0
REMARK                            x       y       z     vdW  Elec       q    Type
REMARK                         _______ _______ _______ _____ _____    ______ ____
ROOT
ATOM      1  C   LIG    1       -2.050   1.768   1.194  0.00  0.00    +0.750 C 
ENDROOT
BRANCH   1   3
ATOM      2  C   LIG    1       -0.013   1.086   0.008  0.00  0.00    +0.340 C 
ATOM      3  N   LIG    1       -0.698   1.558   1.213  0.00  0.00    -0.620 NA
ATOM      4  C   LIG    1        0.063   1.806   2.440  0.00  0.00    +0.340 C 
ENDBRANCH   1   3
BRANCH   1   5
ATOM      5  N   LIG    1       -2.636   2.228   0.090  0.00  0.00    -0.790 NA
ATOM      6  H   LIG    1       -3.595   2.377   0.076  0.00  0.00    +0.440 HD
ATOM      7  H   LIG    1       -2.105   2.415  -0.700  0.00  0.00    +0.440 HD
ENDBRANCH   1   5
BRANCH   1   8
ATOM      8  N   LIG    1       -2.780   1.512   2.278  0.00  0.00    -0.790 NA
ATOM      9  H   LIG    1       -3.738   1.661   2.264  0.00  0.00    +0.440 HD
ATOM     10  H   LIG    1       -2.353   1.177   3.082  0.00  0.00    +0.440 HD
ENDBRANCH   1   8
TORSDOF 3
