REMARK  Name = ZINCvU0000000B2M.0
REMARK                            x       y       z     vdW  Elec       q    Type
REMARK                         _______ _______ _______ _____ _____    ______ ____
ROOT
ATOM      1  C   LIG    1       -6.396  -3.539   0.028  0.00  0.00    -0.030 A 
ATOM      2  C   LIG    1       -7.132  -4.649   0.030  0.00  0.00    -0.010 A 
ATOM      3  S   LIG    1       -6.123  -6.082   0.003  0.00  0.00    +0.190 S 
ATOM      4  C   LIG    1       -4.645  -5.130   0.000  0.00  0.00    +0.100 A 
ATOM      5  N   LIG    1       -3.358  -5.503  -0.008  0.00  0.00    -0.500 NA
ATOM      6  C   LIG    1       -2.395  -4.611  -0.009  0.00  0.00    +0.540 A 
ATOM      7  N   LIG    1       -2.638  -3.313  -0.002  0.00  0.00    -0.530 NA
ATOM      8  C   LIG    1       -3.880  -2.849   0.007  0.00  0.00    +0.190 A 
ATOM      9  C   LIG    1       -4.957  -3.770   0.013  0.00  0.00    -0.160 A 
ENDROOT
BRANCH   1  14
ATOM     10  C   LIG    1       -8.706   1.735   0.069  0.00  0.00    +0.090 C 
ATOM     11  C   LIG    1       -8.101   0.355   0.058  0.00  0.00    -0.070 A 
ATOM     12  C   LIG    1       -8.540  -0.582  -0.860  0.00  0.00    +0.010 A 
ATOM     13  C   LIG    1       -7.990  -1.848  -0.875  0.00  0.00    +0.030 A 
ATOM     14  C   LIG    1       -6.991  -2.181   0.038  0.00  0.00    -0.050 A 
ATOM     15  C   LIG    1       -6.557  -1.234   0.965  0.00  0.00    +0.040 A 
ATOM     16  C   LIG    1       -7.110   0.030   0.966  0.00  0.00    +0.030 A 
ENDBRANCH   1  14
BRANCH   8  17
ATOM     17  S   LIG    1       -4.186  -1.114   0.017  0.00  0.00    +0.080 S 
BRANCH  17  18
ATOM     18  C   LIG    1       -2.486  -0.494   0.012  0.00  0.00    +0.050 C 
BRANCH  18  19
ATOM     19  C   LIG    1       -2.500   1.012   0.020  0.00  0.00    +0.420 C 
ATOM     20  O   LIG    1       -3.556   1.609   0.028  0.00  0.00    -0.440 OA
BRANCH  19  21
ATOM     21  C   LIG    1       -1.235   1.759   0.017  0.00  0.00    -0.190 A 
ATOM     22  C   LIG    1       -0.013   1.076   0.008  0.00  0.00    +0.110 A 
ATOM     23  C   LIG    1        1.169   1.778   0.001  0.00  0.00    -0.010 A 
ATOM     24  C   LIG    1        1.156   3.176   0.008  0.00  0.00    +0.180 A 
ATOM     25  C   LIG    1       -0.066   3.845   0.022  0.00  0.00    -0.160 A 
ATOM     26  C   LIG    1        0.261   5.322   0.027  0.00  0.00    +0.150 C 
ATOM     27  C   LIG    1        1.774   5.362   0.014  0.00  0.00    +0.530 C 
ATOM     28  O   LIG    1        2.468   6.356   0.013  0.00  0.00    -0.490 OA
ATOM     29  N   LIG    1        2.204   4.089   0.003  0.00  0.00    -0.550 N 
ATOM     30  C   LIG    1        3.618   3.707  -0.011  0.00  0.00    +0.310 C 
ATOM     31  C   LIG    1       -1.242   3.160   0.030  0.00  0.00    +0.140 A 
ENDBRANCH  19  21
ENDBRANCH  18  19
ENDBRANCH  17  18
ENDBRANCH   8  17
TORSDOF 5
