REMARK  Name = ZINCtV00000L6k2d.0
REMARK                            x       y       z     vdW  Elec       q    Type
REMARK                         _______ _______ _______ _____ _____    ______ ____
ROOT
ATOM      1  C   LIG    1       -0.009   1.074  -0.000  0.00  0.00    +0.240 C 
ENDROOT
BRANCH   1   2
ATOM      2  C   LIG    1       -0.721   1.551   1.239  0.00  0.00    -0.120 A 
ATOM      3  C   LIG    1       -1.325   2.795   1.253  0.00  0.00    +0.040 A 
ATOM      4  C   LIG    1       -1.982   3.231   2.388  0.00  0.00    +0.010 A 
ATOM      5  C   LIG    1       -2.029   2.428   3.512  0.00  0.00    +0.030 A 
ATOM      6  C   LIG    1       -1.421   1.186   3.499  0.00  0.00    +0.010 A 
ATOM      7  C   LIG    1       -0.767   0.748   2.363  0.00  0.00    +0.030 A 
ENDBRANCH   1   2
BRANCH   1  10
ATOM      8  N   LIG    1        2.274   1.208   0.943  0.00  0.00    -0.660 N 
ATOM      9  H   LIG    1        1.974   0.644   1.673  0.00  0.00    +0.410 HD
ATOM     10  C   LIG    1        1.402   1.605  -0.004  0.00  0.00    +0.520 C 
ATOM     11  O   LIG    1        1.752   2.390  -0.860  0.00  0.00    -0.490 OA
BRANCH   8  17
ATOM     12  C   LIG    1        6.104   2.725  -1.740  0.00  0.00    +0.090 C 
ATOM     13  C   LIG    1        5.495   2.349  -0.414  0.00  0.00    -0.070 A 
ATOM     14  C   LIG    1        6.260   2.401   0.737  0.00  0.00    -0.010 A 
ATOM     15  C   LIG    1        5.705   2.057   1.956  0.00  0.00    +0.030 A 
ATOM     16  C   LIG    1        4.384   1.661   2.028  0.00  0.00    -0.120 A 
ATOM     17  C   LIG    1        3.613   1.608   0.874  0.00  0.00    +0.150 A 
ATOM     18  C   LIG    1        3.780   1.287   3.356  0.00  0.00    +0.080 C 
ATOM     19  C   LIG    1        4.175   1.948  -0.350  0.00  0.00    +0.010 A 
ENDBRANCH   8  17
ENDBRANCH   1  10
BRANCH   1  20
ATOM     20  O   LIG    1       -0.710   1.554  -1.178  0.00  0.00    -0.320 OA
BRANCH  20  21
ATOM     21  C   LIG    1       -1.679   0.763  -1.678  0.00  0.00    +0.510 C 
ATOM     22  O   LIG    1       -1.930  -0.300  -1.145  0.00  0.00    -0.470 OA
BRANCH  21  23
ATOM     23  C   LIG    1       -2.434   1.186  -2.873  0.00  0.00    -0.110 A 
ATOM     24  C   LIG    1       -2.151   2.409  -3.485  0.00  0.00    +0.140 A 
ATOM     25  C   LIG    1       -2.858   2.797  -4.606  0.00  0.00    -0.110 A 
ATOM     26  C   LIG    1       -3.853   1.981  -5.117  0.00  0.00    +0.110 A 
ATOM     27  C   LIG    1       -4.142   0.770  -4.514  0.00  0.00    +0.040 A 
ATOM     28 BR   LIG    1       -2.471   4.449  -5.440  0.00  0.00    -0.020 Br
ATOM     29  C   LIG    1       -3.440   0.368  -3.395  0.00  0.00    +0.030 A 
ATOM     30 CL   LIG    1       -3.805  -1.151  -2.639  0.00  0.00    -0.020 Cl
ENDBRANCH  21  23
ENDBRANCH  20  21
ENDBRANCH   1  20
TORSDOF 6
