REMARK  Name = ZINCkj000005heKk.0
REMARK                            x       y       z     vdW  Elec       q    Type
REMARK                         _______ _______ _______ _____ _____    ______ ____
ROOT
ATOM      1  C   LIG    1        1.061   3.358  -0.575  0.00  0.00    +0.300 C 
ATOM      2  N   LIG    1        1.133   1.936  -0.228  0.00  0.00    -0.600 N 
ATOM      3  C   LIG    1        0.030   1.291   0.201  0.00  0.00    +0.570 C 
ATOM      4  O   LIG    1        0.063   0.091   0.390  0.00  0.00    -0.500 OA
ENDROOT
BRANCH   3   5
ATOM      5  C   LIG    1       -1.223   2.043   0.435  0.00  0.00    +0.080 A 
ATOM      6  N   LIG    1       -1.221   3.368   0.352  0.00  0.00    -0.420 NA
ATOM      7  C   LIG    1       -2.313   4.073   0.547  0.00  0.00    +0.290 A 
ATOM      8  C   LIG    1       -3.515   3.455   0.861  0.00  0.00    -0.050 A 
ATOM      9  C   LIG    1       -3.562   2.072   0.964  0.00  0.00    +0.100 A 
ATOM     10 CL   LIG    1       -4.946   4.402   1.123  0.00  0.00    -0.020 Cl
ATOM     11  C   LIG    1       -2.395   1.354   0.747  0.00  0.00    -0.020 A 
ATOM     12 CL   LIG    1       -2.394  -0.379   0.862  0.00  0.00    +0.000 Cl
ENDBRANCH   3   5
BRANCH   2  13
ATOM     13  C   LIG    1        2.403   1.216  -0.348  0.00  0.00    +0.300 C 
BRANCH  13  14
ATOM     14  C   LIG    1        2.519   0.617  -1.751  0.00  0.00    +0.180 C 
BRANCH  14  15
ATOM     15  N   LIG    1        3.793  -0.105  -1.871  0.00  0.00    -0.540 NA
ATOM     16  C   LIG    1        4.932   0.820  -1.796  0.00  0.00    +0.200 C 
ATOM     17  C   LIG    1        6.237   0.024  -1.865  0.00  0.00    +0.280 C 
ATOM     18  N   LIG    1        6.283  -0.735  -3.122  0.00  0.00    -0.510 N 
ATOM     19  C   LIG    1        5.153  -1.672  -3.171  0.00  0.00    +0.280 C 
ATOM     20  H   LIG    1        6.225  -0.097  -3.901  0.00  0.00    +0.430 HD
ATOM     21  H   LIG    1        7.149  -1.250  -3.172  0.00  0.00    +0.430 HD
ATOM     22  C   LIG    1        3.838  -0.890  -3.113  0.00  0.00    +0.210 C 
ENDBRANCH  14  15
ENDBRANCH  13  14
ENDBRANCH   2  13
TORSDOF 4
