REMARK  Name = ZINCvU0000000AA6.0
REMARK                            x       y       z     vdW  Elec       q    Type
REMARK                         _______ _______ _______ _____ _____    ______ ____
ROOT
ATOM      1  C   LIG    1       -3.874  -1.933   1.831  0.00  0.00    +0.570 C 
ATOM      2  N   LIG    1       -3.786  -0.589   1.850  0.00  0.00    -0.610 N 
ATOM      3  C   LIG    1       -4.991   0.238   2.000  0.00  0.00    +0.270 C 
ATOM      4  C   LIG    1       -5.041   1.251   0.852  0.00  0.00    +0.010 C 
ATOM      5  C   LIG    1       -3.733   2.046   0.822  0.00  0.00    +0.060 C 
ATOM      6  C   LIG    1       -2.561   1.094   0.575  0.00  0.00    -0.010 C 
ATOM      7  C   LIG    1       -2.483   0.079   1.720  0.00  0.00    +0.300 C 
ATOM      8  O   LIG    1       -2.863  -2.608   1.775  0.00  0.00    -0.530 OA
ENDROOT
BRANCH   1  12
ATOM      9  C   LIG    1       -7.722  -3.819   1.992  0.00  0.00    +0.180 A 
ATOM     10  C   LIG    1       -7.339  -2.888   2.934  0.00  0.00    -0.100 A 
ATOM     11  C   LIG    1       -6.095  -2.281   2.891  0.00  0.00    +0.100 A 
ATOM     12  C   LIG    1       -5.191  -2.585   1.879  0.00  0.00    -0.170 A 
ATOM     13  C   LIG    1       -5.571  -3.569   0.866  0.00  0.00    +0.020 A 
ATOM     14  C   LIG    1       -4.702  -3.920  -0.173  0.00  0.00    +0.020 A 
ATOM     15  C   LIG    1       -5.093  -4.842  -1.098  0.00  0.00    +0.040 A 
ATOM     16  C   LIG    1       -6.348  -5.440  -1.024  0.00  0.00    +0.000 A 
ATOM     17  C   LIG    1       -7.218  -5.121  -0.025  0.00  0.00    +0.060 A 
ATOM     18  C   LIG    1       -6.847  -4.176   0.943  0.00  0.00    -0.080 A 
BRANCH   9  20
ATOM     19  C   LIG    1       -9.782  -3.991   3.160  0.00  0.00    +0.250 C 
ATOM     20  O   LIG    1       -8.946  -4.396   2.075  0.00  0.00    -0.310 OA
ENDBRANCH   9  20
ENDBRANCH   1  12
BRANCH   6  21
ATOM     21  C   LIG    1       -1.277   1.881   0.514  0.00  0.00    +0.520 C 
ATOM     22  N   LIG    1       -0.107   1.246   0.307  0.00  0.00    -0.670 N 
ATOM     23  H   LIG    1       -0.096   0.291   0.140  0.00  0.00    +0.410 HD
ATOM     24  O   LIG    1       -1.298   3.086   0.650  0.00  0.00    -0.510 OA
BRANCH  22  25
ATOM     25  C   LIG    1        1.095   1.968   0.326  0.00  0.00    +0.140 A 
ATOM     26  C   LIG    1        1.135   3.263  -0.173  0.00  0.00    +0.040 A 
ATOM     27  C   LIG    1        2.317   3.976  -0.149  0.00  0.00    +0.010 A 
ATOM     28  C   LIG    1        3.469   3.393   0.365  0.00  0.00    -0.100 A 
ATOM     29  C   LIG    1        3.429   2.096   0.859  0.00  0.00    +0.050 A 
ATOM     30  C   LIG    1        2.246   1.385   0.840  0.00  0.00    +0.010 A 
BRANCH  28  31
ATOM     31  S   LIG    1        4.979   4.301   0.389  0.00  0.00    -0.120 S 
ATOM     32  C   LIG    1        4.511   5.892  -0.346  0.00  0.00    +0.120 C 
ENDBRANCH  28  31
ENDBRANCH  22  25
ENDBRANCH   6  21
TORSDOF 5
