REMARK  Name = ZINCrg000000rSPS.0
REMARK                            x       y       z     vdW  Elec       q    Type
REMARK                         _______ _______ _______ _____ _____    ______ ____
ROOT
ATOM      1  C   LIG    1       -2.056   1.873   1.260  0.00  0.00    -0.090 A 
ATOM      2  C   LIG    1       -2.071   0.625   1.854  0.00  0.00    +0.030 A 
ATOM      3  C   LIG    1       -2.820   0.411   2.996  0.00  0.00    +0.040 A 
ATOM      4  C   LIG    1       -3.562   1.444   3.538  0.00  0.00    -0.100 A 
ATOM      5  C   LIG    1       -3.552   2.691   2.942  0.00  0.00    +0.030 A 
ATOM      6  C   LIG    1       -2.799   2.905   1.803  0.00  0.00    +0.030 A 
ENDROOT
BRANCH   1   8
ATOM      7  C   LIG    1       -2.079   1.882  -1.237  0.00  0.00    +0.100 C 
ATOM      8  C   LIG    1       -1.235   2.107   0.018  0.00  0.00    +0.160 C 
ATOM      9  N   LIG    1       -0.664   3.465   0.026  0.00  0.00    -0.720 N 
ATOM     10  H   LIG    1       -1.157   4.301   0.034  0.00  0.00    +0.440 HD
ATOM     11  C   LIG    1        0.673   3.321   0.013  0.00  0.00    +0.710 C 
ATOM     12  N   LIG    1        1.048   2.037   0.003  0.00  0.00    -0.680 N 
ATOM     13  H   LIG    1        1.972   1.739  -0.007  0.00  0.00    +0.440 HD
ATOM     14  O   LIG    1        1.453   4.253   0.010  0.00  0.00    -0.540 OA
ATOM     15  C   LIG    1       -0.014   1.208   0.009  0.00  0.00    +0.540 C 
ATOM     16  O   LIG    1        0.002  -0.004   0.002  0.00  0.00    -0.460 OA
ENDBRANCH   1   8
BRANCH   4  17
ATOM     17  C   LIG    1       -4.383   1.210   4.780  0.00  0.00    +0.340 C 
BRANCH  17  18
ATOM     18  N   LIG    1       -5.728   0.768   4.401  0.00  0.00    -0.740 N 
ATOM     19  H   LIG    1       -5.960   0.671   3.464  0.00  0.00    +0.400 HD
ATOM     20  C   LIG    1       -6.642   0.497   5.354  0.00  0.00    +0.700 C 
ATOM     21  N   LIG    1       -7.879   0.092   5.005  0.00  0.00    -0.730 N 
ATOM     22  H   LIG    1       -8.111  -0.006   4.068  0.00  0.00    +0.400 HD
ATOM     23  O   LIG    1       -6.351   0.619   6.528  0.00  0.00    -0.590 OA
BRANCH  21  24
ATOM     24  CA  LIG    1       -8.872  -0.203   6.040  0.00  0.00    +0.280 C 
BRANCH  24  25
ATOM     25  C   LIG    1       -9.905  -1.189   5.490  0.00  0.00    +0.000 C 
ATOM     26  C   LIG    1      -10.929  -1.548   6.587  0.00  0.00    +0.020 C 
ATOM     27  C   LIG    1      -11.228  -3.050   6.348  0.00  0.00    +0.010 C 
ATOM     28  C   LIG    1       -9.843  -3.616   5.947  0.00  0.00    +0.000 C 
ATOM     29  C   LIG    1       -9.215  -2.502   5.083  0.00  0.00    +0.010 C 
ENDBRANCH  24  25
BRANCH  24  30
ATOM     30  C   LIG    1       -9.574   1.091   6.457  0.00  0.00    +0.170 C 
BRANCH  30  31
ATOM     31  O   LIG    1      -10.320   1.605   5.352  0.00  0.00    -0.570 OA
ATOM     32  H   LIG    1      -10.792   2.427   5.544  0.00  0.00    +0.380 HD
ENDBRANCH  30  31
ENDBRANCH  24  30
ENDBRANCH  21  24
ENDBRANCH  17  18
ENDBRANCH   4  17
TORSDOF 7
