REMARK  Name = ZINCrg000000tQYg.0
REMARK                            x       y       z     vdW  Elec       q    Type
REMARK                         _______ _______ _______ _____ _____    ______ ____
ROOT
ATOM      1  C   LIG    1        1.209   2.172   0.019  0.00  0.00    -0.160 A 
ATOM      2  C   LIG    1        2.464   1.567  -0.059  0.00  0.00    +0.100 A 
ATOM      3  C   LIG    1        3.603   2.346  -0.055  0.00  0.00    +0.000 A 
ATOM      4  C   LIG    1        3.503   3.723   0.038  0.00  0.00    +0.160 A 
ATOM      5  C   LIG    1        2.261   4.328   0.120  0.00  0.00    -0.680 A 
ATOM      6  C   LIG    1        1.115   3.561   0.111  0.00  0.00    +0.190 A 
ENDROOT
BRANCH   1  13
ATOM      7  O   LIG    1        1.286  -0.914  -3.775  0.00  0.00    -0.540 OA
ATOM      8  C   LIG    1        0.525  -0.751  -2.845  0.00  0.00    +0.510 C 
ATOM      9  C   LIG    1        1.075  -0.207  -1.555  0.00  0.00    +0.330 C 
ATOM     10  N   LIG    1       -0.046   0.192  -0.690  0.00  0.00    -0.620 N 
ATOM     11  C   LIG    1       -1.199  -0.721  -0.615  0.00  0.00    +0.310 C 
ATOM     12  C   LIG    1       -1.803  -0.835  -2.021  0.00  0.00    +0.270 C 
ATOM     13  C   LIG    1       -0.016   1.344   0.009  0.00  0.00    +0.570 C 
ATOM     14  O   LIG    1       -0.998   1.704   0.629  0.00  0.00    -0.520 OA
ATOM     15  N   LIG    1       -0.761  -1.061  -3.014  0.00  0.00    -0.720 N 
ATOM     16  H   LIG    1       -1.021  -1.466  -3.856  0.00  0.00    +0.400 HD
ENDBRANCH   1  13
BRANCH   5  17
ATOM     17  S   LIG    1        2.145   6.082   0.237  0.00  0.00    +2.690 S 
ATOM     18  O   LIG    1        0.853   6.431  -0.240  0.00  0.00    -0.940 OA
ATOM     19  O   LIG    1        3.345   6.602  -0.318  0.00  0.00    -0.950 OA
BRANCH  17  20
ATOM     20  N   LIG    1        2.168   6.469   1.847  0.00  0.00    -1.000 NA
ATOM     21  C   LIG    1        0.919   6.565   2.619  0.00  0.00    +0.320 C 
ATOM     22  C   LIG    1        0.925   5.458   3.685  0.00  0.00    +0.110 C 
ATOM     23  C   LIG    1        2.278   5.433   4.364  0.00  0.00    -0.170 A 
ATOM     24  C   LIG    1        3.402   5.986   3.872  0.00  0.00    -0.130 A 
ATOM     25  C   LIG    1        4.516   5.814   4.686  0.00  0.00    +0.020 A 
ATOM     26  C   LIG    1        4.306   5.144   5.815  0.00  0.00    -0.040 A 
ATOM     27  S   LIG    1        2.617   4.671   5.913  0.00  0.00    +0.100 S 
ATOM     28  C   LIG    1        3.437   6.731   2.542  0.00  0.00    +0.380 C 
ENDBRANCH  17  20
ENDBRANCH   5  17
TORSDOF 3
