REMARK  Name = ZINCnE000001DaZk.0
REMARK                            x       y       z     vdW  Elec       q    Type
REMARK                         _______ _______ _______ _____ _____    ______ ____
ROOT
ATOM      1  N   LIG    1       -2.393   1.210   3.735  0.00  0.00    -0.730 N 
ATOM      2  H   LIG    1       -1.596   0.662   3.814  0.00  0.00    +0.400 HD
ATOM      3  C   LIG    1       -2.870   1.536   2.518  0.00  0.00    +0.520 C 
ATOM      4  O   LIG    1       -3.866   2.220   2.420  0.00  0.00    -0.530 OA
ENDROOT
BRANCH   3   5
ATOM      5  C   LIG    1       -2.164   1.050   1.278  0.00  0.00    -0.020 C 
ATOM      6  C   LIG    1       -0.729   1.579   1.267  0.00  0.00    +0.020 C 
ATOM      7  C   LIG    1       -0.013   1.086   0.008  0.00  0.00    +0.000 C 
ATOM      8  C   LIG    1       -0.753   1.593  -1.232  0.00  0.00    +0.010 C 
ATOM      9  C   LIG    1       -2.188   1.063  -1.221  0.00  0.00    -0.090 C 
ATOM     10  C   LIG    1       -2.904   1.556   0.038  0.00  0.00    +0.070 C 
BRANCH   9  11
ATOM     11  C   LIG    1       -2.917   1.562  -2.442  0.00  0.00    +0.500 C 
ATOM     12  O   LIG    1       -3.917   2.249  -2.316  0.00  0.00    -0.690 OA
ATOM     13  O   LIG    1       -2.507   1.279  -3.554  0.00  0.00    -0.710 OA
ENDBRANCH   9  11
ENDBRANCH   3   5
BRANCH   1  15
ATOM     14  C   LIG    1       -3.100   3.212   4.949  0.00  0.00    +0.020 C 
ATOM     15  C   LIG    1       -3.079   1.682   4.941  0.00  0.00    +0.170 C 
ATOM     16  C   LIG    1       -4.514   1.153   4.952  0.00  0.00    +0.020 C 
BRANCH  15  17
ATOM     17  C   LIG    1       -2.339   1.175   6.180  0.00  0.00    +0.030 C 
BRANCH  17  18
ATOM     18  C   LIG    1       -3.055   1.669   7.439  0.00  0.00    +0.080 C 
BRANCH  18  19
ATOM     19  C   LIG    1       -2.326   1.170   8.660  0.00  0.00    -0.080 A 
ATOM     20  C   LIG    1       -2.673  -0.043   9.224  0.00  0.00    +0.000 A 
ATOM     21  C   LIG    1       -2.002  -0.504  10.341  0.00  0.00    +0.000 A 
ATOM     22  C   LIG    1       -0.990   0.254  10.900  0.00  0.00    -0.010 A 
ATOM     23  C   LIG    1       -0.646   1.470  10.339  0.00  0.00    +0.000 A 
ATOM     24  C   LIG    1       -1.314   1.927   9.219  0.00  0.00    +0.000 A 
ENDBRANCH  18  19
ENDBRANCH  17  18
ENDBRANCH  15  17
ENDBRANCH   1  15
TORSDOF 6
