REMARK  Name = ZINCwl00000007LN.1
REMARK                            x       y       z     vdW  Elec       q    Type
REMARK                         _______ _______ _______ _____ _____    ______ ____
ROOT
ATOM      1  C   LIG    1        5.851   4.450   0.807  0.00  0.00    +0.620 C 
ATOM      2  N   LIG    1        6.671   5.465   0.472  0.00  0.00    -0.710 N 
ATOM      3  H   LIG    1        6.341   6.195  -0.076  0.00  0.00    +0.410 HD
ATOM      4  O   LIG    1        6.265   3.535   1.494  0.00  0.00    -0.500 OA
ENDROOT
BRANCH   2   5
ATOM      5  C   LIG    1        8.062   5.467   0.934  0.00  0.00    +0.260 C 
ATOM      6  C   LIG    1        8.929   6.382   0.037  0.00  0.00    +0.100 C 
ATOM      7  C   LIG    1        8.888   7.712   0.814  0.00  0.00    +0.220 C 
ATOM      8  C   LIG    1       10.215   8.443   0.697  0.00  0.00    +0.260 C 
ATOM      9  N   LIG    1       10.414   9.409   1.768  0.00  0.00    -0.370 N 
ATOM     10  C   LIG    1       10.337   8.812   3.099  0.00  0.00    +0.260 C 
ATOM     11  C   LIG    1        8.928   8.251   3.339  0.00  0.00    +0.340 C 
ATOM     12  H   LIG    1       11.322   9.836   1.656  0.00  0.00    +0.430 HD
ATOM     13  N   LIG    1        8.638   7.342   2.215  0.00  0.00    -0.640 N 
ATOM     14  C   LIG    1        8.161   6.092   2.309  0.00  0.00    +0.510 C 
ATOM     15  O   LIG    1        7.854   5.542   3.346  0.00  0.00    -0.470 OA
BRANCH   9  16
ATOM     16  C   LIG    1        9.386  10.453   1.661  0.00  0.00    +0.150 C 
ATOM     17  C   LIG    1        9.507  11.150   0.304  0.00  0.00    +0.090 C 
ATOM     18  C   LIG    1        9.581  11.478   2.780  0.00  0.00    +0.090 C 
ENDBRANCH   9  16
ENDBRANCH   2   5
BRANCH   1  21
ATOM     19  C   LIG    1        3.730   2.241   1.439  0.00  0.00    +0.200 C 
ATOM     20  C   LIG    1        3.521   3.485   0.615  0.00  0.00    +0.140 A 
ATOM     21  C   LIG    1        4.452   4.447   0.342  0.00  0.00    -0.120 A 
ATOM     22  N   LIG    1        3.875   5.394  -0.418  0.00  0.00    -0.200 NA
ATOM     23  N   LIG    1        2.646   5.081  -0.640  0.00  0.00    -0.050 NA
ATOM     24  N   LIG    1        2.378   3.862   0.001  0.00  0.00    -0.310 N 
BRANCH  24  25
ATOM     25  C   LIG    1        1.158   3.172   0.009  0.00  0.00    +0.120 A 
ATOM     26  C   LIG    1       -0.015   3.874   0.023  0.00  0.00    +0.090 A 
ATOM     27  C   LIG    1       -1.236   3.182   0.031  0.00  0.00    -0.100 A 
ATOM     28  C   LIG    1       -2.466   3.867   0.045  0.00  0.00    +0.100 A 
ATOM     29  C   LIG    1       -3.615   3.128   0.051  0.00  0.00    -0.020 A 
ATOM     30  C   LIG    1       -3.547   1.737   0.043  0.00  0.00    +0.320 A 
ATOM     31  N   LIG    1       -2.400   1.102   0.030  0.00  0.00    -0.470 NA
ATOM     32  C   LIG    1       -1.239   1.764   0.018  0.00  0.00    +0.130 A 
ATOM     33  C   LIG    1       -0.013   1.076   0.008  0.00  0.00    +0.090 A 
ATOM     34  C   LIG    1        1.154   1.773   0.001  0.00  0.00    +0.030 A 
ENDBRANCH  24  25
ENDBRANCH   1  21
TORSDOF 4
