REMARK  Name = ZINCwl00000007LN.0
REMARK                            x       y       z     vdW  Elec       q    Type
REMARK                         _______ _______ _______ _____ _____    ______ ____
ROOT
ATOM      1  C   LIG    1        5.851   4.450   0.806  0.00  0.00    +0.620 C 
ATOM      2  N   LIG    1        6.671   5.466   0.470  0.00  0.00    -0.710 N 
ATOM      3  H   LIG    1        6.341   6.195  -0.077  0.00  0.00    +0.420 HD
ATOM      4  O   LIG    1        6.265   3.536   1.493  0.00  0.00    -0.520 OA
ENDROOT
BRANCH   2   5
ATOM      5  C   LIG    1        8.061   5.469   0.933  0.00  0.00    +0.260 C 
ATOM      6  C   LIG    1        8.938   6.346   0.011  0.00  0.00    +0.100 C 
ATOM      7  C   LIG    1        9.849   7.085   1.001  0.00  0.00    +0.230 C 
ATOM      8  C   LIG    1       11.280   6.542   0.964  0.00  0.00    +0.270 C 
ATOM      9  N   LIG    1       12.035   7.138   2.075  0.00  0.00    -0.380 N 
ATOM     10  C   LIG    1       11.503   6.714   3.374  0.00  0.00    +0.250 C 
ATOM     11  C   LIG    1       10.066   7.235   3.551  0.00  0.00    +0.340 C 
ATOM     12  H   LIG    1       11.981   8.144   2.009  0.00  0.00    +0.420 HD
ATOM     13  N   LIG    1        9.322   6.806   2.354  0.00  0.00    -0.650 N 
ATOM     14  C   LIG    1        8.169   6.136   2.290  0.00  0.00    +0.520 C 
ATOM     15  O   LIG    1        7.341   6.072   3.173  0.00  0.00    -0.470 OA
BRANCH   9  16
ATOM     16  C   LIG    1       13.442   6.727   1.975  0.00  0.00    +0.160 C 
ATOM     17  C   LIG    1       14.246   7.382   3.101  0.00  0.00    +0.080 C 
ATOM     18  C   LIG    1       14.007   7.167   0.623  0.00  0.00    +0.080 C 
ENDBRANCH   9  16
ENDBRANCH   2   5
BRANCH   1  21
ATOM     19  C   LIG    1        3.730   2.241   1.438  0.00  0.00    +0.190 C 
ATOM     20  C   LIG    1        3.521   3.486   0.614  0.00  0.00    +0.140 A 
ATOM     21  C   LIG    1        4.452   4.448   0.341  0.00  0.00    -0.110 A 
ATOM     22  N   LIG    1        3.875   5.394  -0.420  0.00  0.00    -0.200 NA
ATOM     23  N   LIG    1        2.646   5.080  -0.641  0.00  0.00    -0.050 NA
ATOM     24  N   LIG    1        2.378   3.862   0.000  0.00  0.00    -0.310 N 
BRANCH  24  25
ATOM     25  C   LIG    1        1.158   3.172   0.008  0.00  0.00    +0.120 A 
ATOM     26  C   LIG    1       -0.015   3.874   0.023  0.00  0.00    +0.090 A 
ATOM     27  C   LIG    1       -1.236   3.182   0.030  0.00  0.00    -0.100 A 
ATOM     28  C   LIG    1       -2.466   3.867   0.045  0.00  0.00    +0.100 A 
ATOM     29  C   LIG    1       -3.615   3.128   0.051  0.00  0.00    -0.020 A 
ATOM     30  C   LIG    1       -3.547   1.737   0.043  0.00  0.00    +0.320 A 
ATOM     31  N   LIG    1       -2.400   1.102   0.029  0.00  0.00    -0.470 NA
ATOM     32  C   LIG    1       -1.239   1.764   0.018  0.00  0.00    +0.130 A 
ATOM     33  C   LIG    1       -0.013   1.076   0.008  0.00  0.00    +0.090 A 
ATOM     34  C   LIG    1        1.154   1.773   0.001  0.00  0.00    +0.030 A 
ENDBRANCH  24  25
ENDBRANCH   1  21
TORSDOF 4
