REMARK  Name = ZINCkj00000a7SsW.0
REMARK                            x       y       z     vdW  Elec       q    Type
REMARK                         _______ _______ _______ _____ _____    ______ ____
ROOT
ATOM      1  O   LIG    1        0.756   3.041   2.334  0.00  0.00    -0.510 OA
ATOM      2  C   LIG    1        1.654   2.224   2.405  0.00  0.00    +0.600 C 
ATOM      3  N   LIG    1        2.080   1.594   1.292  0.00  0.00    -0.720 N 
ATOM      4  H   LIG    1        2.796   0.942   1.348  0.00  0.00    +0.410 HD
ENDROOT
BRANCH   3   5
ATOM      5  C   LIG    1        1.462   1.893  -0.002  0.00  0.00    +0.160 C 
ATOM      6  C   LIG    1       -0.019   1.558   0.011  0.00  0.00    +0.080 C 
ATOM      7  C   LIG    1        0.002  -0.004   0.002  0.00  0.00    +0.050 C 
ATOM      8  C   LIG    1        1.358  -0.408  -0.652  0.00  0.00    +0.070 C 
ATOM      9  C   LIG    1        1.992   3.188  -0.583  0.00  0.00    +0.090 C 
ATOM     10  C   LIG    1        3.295   2.742  -1.312  0.00  0.00    +0.290 C 
ATOM     11  N   LIG    1        3.335   1.243  -1.231  0.00  0.00    -0.500 N 
ATOM     12  H   LIG    1        3.735   0.851  -2.070  0.00  0.00    +0.440 HD
ATOM     13  H   LIG    1        3.847   0.943  -0.415  0.00  0.00    +0.420 HD
ATOM     14  C   LIG    1        1.945   0.891  -1.117  0.00  0.00    +0.130 C 
ENDBRANCH   3   5
BRANCH   2  15
ATOM     15  C   LIG    1        2.275   1.923   3.705  0.00  0.00    -0.030 A 
ATOM     16  C   LIG    1        1.838   2.570   4.849  0.00  0.00    +0.150 A 
ATOM     17  C   LIG    1        2.458   2.255   6.071  0.00  0.00    +0.000 A 
ATOM     18  C   LIG    1        2.278   2.696   7.369  0.00  0.00    +0.020 A 
ATOM     19  C   LIG    1        3.199   2.010   8.165  0.00  0.00    +0.020 A 
ATOM     20  C   LIG    1        3.912   1.180   7.363  0.00  0.00    +0.170 A 
ATOM     21  N   LIG    1        3.474   1.315   6.083  0.00  0.00    -0.390 N 
ATOM     22  C   LIG    1        3.852   0.718   4.911  0.00  0.00    +0.530 A 
ATOM     23  N   LIG    1        3.273   1.008   3.786  0.00  0.00    -0.490 NA
ENDBRANCH   2  15
TORSDOF 2
