REMARK  Name = ZINCvU00000008AI.0
REMARK                            x       y       z     vdW  Elec       q    Type
REMARK                         _______ _______ _______ _____ _____    ______ ____
ROOT
ATOM      1  O   LIG    1       -0.194   0.182  -0.517  0.00  0.00    -0.990 OA
ATOM      2  P   LIG    1       -0.075   1.642  -0.305  0.00  0.00    +2.540 P 
ATOM      3  C   LIG    1       -1.070   2.154   1.141  0.00  0.00    -0.700 C 
ATOM      4  C   LIG    1       -1.869   3.215   0.953  0.00  0.00    +0.230 C 
ATOM      5  O   LIG    1       -1.958   3.903  -0.187  0.00  0.00    -0.270 OA
ATOM      6  C   LIG    1       -1.626   3.541  -1.428  0.00  0.00    +0.240 C 
ATOM      7  C   LIG    1       -0.781   2.548  -1.727  0.00  0.00    -0.700 C 
ENDROOT
BRANCH   6   8
ATOM      8  C   LIG    1       -2.234   4.289  -2.551  0.00  0.00    -0.080 A 
ATOM      9  C   LIG    1       -1.917   3.956  -3.868  0.00  0.00    +0.050 A 
ATOM     10  C   LIG    1       -2.492   4.654  -4.910  0.00  0.00    +0.020 A 
ATOM     11  C   LIG    1       -3.372   5.689  -4.652  0.00  0.00    +0.040 A 
ATOM     12  C   LIG    1       -3.686   6.028  -3.347  0.00  0.00    +0.010 A 
ATOM     13  C   LIG    1       -3.122   5.334  -2.296  0.00  0.00    +0.050 A 
ENDBRANCH   6   8
BRANCH   4  14
ATOM     14  C   LIG    1       -2.708   3.654   2.091  0.00  0.00    -0.080 A 
ATOM     15  C   LIG    1       -2.658   2.966   3.303  0.00  0.00    +0.050 A 
ATOM     16  C   LIG    1       -3.439   3.384   4.362  0.00  0.00    +0.020 A 
ATOM     17  C   LIG    1       -4.277   4.475   4.219  0.00  0.00    +0.040 A 
ATOM     18  C   LIG    1       -4.335   5.157   3.017  0.00  0.00    +0.010 A 
ATOM     19  C   LIG    1       -3.555   4.753   1.953  0.00  0.00    +0.050 A 
ENDBRANCH   4  14
BRANCH   2  20
ATOM     20  N   LIG    1        1.538   2.069  -0.084  0.00  0.00    -0.870 NA
ATOM     21  H   LIG    1        2.079   1.879  -0.913  0.00  0.00    +0.390 HD
BRANCH  20  22
ATOM     22  N   LIG    1        2.068   1.433   1.003  0.00  0.00    -0.500 N 
ATOM     23  H   LIG    1        1.632   1.503   1.867  0.00  0.00    +0.460 HD
BRANCH  22  24
ATOM     24  C   LIG    1        3.197   0.708   0.875  0.00  0.00    +0.550 C 
ATOM     25  S   LIG    1        3.787  -0.199   2.202  0.00  0.00    -0.560 S 
BRANCH  24  26
ATOM     26  N   LIG    1        3.862   0.698  -0.297  0.00  0.00    -0.630 N 
ATOM     27  H   LIG    1        3.575   1.275  -1.022  0.00  0.00    +0.400 HD
BRANCH  26  28
ATOM     28  C   LIG    1        4.965  -0.147  -0.469  0.00  0.00    +0.110 A 
ATOM     29  C   LIG    1        6.092   0.309  -1.139  0.00  0.00    +0.050 A 
ATOM     30  C   LIG    1        7.182  -0.523  -1.303  0.00  0.00    -0.010 A 
ATOM     31  C   LIG    1        7.147  -1.816  -0.808  0.00  0.00    +0.110 A 
ATOM     32  C   LIG    1        6.022  -2.275  -0.143  0.00  0.00    +0.000 A 
ATOM     33  F   LIG    1        8.211  -2.631  -0.974  0.00  0.00    -0.140 F 
ATOM     34  C   LIG    1        4.932  -1.443   0.027  0.00  0.00    +0.120 A 
ENDBRANCH  26  28
ENDBRANCH  24  26
ENDBRANCH  22  24
ENDBRANCH  20  22
ENDBRANCH   2  20
TORSDOF 7
