REMARK  Name = ZINCpk00000xIihN.0
REMARK                            x       y       z     vdW  Elec       q    Type
REMARK                         _______ _______ _______ _____ _____    ______ ____
ROOT
ATOM      1  C   LIG    1        6.602   1.090   3.035  0.00  0.00    -0.150 A 
ATOM      2  C   LIG    1        5.508   0.771   3.852  0.00  0.00    +0.260 A 
ATOM      3  C   LIG    1        4.269   0.639   3.286  0.00  0.00    -0.720 A 
ATOM      4  C   LIG    1        4.076   0.830   1.923  0.00  0.00    +0.260 A 
ATOM      5  N   LIG    1        2.780   0.762   1.374  0.00  0.00    -0.570 N 
ATOM      6  C   LIG    1        2.573   1.694   0.282  0.00  0.00    +0.290 C 
ATOM      7  C   LIG    1        1.253   2.263   0.002  0.00  0.00    +0.020 C 
ATOM      8  C   LIG    1       -0.018   1.497   0.010  0.00  0.00    +0.020 C 
ATOM      9  C   LIG    1        0.002  -0.004   0.002  0.00  0.00    +0.060 C 
ATOM     10  C   LIG    1        0.803  -0.667   1.033  0.00  0.00    +0.120 C 
ATOM     11  C   LIG    1        1.838  -0.062   1.875  0.00  0.00    +0.560 C 
ATOM     12  N   LIG    1        1.745  -0.338   3.152  0.00  0.00    -0.940 NA
ATOM     13  C   LIG    1        5.159   1.133   1.106  0.00  0.00    +0.000 A 
ATOM     14  S   LIG    1        2.851   0.218   4.249  0.00  0.00    +2.630 S 
ATOM     15  O   LIG    1        3.219  -0.890   5.059  0.00  0.00    -0.930 OA
ATOM     16  O   LIG    1        2.334   1.435   4.771  0.00  0.00    -0.940 OA
ATOM     17  C   LIG    1        6.415   1.264   1.659  0.00  0.00    +0.090 A 
ATOM     18 CL   LIG    1        7.771   1.645   0.644  0.00  0.00    +0.000 Cl
ENDROOT
BRANCH   1  19
ATOM     19  C   LIG    1        7.945   1.241   3.624  0.00  0.00    +0.510 C 
ATOM     20  O   LIG    1        8.892   1.518   2.914  0.00  0.00    -0.480 OA
BRANCH  19  21
ATOM     21  O   LIG    1        8.122   1.073   4.949  0.00  0.00    -0.330 OA
BRANCH  21  22
ATOM     22  C   LIG    1        9.472   1.237   5.459  0.00  0.00    +0.270 C 
BRANCH  22  26
ATOM     23  N   LIG    1       10.627   1.114   7.643  0.00  0.00    -0.850 N 
ATOM     24  H   LIG    1       10.630   0.970   8.602  0.00  0.00    +0.410 HD
ATOM     25  H   LIG    1       11.453   1.331   7.183  0.00  0.00    +0.400 HD
ATOM     26  C   LIG    1        9.476   1.013   6.950  0.00  0.00    +0.520 C 
ATOM     27  O   LIG    1        8.443   0.742   7.525  0.00  0.00    -0.510 OA
ENDBRANCH  22  26
ENDBRANCH  21  22
ENDBRANCH  19  21
ENDBRANCH   1  19
TORSDOF 4
