REMARK  Name = ZINCpk000004AOvA.0
REMARK                            x       y       z     vdW  Elec       q    Type
REMARK                         _______ _______ _______ _____ _____    ______ ____
ROOT
ATOM      1  C   LIG    1        2.158  -4.002  -1.546  0.00  0.00    +0.550 C 
ATOM      2  N   LIG    1        1.065  -4.787  -1.617  0.00  0.00    -0.650 N 
ATOM      3  C   LIG    1       -0.390  -4.577  -1.647  0.00  0.00    +0.280 C 
ATOM      4  C   LIG    1       -0.508  -5.902  -2.419  0.00  0.00    +0.140 C 
ATOM      5  C   LIG    1        0.803  -6.232  -1.694  0.00  0.00    +0.320 C 
ATOM      6  O   LIG    1        3.264  -4.500  -1.534  0.00  0.00    -0.520 OA
ENDROOT
BRANCH   1  12
ATOM      7  C   LIG    1        0.002  -0.004   0.002  0.00  0.00    +0.550 C 
ATOM      8  N   LIG    1        1.173  -0.661  -0.114  0.00  0.00    -0.610 N 
ATOM      9  C   LIG    1        2.446   0.072  -0.124  0.00  0.00    +0.260 C 
ATOM     10  C   LIG    1        3.237  -0.331  -1.372  0.00  0.00    +0.020 C 
ATOM     11  C   LIG    1        3.389  -1.853  -1.406  0.00  0.00    +0.060 C 
ATOM     12  C   LIG    1        2.006  -2.504  -1.480  0.00  0.00    -0.020 C 
ATOM     13  C   LIG    1        1.201  -2.126  -0.228  0.00  0.00    +0.290 C 
ATOM     14  O   LIG    1       -1.038  -0.627   0.101  0.00  0.00    -0.540 OA
BRANCH   7  16
ATOM     15  C   LIG    1       -1.179   2.116   0.018  0.00  0.00    +0.140 C 
ATOM     16  C   LIG    1       -0.018   1.467   0.009  0.00  0.00    -0.090 C 
ENDBRANCH   7  16
ENDBRANCH   1  12
BRANCH   4  17
ATOM     17  C   LIG    1       -0.370  -5.765  -3.914  0.00  0.00    -0.080 A 
ATOM     18  C   LIG    1       -1.433  -6.084  -4.737  0.00  0.00    +0.050 A 
ATOM     19  C   LIG    1       -1.309  -5.960  -6.109  0.00  0.00    +0.030 A 
ATOM     20  C   LIG    1       -0.120  -5.515  -6.658  0.00  0.00    +0.070 A 
ATOM     21  C   LIG    1        0.947  -5.195  -5.832  0.00  0.00    +0.070 A 
ATOM     22  F   LIG    1        2.110  -4.761  -6.366  0.00  0.00    -0.120 F 
ATOM     23  F   LIG    1        0.002  -5.392  -7.998  0.00  0.00    -0.120 F 
ATOM     24  C   LIG    1        0.818  -5.316  -4.459  0.00  0.00    +0.040 A 
ENDBRANCH   4  17
BRANCH   4  25
ATOM     25  O   LIG    1       -1.616  -6.713  -2.026  0.00  0.00    -0.530 OA
ATOM     26  H   LIG    1       -2.441  -6.502  -2.485  0.00  0.00    +0.390 HD
ENDBRANCH   4  25
TORSDOF 4
