REMARK  Name = ZINCqH0000008vKr.0
REMARK                            x       y       z     vdW  Elec       q    Type
REMARK                         _______ _______ _______ _____ _____    ______ ____
ROOT
ATOM      1  N   LIG    1        1.778  -1.688  -0.024  0.00  0.00    -0.680 NA
ATOM      2  C   LIG    1        1.347  -0.427  -0.013  0.00  0.00    +0.490 A 
ATOM      3  C   LIG    1        0.002  -0.004   0.002  0.00  0.00    -0.110 A 
ATOM      4  C   LIG    1       -0.016   1.347   0.009  0.00  0.00    +0.350 A 
ATOM      5  N   LIG    1        1.267   1.806  -0.000  0.00  0.00    -0.390 N 
ATOM      6  N   LIG    1        2.129   0.701  -0.015  0.00  0.00    -0.470 N 
ATOM      7  H   LIG    1        3.099   0.728  -0.024  0.00  0.00    +0.450 HD
ENDROOT
BRANCH   1   8
ATOM      8  C   LIG    1        0.905  -2.690  -0.021  0.00  0.00    +0.520 C 
ATOM      9  O   LIG    1       -0.288  -2.456  -0.008  0.00  0.00    -0.550 OA
BRANCH   8  11
ATOM     10  C   LIG    1        1.690  -4.565   1.399  0.00  0.00    +0.060 C 
ATOM     11  C   LIG    1        1.393  -4.115  -0.033  0.00  0.00    +0.040 C 
BRANCH  11  12
ATOM     12  S   LIG    1        0.115  -5.186  -0.749  0.00  0.00    -0.190 S 
BRANCH  12  13
ATOM     13  C   LIG    1        0.931  -6.804  -0.819  0.00  0.00    +0.120 C 
BRANCH  13  14
ATOM     14  C   LIG    1       -0.017  -7.820  -1.402  0.00  0.00    -0.070 A 
ATOM     15  C   LIG    1       -0.853  -8.542  -0.571  0.00  0.00    +0.020 A 
ATOM     16  C   LIG    1       -1.726  -9.470  -1.105  0.00  0.00    +0.000 A 
ATOM     17  C   LIG    1       -1.756  -9.685  -2.471  0.00  0.00    +0.000 A 
ATOM     18  C   LIG    1       -0.916  -8.967  -3.302  0.00  0.00    +0.000 A 
ATOM     19  C   LIG    1       -0.047  -8.034  -2.767  0.00  0.00    +0.020 A 
ENDBRANCH  13  14
ENDBRANCH  12  13
ENDBRANCH  11  12
ENDBRANCH   8  11
ENDBRANCH   1   8
BRANCH   5  20
ATOM     20  C   LIG    1        1.676   3.213   0.003  0.00  0.00    +0.350 C 
BRANCH  20  21
ATOM     21  C   LIG    1        1.683   3.746  -1.431  0.00  0.00    +0.080 C 
BRANCH  21  22
ATOM     22  C   LIG    1        2.103   5.193  -1.427  0.00  0.00    -0.050 A 
ATOM     23  C   LIG    1        1.162   6.205  -1.314  0.00  0.00    -0.030 A 
ATOM     24  C   LIG    1        1.585   7.521  -1.310  0.00  0.00    +0.260 A 
ATOM     25  N   LIG    1        2.865   7.818  -1.422  0.00  0.00    -0.480 NA
ATOM     26  C   LIG    1        3.787   6.882  -1.536  0.00  0.00    +0.260 A 
ATOM     27  C   LIG    1        3.439   5.544  -1.542  0.00  0.00    -0.030 A 
ENDBRANCH  21  22
ENDBRANCH  20  21
ENDBRANCH   5  20
TORSDOF 8
