REMARK  Name = ZINCtV00000bM9Hc.0
REMARK                            x       y       z     vdW  Elec       q    Type
REMARK                         _______ _______ _______ _____ _____    ______ ____
ROOT
ATOM      1  C   LIG    1       -0.956   3.708   0.029  0.00  0.00    +0.060 A 
ATOM      2  C   LIG    1       -1.186   2.250   0.020  0.00  0.00    -0.120 A 
ATOM      3  C   LIG    1       -0.019   1.521   0.010  0.00  0.00    -0.040 A 
ATOM      4  C   LIG    1        1.132   2.282   0.004  0.00  0.00    -0.260 A 
ATOM      5  C   LIG    1        2.534   1.698  -0.012  0.00  0.00    +0.120 C 
ATOM      6  C   LIG    1        2.456   0.226   0.398  0.00  0.00    +0.020 C 
ATOM      7  C   LIG    1        1.387  -0.473  -0.446  0.00  0.00    +0.030 C 
ATOM      8  C   LIG    1        0.002  -0.004   0.002  0.00  0.00    +0.100 C 
ATOM      9  S   LIG    1        0.774   4.002   0.014  0.00  0.00    +0.320 S 
ENDROOT
BRANCH   2  10
ATOM     10  C   LIG    1       -2.471   1.664   0.023  0.00  0.00    +0.190 A 
ATOM     11  N   LIG    1       -3.590   2.336   0.032  0.00  0.00    -0.510 NA
ATOM     12  C   LIG    1       -4.725   1.667   0.034  0.00  0.00    +0.100 A 
ATOM     13  C   LIG    1       -6.068   2.137   0.042  0.00  0.00    +0.050 A 
ATOM     14  C   LIG    1       -7.098   1.255   0.043  0.00  0.00    +0.030 A 
ATOM     15  C   LIG    1       -6.882  -0.121   0.036  0.00  0.00    +0.020 A 
ATOM     16  C   LIG    1       -5.605  -0.637   0.027  0.00  0.00    +0.070 A 
ATOM     17  C   LIG    1       -4.511   0.222   0.026  0.00  0.00    -0.220 A 
ATOM     18  S   LIG    1       -2.775  -0.068   0.009  0.00  0.00    +0.120 S 
ENDBRANCH   2  10
BRANCH   1  21
ATOM     19  O   LIG    1       -0.393   6.273   0.036  0.00  0.00    -0.470 OA
ATOM     20  C   LIG    1       -1.567   5.951   0.046  0.00  0.00    +0.570 C 
ATOM     21  N   LIG    1       -1.907   4.647   0.043  0.00  0.00    -0.590 N 
ATOM     22  H   LIG    1       -2.843   4.390   0.051  0.00  0.00    +0.430 HD
BRANCH  20  23
ATOM     23  C   LIG    1       -2.608   6.979   0.061  0.00  0.00    -0.230 A 
ATOM     24  C   LIG    1       -2.389   8.332   0.070  0.00  0.00    +0.140 A 
ATOM     25  C   LIG    1       -3.547   9.068   0.080  0.00  0.00    +0.130 A 
ATOM     26  C   LIG    1       -4.678   8.349   0.088  0.00  0.00    -0.150 A 
ATOM     27  S   LIG    1       -4.340   6.677   0.077  0.00  0.00    +0.370 S 
BRANCH  26  28
ATOM     28  N   LIG    1       -6.041   8.929   0.103  0.00  0.00    +0.000 N 
ATOM     29  O   LIG    1       -7.093   8.138   0.110  0.00  0.00    -0.160 OA
ATOM     30  O   LIG    1       -6.200  10.237   0.110  0.00  0.00    -0.130 OA
ENDBRANCH  26  28
ENDBRANCH  20  23
ENDBRANCH   1  21
TORSDOF 4
