REMARK  Name = ZINCah0000006l7r.0
REMARK                            x       y       z     vdW  Elec       q    Type
REMARK                         _______ _______ _______ _____ _____    ______ ____
ROOT
ATOM      1  C   LIG    1       -0.013   1.086   0.008  0.00  0.00    +0.070 C 
ATOM      2  C   LIG    1       -0.729   1.579   1.267  0.00  0.00    -0.110 C 
ATOM      3  C   LIG    1       -0.095   1.176   2.636  0.00  0.00    +0.020 C 
ATOM      4  C   LIG    1       -0.759   2.138   3.649  0.00  0.00    +0.040 C 
ATOM      5  C   LIG    1       -1.689   3.037   2.778  0.00  0.00    +0.020 C 
ATOM      6  O   LIG    1       -2.772   2.158   2.366  0.00  0.00    -0.370 OA
ATOM      7  C   LIG    1       -2.230   1.179   1.424  0.00  0.00    +0.220 C 
ATOM      8  C   LIG    1       -0.849   3.135   1.457  0.00  0.00    +0.040 C 
ENDROOT
BRANCH   5   9
ATOM      9  C   LIG    1       -2.097   4.348   3.399  0.00  0.00    +0.510 C 
ATOM     10  O   LIG    1       -1.796   5.388   2.865  0.00  0.00    -0.430 OA
ENDBRANCH   5   9
TORSDOF 1
