REMARK  Name = ZINCpe00000ztCqA.0
REMARK                            x       y       z     vdW  Elec       q    Type
REMARK                         _______ _______ _______ _____ _____    ______ ____
ROOT
ATOM      1  N   LIG    1        2.085   0.759  -0.014  0.00  0.00    -0.470 N 
ATOM      2  C   LIG    1        1.205   1.800   0.000  0.00  0.00    +0.490 A 
ATOM      3  N   LIG    1       -0.016   1.351   0.009  0.00  0.00    -0.460 NA
ATOM      4  C   LIG    1        0.002  -0.004   0.002  0.00  0.00    -0.060 A 
ATOM      5  C   LIG    1       -0.983  -1.006   0.006  0.00  0.00    +0.430 A 
ATOM      6  N   LIG    1       -0.594  -2.277  -0.004  0.00  0.00    -0.570 NA
ATOM      7  C   LIG    1        0.686  -2.600  -0.018  0.00  0.00    +0.550 A 
ATOM      8  N   LIG    1        1.643  -1.696  -0.023  0.00  0.00    -0.540 NA
ATOM      9  C   LIG    1        1.350  -0.400  -0.013  0.00  0.00    +0.290 A 
ENDROOT
BRANCH   5  10
ATOM     10  N   LIG    1       -2.327  -0.677   0.020  0.00  0.00    -0.460 N 
ATOM     11  C   LIG    1       -2.645   0.191   1.161  0.00  0.00    +0.220 C 
ATOM     12  C   LIG    1       -4.101   0.652   1.064  0.00  0.00    +0.050 C 
ATOM     13  C   LIG    1       -5.019  -0.574   1.060  0.00  0.00    +0.230 C 
ATOM     14  C   LIG    1       -4.636  -1.485  -0.109  0.00  0.00    +0.030 C 
ATOM     15  C   LIG    1       -3.164  -1.883   0.022  0.00  0.00    +0.230 C 
BRANCH  13  16
ATOM     16  N   LIG    1       -6.411  -0.142   0.909  0.00  0.00    -0.440 N 
ATOM     17  C   LIG    1       -6.912   0.571  -0.140  0.00  0.00    +0.150 A 
ATOM     18  C   LIG    1       -8.227   0.773   0.077  0.00  0.00    -0.070 A 
ATOM     19  C   LIG    1       -8.548   0.171   1.310  0.00  0.00    -0.070 A 
ATOM     20  C   LIG    1       -7.418  -0.381   1.796  0.00  0.00    +0.140 A 
ENDBRANCH  13  16
ENDBRANCH   5  10
BRANCH   1  21
ATOM     21  C   LIG    1        3.546   0.859  -0.027  0.00  0.00    +0.300 C 
BRANCH  21  22
ATOM     22  C   LIG    1        4.050   0.776  -1.469  0.00  0.00    +0.200 C 
BRANCH  22  23
ATOM     23  O   LIG    1        3.587   1.912  -2.202  0.00  0.00    -0.540 OA
ATOM     24  H   LIG    1        3.885   2.760  -1.844  0.00  0.00    +0.370 HD
ENDBRANCH  22  23
BRANCH  22  25
ATOM     25  C   LIG    1        5.580   0.755  -1.474  0.00  0.00    +0.160 C 
BRANCH  25  26
ATOM     26  O   LIG    1        6.049   0.561  -2.810  0.00  0.00    -0.560 OA
ATOM     27  H   LIG    1        7.013   0.537  -2.889  0.00  0.00    +0.380 HD
ENDBRANCH  25  26
ENDBRANCH  22  25
ENDBRANCH  21  22
ENDBRANCH   1  21
TORSDOF 7
