REMARK  Name = ZINCrD000000AzHw.0
REMARK                            x       y       z     vdW  Elec       q    Type
REMARK                         _______ _______ _______ _____ _____    ______ ____
ROOT
ATOM      1  O   LIG    1        0.131   0.305  -0.376  0.00  0.00    -0.530 OA
ATOM      2  C   LIG    1        0.011   1.512  -0.378  0.00  0.00    +0.510 C 
ATOM      3  N   LIG    1       -1.208   2.068  -0.233  0.00  0.00    -0.720 N 
ATOM      4  H   LIG    1       -1.304   3.033  -0.235  0.00  0.00    +0.400 HD
ENDROOT
BRANCH   3   5
ATOM      5  C   LIG    1       -2.388   1.215  -0.073  0.00  0.00    +0.290 C 
BRANCH   5   6
ATOM      6  C   LIG    1       -3.622   2.090   0.156  0.00  0.00    +0.220 C 
BRANCH   6   7
ATOM      7  N   LIG    1       -3.375   2.999   1.283  0.00  0.00    -0.530 NA
ATOM      8  C   LIG    1       -3.031   2.249   2.500  0.00  0.00    +0.150 C 
ATOM      9  C   LIG    1       -2.724   3.235   3.631  0.00  0.00    +0.230 C 
ATOM     10  O   LIG    1       -3.850   4.095   3.825  0.00  0.00    -0.380 OA
ATOM     11  C   LIG    1       -4.213   4.841   2.660  0.00  0.00    +0.220 C 
ATOM     12  C   LIG    1       -4.535   3.872   1.520  0.00  0.00    +0.160 C 
ENDBRANCH   6   7
BRANCH   6  13
ATOM     13  C   LIG    1       -3.905   2.894  -1.086  0.00  0.00    -0.180 A 
ATOM     14  C   LIG    1       -4.827   2.595  -2.003  0.00  0.00    +0.010 A 
ATOM     15  C   LIG    1       -4.907   3.483  -3.061  0.00  0.00    +0.010 A 
ATOM     16  C   LIG    1       -4.051   4.505  -3.004  0.00  0.00    -0.060 A 
ATOM     17  S   LIG    1       -3.077   4.376  -1.545  0.00  0.00    +0.130 S 
ENDBRANCH   6  13
ENDBRANCH   5   6
ENDBRANCH   3   5
BRANCH   2  18
ATOM     18  C   LIG    1        1.224   2.389  -0.549  0.00  0.00    +0.100 C 
BRANCH  18  19
ATOM     19  C   LIG    1        2.451   1.527  -0.696  0.00  0.00    -0.070 A 
ATOM     20  C   LIG    1        3.174   1.152   0.421  0.00  0.00    +0.010 A 
ATOM     21  C   LIG    1        4.295   0.360   0.279  0.00  0.00    +0.000 A 
ATOM     22  C   LIG    1        4.710  -0.054  -0.980  0.00  0.00    -0.080 A 
ATOM     23  C   LIG    1        5.954  -0.901  -1.065  0.00  0.00    +0.070 C 
ATOM     24  C   LIG    1        6.022  -1.620  -2.410  0.00  0.00    +0.020 C 
ATOM     25  C   LIG    1        5.823  -0.585  -3.523  0.00  0.00    +0.020 C 
ATOM     26  C   LIG    1        4.372  -0.110  -3.486  0.00  0.00    +0.070 C 
ATOM     27  C   LIG    1        3.990   0.318  -2.093  0.00  0.00    -0.070 A 
ATOM     28  C   LIG    1        2.861   1.113  -1.947  0.00  0.00    +0.020 A 
ENDBRANCH  18  19
ENDBRANCH   2  18
TORSDOF 6
