REMARK  Name = ZINCfA000000bk75.1
REMARK                            x       y       z     vdW  Elec       q    Type
REMARK                         _______ _______ _______ _____ _____    ______ ____
ROOT
ATOM      1  N   LIG    1        1.260  -2.054  -0.021  0.00  0.00    -0.690 NA
ATOM      2  H   LIG    1        2.111  -2.518  -0.032  0.00  0.00    +0.420 HD
ENDROOT
BRANCH   1   3
ATOM      3  C   LIG    1        1.226  -0.664  -0.013  0.00  0.00    +0.450 C 
ATOM      4  C   LIG    1        0.002  -0.004   0.002  0.00  0.00    -0.030 C 
ATOM      5  C   LIG    1       -0.017   1.379   0.010  0.00  0.00    +0.220 C 
ATOM      6  C   LIG    1        1.194   2.058   0.002  0.00  0.00    +0.010 C 
ATOM      7  C   LIG    1        2.373   1.339  -0.014  0.00  0.00    +0.190 C 
ATOM      8  C   LIG    1        3.690   2.071  -0.024  0.00  0.00    +0.180 C 
ATOM      9  N   LIG    1        2.361   0.020  -0.021  0.00  0.00    -0.510 NA
ATOM     10  H   LIG    1        3.203  -0.461  -0.032  0.00  0.00    +0.440 HD
ENDBRANCH   1   3
BRANCH   1  14
ATOM     11  C   LIG    1       -0.926  -5.048   0.033  0.00  0.00    +0.030 C 
ATOM     12  C   LIG    1       -1.055  -4.487   1.464  0.00  0.00    +0.050 C 
ATOM     13  C   LIG    1       -0.461  -3.068   1.435  0.00  0.00    +0.020 C 
ATOM     14  C   LIG    1        0.009  -2.817  -0.013  0.00  0.00    +0.250 C 
ATOM     15  C   LIG    1        0.236  -4.234  -0.594  0.00  0.00    +0.070 C 
BRANCH  11  17
ATOM     16  C   LIG    1       -2.007  -7.560   0.795  0.00  0.00    +0.150 C 
ATOM     17  S   LIG    1       -0.516  -6.815   0.079  0.00  0.00    -0.240 S 
ENDBRANCH  11  17
ENDBRANCH   1  14
TORSDOF 3
