REMARK  Name = ZINCrD0000072Z14.0
REMARK                            x       y       z     vdW  Elec       q    Type
REMARK                         _______ _______ _______ _____ _____    ______ ____
ROOT
ATOM      1  N   LIG    1        2.405   5.283   0.148  0.00  0.00    -0.480 N 
ATOM      2  C   LIG    1        3.133   4.594  -0.927  0.00  0.00    +0.220 C 
ATOM      3  C   LIG    1        4.553   5.159  -1.021  0.00  0.00    +0.200 C 
ATOM      4  N   LIG    1        4.486   6.604  -1.277  0.00  0.00    -0.510 N 
ATOM      5  C   LIG    1        3.758   7.293  -0.202  0.00  0.00    +0.210 C 
ATOM      6  C   LIG    1        2.338   6.728  -0.108  0.00  0.00    +0.170 C 
ATOM      7  C   LIG    1        1.591   7.415   1.037  0.00  0.00    +0.040 C 
ENDROOT
BRANCH   1  10
ATOM      8  C   LIG    1       -0.981   4.336  -0.505  0.00  0.00    +0.310 A 
ATOM      9  N   LIG    1        0.237   4.846  -0.655  0.00  0.00    -0.490 NA
ATOM     10  C   LIG    1        1.137   4.748   0.311  0.00  0.00    +0.410 A 
ATOM     11  C   LIG    1        0.785   4.093   1.506  0.00  0.00    -0.220 A 
ATOM     12  S   LIG    1        1.699   3.780   2.973  0.00  0.00    +0.200 S 
ATOM     13  C   LIG    1        0.343   2.956   3.720  0.00  0.00    +0.020 A 
ATOM     14  C   LIG    1       -0.704   2.923   2.914  0.00  0.00    +0.060 A 
ATOM     15  C   LIG    1       -0.506   3.567   1.631  0.00  0.00    +0.160 A 
ATOM     16  N   LIG    1       -1.354   3.715   0.595  0.00  0.00    -0.440 NA
BRANCH   8  17
ATOM     17  C   LIG    1       -1.955   4.470  -1.615  0.00  0.00    +0.540 C 
ATOM     18  O   LIG    1       -1.634   5.038  -2.639  0.00  0.00    -0.460 OA
BRANCH  17  20
ATOM     19  C   LIG    1       -4.096   4.129  -2.615  0.00  0.00    +0.280 C 
ATOM     20  O   LIG    1       -3.195   3.961  -1.488  0.00  0.00    -0.330 OA
ENDBRANCH  17  20
ENDBRANCH   8  17
ENDBRANCH   1  10
BRANCH   4  21
ATOM     21  C   LIG    1        5.764   7.143  -1.441  0.00  0.00    +0.120 A 
ATOM     22  C   LIG    1        6.721   6.979  -0.448  0.00  0.00    -0.030 A 
ATOM     23  C   LIG    1        7.984   7.513  -0.612  0.00  0.00    +0.050 A 
ATOM     24  C   LIG    1        8.298   8.210  -1.763  0.00  0.00    -0.020 A 
ATOM     25  C   LIG    1        7.347   8.376  -2.757  0.00  0.00    +0.110 A 
ATOM     26  F   LIG    1        7.656   9.058  -3.881  0.00  0.00    -0.140 F 
ATOM     27  C   LIG    1        6.082   7.839  -2.600  0.00  0.00    +0.010 A 
ENDBRANCH   4  21
TORSDOF 4
