REMARK  Name = ZINCbw0000001gRb.0
REMARK                            x       y       z     vdW  Elec       q    Type
REMARK                         _______ _______ _______ _____ _____    ______ ____
ROOT
ATOM      1  C   LIG    1        0.021   5.660   0.034  0.00  0.00    +0.150 C 
ATOM      2  C   LIG    1       -0.024   4.154   0.025  0.00  0.00    -0.080 A 
ATOM      3  C   LIG    1       -1.240   3.490   0.033  0.00  0.00    +0.140 A 
ATOM      4  C   LIG    1       -1.238   2.103   0.019  0.00  0.00    -0.100 A 
ATOM      5  C   LIG    1       -0.017   1.428   0.010  0.00  0.00    +0.240 A 
ATOM      6  N   LIG    1        1.127   2.103   0.003  0.00  0.00    -0.430 NA
ATOM      7 BR   LIG    1       -2.866   1.141   0.022  0.00  0.00    +0.000 Br
ATOM      8  C   LIG    1        1.152   3.419   0.009  0.00  0.00    +0.190 A 
ATOM      9 CL   LIG    1        2.679   4.246  -0.001  0.00  0.00    +0.000 Cl
ENDROOT
BRANCH   5  10
ATOM     10  C   LIG    1        0.002  -0.004   0.002  0.00  0.00    +0.250 C 
ATOM     11  N   LIG    1        0.018  -1.140  -0.004  0.00  0.00    -0.350 NA
ENDBRANCH   5  10
TORSDOF 1
