REMARK  Name = ZINCpe000000X2er.0
REMARK                            x       y       z     vdW  Elec       q    Type
REMARK                         _______ _______ _______ _____ _____    ______ ____
ROOT
ATOM      1  N   LIG    1        3.616  -0.545   3.321  0.00  0.00    -1.010 NA
ATOM      2  C   LIG    1        2.853  -1.081   4.458  0.00  0.00    +0.280 C 
ATOM      3  C   LIG    1        2.772  -2.610   4.309  0.00  0.00    +0.270 C 
ATOM      4  N   LIG    1        4.124  -3.128   4.054  0.00  0.00    -0.610 N 
ATOM      5  C   LIG    1        4.888  -2.588   2.921  0.00  0.00    +0.280 C 
ATOM      6  C   LIG    1        4.653  -4.082   4.846  0.00  0.00    +0.520 C 
ATOM      7  O   LIG    1        5.731  -4.566   4.574  0.00  0.00    -0.530 OA
ATOM      8  C   LIG    1        4.967  -1.063   3.067  0.00  0.00    +0.290 C 
ENDROOT
BRANCH   6   9
ATOM      9  C   LIG    1        3.904  -4.548   6.068  0.00  0.00    -0.010 C 
ATOM     10  C   LIG    1        4.360  -5.960   6.443  0.00  0.00    +0.080 C 
ATOM     11  C   LIG    1        3.827  -6.333   7.796  0.00  0.00    -0.040 C 
ATOM     12  C   LIG    1        3.370  -5.480   8.655  0.00  0.00    -0.050 C 
ATOM     13  C   LIG    1        3.300  -4.000   8.416  0.00  0.00    +0.070 C 
ATOM     14  C   LIG    1        4.205  -3.612   7.245  0.00  0.00    +0.030 C 
ENDBRANCH   6   9
BRANCH   1  15
ATOM     15  S   LIG    1        2.966   0.628   2.350  0.00  0.00    +2.780 S 
ATOM     16  O   LIG    1        1.972   1.285   3.124  0.00  0.00    -0.970 OA
ATOM     17  O   LIG    1        4.062   1.308   1.753  0.00  0.00    -0.970 OA
BRANCH  15  21
ATOM     18  C   LIG    1       -0.014   1.536   0.018  0.00  0.00    +0.010 C 
ATOM     19  C   LIG    1        0.003   0.006   0.009  0.00  0.00    +0.200 C 
ATOM     20  C   LIG    1        0.748  -0.505   1.248  0.00  0.00    +0.270 C 
ATOM     21  N   LIG    1        2.168  -0.141   1.119  0.00  0.00    -1.010 NA
ATOM     22  C   LIG    1        2.858  -0.482  -0.135  0.00  0.00    +0.270 C 
ATOM     23  C   LIG    1        2.011   0.027  -1.306  0.00  0.00    +0.140 C 
ATOM     24  C   LIG    1        2.602  -0.480  -2.623  0.00  0.00    +0.070 C 
ATOM     25  O   LIG    1        0.672  -0.457  -1.167  0.00  0.00    -0.370 OA
ENDBRANCH  15  21
ENDBRANCH   1  15
TORSDOF 3
