REMARK  Name = ZINCpe000000UcXr.0
REMARK                            x       y       z     vdW  Elec       q    Type
REMARK                         _______ _______ _______ _____ _____    ______ ____
ROOT
ATOM      1  C   LIG    1        0.903   4.117   0.090  0.00  0.00    +0.560 C 
ATOM      2  N   LIG    1        2.146   4.633   0.161  0.00  0.00    -0.610 N 
ATOM      3  C   LIG    1        3.330   3.766   0.072  0.00  0.00    +0.280 C 
ATOM      4  C   LIG    1        4.271   4.343  -0.998  0.00  0.00    +0.180 C 
ATOM      5  N   LIG    1        4.554   5.750  -0.686  0.00  0.00    -0.500 NA
ATOM      6  C   LIG    1        3.333   6.564  -0.738  0.00  0.00    +0.180 C 
ATOM      7  C   LIG    1        2.354   6.079   0.337  0.00  0.00    +0.300 C 
ATOM      8  O   LIG    1       -0.062   4.855   0.076  0.00  0.00    -0.540 OA
ENDROOT
BRANCH   1  12
ATOM      9  C   LIG    1        0.359  -0.092  -0.086  0.00  0.00    -0.060 A 
ATOM     10  C   LIG    1       -0.521   0.744  -0.750  0.00  0.00    +0.010 A 
ATOM     11  C   LIG    1       -0.350   2.112  -0.697  0.00  0.00    +0.070 A 
ATOM     12  C   LIG    1        0.714   2.652   0.028  0.00  0.00    -0.140 A 
ATOM     13  C   LIG    1        1.597   1.802   0.696  0.00  0.00    +0.050 A 
ATOM     14  C   LIG    1        1.415   0.436   0.635  0.00  0.00    +0.000 A 
BRANCH   9  16
ATOM     15  C   LIG    1        0.933  -2.149  -1.346  0.00  0.00    +0.030 C 
ATOM     16  C   LIG    1        0.166  -1.586  -0.148  0.00  0.00    +0.070 C 
ENDBRANCH   9  16
ENDBRANCH   1  12
BRANCH   5  17
ATOM     17  C   LIG    1        5.585   6.290  -1.582  0.00  0.00    +0.190 C 
ATOM     18  C   LIG    1        6.846   5.428  -1.488  0.00  0.00    +0.080 C 
BRANCH  17  19
ATOM     19  C   LIG    1        5.074   6.280  -3.000  0.00  0.00    +0.490 C 
ATOM     20  N   LIG    1        5.768   6.907  -3.971  0.00  0.00    -0.690 N 
ATOM     21  H   LIG    1        6.596   7.364  -3.757  0.00  0.00    +0.410 HD
ATOM     22  C   LIG    1        5.311   6.898  -5.239  0.00  0.00    +0.690 C 
ATOM     23  N   LIG    1        6.004   7.524  -6.210  0.00  0.00    -0.740 N 
ATOM     24  H   LIG    1        6.832   7.982  -5.996  0.00  0.00    +0.400 HD
ATOM     25  C   LIG    1        5.507   7.514  -7.588  0.00  0.00    +0.300 C 
ATOM     26  O   LIG    1        4.273   6.324  -5.506  0.00  0.00    -0.530 OA
ATOM     27  O   LIG    1        4.039   5.708  -3.267  0.00  0.00    -0.460 OA
ENDBRANCH  17  19
ENDBRANCH   5  17
TORSDOF 4
