REMARK  Name = ZINCrg00000SjSBV.0
REMARK                            x       y       z     vdW  Elec       q    Type
REMARK                         _______ _______ _______ _____ _____    ______ ____
ROOT
ATOM      1  N   LIG    1        2.858   4.194  -1.384  0.00  0.00    -0.390 N 
ATOM      2  C   LIG    1        3.646   3.401  -2.159  0.00  0.00    +0.230 A 
ATOM      3  N   LIG    1        3.791   3.955  -3.346  0.00  0.00    -0.430 NA
ATOM      4  C   LIG    1        3.126   5.110  -3.394  0.00  0.00    +0.330 A 
ATOM      5  N   LIG    1        2.952   6.074  -4.374  0.00  0.00    -0.510 N 
ATOM      6  C   LIG    1        3.582   5.905  -5.686  0.00  0.00    +0.350 C 
ATOM      7  C   LIG    1        2.205   7.165  -4.122  0.00  0.00    +0.710 A 
ATOM      8  O   LIG    1        2.063   8.001  -4.994  0.00  0.00    -0.530 OA
ATOM      9  N   LIG    1        1.613   7.354  -2.930  0.00  0.00    -0.650 N 
ATOM     10  H   LIG    1        1.082   8.152  -2.782  0.00  0.00    +0.440 HD
ATOM     11  C   LIG    1        1.746   6.451  -1.937  0.00  0.00    +0.600 A 
ATOM     12  O   LIG    1        1.203   6.634  -0.862  0.00  0.00    -0.510 OA
ATOM     13  C   LIG    1        2.518   5.296  -2.157  0.00  0.00    -0.140 A 
ENDROOT
BRANCH   1  14
ATOM     14  C   LIG    1        2.451   3.937  -0.001  0.00  0.00    +0.370 C 
BRANCH  14  19
ATOM     15  C   LIG    1       -2.514   0.980   0.019  0.00  0.00    +0.090 C 
ATOM     16  C   LIG    1       -1.219   1.751   0.017  0.00  0.00    -0.070 A 
ATOM     17  C   LIG    1       -0.013   1.076   0.008  0.00  0.00    +0.010 A 
ATOM     18  C   LIG    1        1.175   1.783   0.000  0.00  0.00    +0.030 A 
ATOM     19  C   LIG    1        1.156   3.165   0.008  0.00  0.00    -0.130 A 
ATOM     20  C   LIG    1       -0.050   3.840   0.023  0.00  0.00    +0.060 A 
ATOM     21  C   LIG    1       -1.238   3.133   0.030  0.00  0.00    +0.010 A 
ENDBRANCH  14  19
ENDBRANCH   1  14
BRANCH   2  22
ATOM     22  S   LIG    1        4.360   1.871  -1.656  0.00  0.00    +0.250 S 
BRANCH  22  23
ATOM     23  C   LIG    1        5.219   1.434  -3.131  0.00  0.00    +0.110 A 
ATOM     24  N   LIG    1        5.256   2.125  -4.246  0.00  0.00    -0.210 NA
ATOM     25  N   LIG    1        5.976   1.511  -5.116  0.00  0.00    -0.290 NA
ATOM     26  C   LIG    1        6.437   0.401  -4.611  0.00  0.00    +0.400 A 
ATOM     27  N   LIG    1        5.976   0.315  -3.328  0.00  0.00    -0.470 N 
ATOM     28  C   LIG    1        6.238  -0.757  -2.364  0.00  0.00    +0.350 C 
ENDBRANCH  22  23
ENDBRANCH   2  22
TORSDOF 4
