REMARK  Name = ZINCqH0000002W0R.0
REMARK                            x       y       z     vdW  Elec       q    Type
REMARK                         _______ _______ _______ _____ _____    ______ ____
ROOT
ATOM      1  O   LIG    1       -3.250   8.806  -0.040  0.00  0.00    -0.290 OA
ENDROOT
BRANCH   1   2
ATOM      2  C   LIG    1       -3.028   7.466  -0.024  0.00  0.00    +0.140 A 
ATOM      3  C   LIG    1       -4.095   6.587   0.094  0.00  0.00    -0.080 A 
ATOM      4  C   LIG    1       -3.869   5.223   0.110  0.00  0.00    +0.080 A 
ATOM      5  C   LIG    1       -2.582   4.732   0.004  0.00  0.00    -0.020 A 
ATOM      6  C   LIG    1       -1.511   5.608  -0.109  0.00  0.00    +0.140 A 
ATOM      7  C   LIG    1       -1.735   6.976  -0.126  0.00  0.00    +0.000 A 
BRANCH   6   8
ATOM      8  O   LIG    1       -0.245   5.124  -0.209  0.00  0.00    -0.250 OA
BRANCH   8   9
ATOM      9  C   LIG    1        0.551   5.192   0.887  0.00  0.00    +0.310 A 
ATOM     10  C   LIG    1        1.815   4.617   0.856  0.00  0.00    -0.040 A 
ATOM     11  C   LIG    1        2.617   4.693   1.981  0.00  0.00    +0.100 A 
ATOM     12  C   LIG    1        2.124   5.344   3.103  0.00  0.00    -0.070 A 
ATOM     13  C   LIG    1        0.855   5.888   3.066  0.00  0.00    +0.300 A 
ATOM     14  N   LIG    1        0.116   5.804   1.976  0.00  0.00    -0.530 NA
ENDBRANCH   8   9
ENDBRANCH   6   8
ENDBRANCH   1   2
BRANCH   1  15
ATOM     15  C   LIG    1       -4.607   9.240   0.069  0.00  0.00    +0.250 C 
BRANCH  15  17
ATOM     16  N   LIG    1       -5.842  11.383   0.121  0.00  0.00    -0.570 N 
ATOM     17  C   LIG    1       -4.658  10.746   0.033  0.00  0.00    +0.520 C 
ATOM     18  O   LIG    1       -3.632  11.385  -0.076  0.00  0.00    -0.490 OA
BRANCH  16  19
ATOM     19  C   LIG    1       -5.901  12.774  -0.023  0.00  0.00    +0.090 A 
ATOM     20  C   LIG    1       -5.335  13.608   0.937  0.00  0.00    +0.080 A 
ATOM     21  C   LIG    1       -5.414  14.978   0.748  0.00  0.00    -0.020 A 
ATOM     22  C   LIG    1       -6.057  15.469  -0.373  0.00  0.00    +0.260 A 
ATOM     23  N   LIG    1       -6.589  14.652  -1.262  0.00  0.00    -0.470 NA
ATOM     24  C   LIG    1       -6.531  13.342  -1.123  0.00  0.00    +0.260 A 
ENDBRANCH  16  19
BRANCH  16  26
ATOM     25  C   LIG    1       -7.306  10.508   1.875  0.00  0.00    +0.020 C 
ATOM     26  C   LIG    1       -7.068  10.619   0.367  0.00  0.00    +0.280 C 
ENDBRANCH  16  26
ENDBRANCH  15  17
ENDBRANCH   1  15
TORSDOF 7
