REMARK  Name = ZINCvU0000000Ixw.0
REMARK                            x       y       z     vdW  Elec       q    Type
REMARK                         _______ _______ _______ _____ _____    ______ ____
ROOT
ATOM      1  C   LIG    1       -1.156   2.286   0.019  0.00  0.00    +0.130 A 
ATOM      2  C   LIG    1       -0.049   1.503   0.012  0.00  0.00    -0.150 A 
ATOM      3  C   LIG    1        1.107   2.398   0.007  0.00  0.00    -0.100 A 
ATOM      4  C   LIG    1        2.490   2.194  -0.006  0.00  0.00    +0.050 A 
ATOM      5  C   LIG    1        3.334   3.268  -0.007  0.00  0.00    -0.030 A 
ATOM      6  C   LIG    1        2.830   4.561   0.005  0.00  0.00    +0.030 A 
ATOM      7  C   LIG    1        1.470   4.786   0.018  0.00  0.00    -0.010 A 
ATOM      8  C   LIG    1        0.591   3.709   0.019  0.00  0.00    +0.100 A 
ATOM      9  N   LIG    1       -0.783   3.611   0.030  0.00  0.00    -0.590 N 
ATOM     10  H   LIG    1       -1.396   4.363   0.039  0.00  0.00    +0.420 HD
ENDROOT
BRANCH   1  14
ATOM     11  C   LIG    1       -5.162   0.869   0.020  0.00  0.00    +0.140 A 
ATOM     12  C   LIG    1       -4.791   1.897   0.877  0.00  0.00    -0.010 A 
ATOM     13  C   LIG    1       -3.492   2.359   0.880  0.00  0.00    +0.060 A 
ATOM     14  C   LIG    1       -2.550   1.793   0.020  0.00  0.00    -0.080 A 
ATOM     15  C   LIG    1       -2.928   0.763  -0.844  0.00  0.00    +0.090 A 
ATOM     16  C   LIG    1       -4.227   0.303  -0.837  0.00  0.00    -0.070 A 
BRANCH  11  18
ATOM     17  C   LIG    1       -6.756  -0.643  -0.886  0.00  0.00    +0.240 C 
ATOM     18  O   LIG    1       -6.443   0.416   0.020  0.00  0.00    -0.320 OA
ENDBRANCH  11  18
ENDBRANCH   1  14
BRANCH   2  19
ATOM     19  C   LIG    1       -0.016  -0.004   0.003  0.00  0.00    +0.130 C 
BRANCH  19  20
ATOM     20  C   LIG    1        0.006  -0.522   1.442  0.00  0.00    +0.070 C 
BRANCH  20  21
ATOM     21  C   LIG    1        0.039  -2.028   1.434  0.00  0.00    +0.510 C 
ATOM     22  N   LIG    1        0.062  -2.709   2.597  0.00  0.00    -0.660 N 
ATOM     23  H   LIG    1        0.140  -2.230   3.437  0.00  0.00    +0.410 HD
ATOM     24  O   LIG    1        0.044  -2.629   0.380  0.00  0.00    -0.520 OA
BRANCH  22  25
ATOM     25  C   LIG    1       -0.024  -4.107   2.592  0.00  0.00    +0.130 A 
ATOM     26  C   LIG    1       -0.630  -4.763   1.531  0.00  0.00    +0.050 A 
ATOM     27  C   LIG    1       -0.711  -6.143   1.527  0.00  0.00    -0.100 A 
ATOM     28  C   LIG    1       -0.198  -6.872   2.583  0.00  0.00    +0.030 A 
ATOM     29  C   LIG    1        0.404  -6.225   3.647  0.00  0.00    -0.050 A 
ATOM     30  C   LIG    1       -1.365  -6.854   0.370  0.00  0.00    +0.100 C 
ATOM     31  C   LIG    1        0.493  -4.843   3.657  0.00  0.00    +0.090 A 
BRANCH  31  32
ATOM     32  O   LIG    1        1.083  -4.205   4.703  0.00  0.00    -0.320 OA
ATOM     33  C   LIG    1        1.590  -5.023   5.759  0.00  0.00    +0.250 C 
ENDBRANCH  31  32
ENDBRANCH  22  25
ENDBRANCH  20  21
ENDBRANCH  19  20
ENDBRANCH   2  19
TORSDOF 7
