REMARK  Name = ZINCrg00000yfnEG.0
REMARK                            x       y       z     vdW  Elec       q    Type
REMARK                         _______ _______ _______ _____ _____    ______ ____
ROOT
ATOM      1  C   LIG    1       -0.077   1.323   0.051  0.00  0.00    +0.520 C 
ATOM      2  N   LIG    1       -1.198   2.064   0.155  0.00  0.00    -0.620 N 
ATOM      3  C   LIG    1       -1.286   3.533   0.139  0.00  0.00    +0.260 C 
ATOM      4  C   LIG    1       -2.646   3.876  -0.500  0.00  0.00    +0.000 C 
ATOM      5  C   LIG    1       -3.369   4.913   0.376  0.00  0.00    +0.270 C 
ATOM      6  N   LIG    1       -4.739   4.411   0.568  0.00  0.00    -0.620 N 
ATOM      7  C   LIG    1       -4.654   2.941   0.556  0.00  0.00    +0.270 C 
ATOM      8  C   LIG    1       -5.854   5.152   0.724  0.00  0.00    +0.530 C 
ATOM      9  O   LIG    1       -5.783   6.363   0.714  0.00  0.00    -0.520 OA
ATOM     10  C   LIG    1       -3.489   2.582  -0.382  0.00  0.00    +0.000 C 
ATOM     11  C   LIG    1       -2.573   1.562   0.313  0.00  0.00    +0.270 C 
ATOM     12  O   LIG    1       -0.152   0.114  -0.006  0.00  0.00    -0.500 OA
ENDROOT
BRANCH   1  13
ATOM     13  C   LIG    1        1.270   1.998   0.000  0.00  0.00    +0.260 C 
BRANCH  13  14
ATOM     14  N   LIG    1        2.300   1.069   0.473  0.00  0.00    -0.610 N 
ATOM     15  C   LIG    1        3.168   1.315   1.630  0.00  0.00    +0.250 C 
ATOM     16  C   LIG    1        4.341   0.320   1.485  0.00  0.00    +0.040 C 
ATOM     17  C   LIG    1        3.696  -0.806   0.644  0.00  0.00    +0.040 C 
ATOM     18  C   LIG    1        2.566  -0.120  -0.093  0.00  0.00    +0.520 C 
ATOM     19  O   LIG    1        1.987  -0.576  -1.056  0.00  0.00    -0.500 OA
ENDBRANCH  13  14
BRANCH  13  21
ATOM     20  C   LIG    1        2.881   3.214  -1.472  0.00  0.00    +0.030 C 
ATOM     21  C   LIG    1        1.579   2.411  -1.440  0.00  0.00    +0.040 C 
ENDBRANCH  13  21
ENDBRANCH   1  13
BRANCH   8  22
ATOM     22  C   LIG    1       -7.188   4.477   0.912  0.00  0.00    +0.170 C 
BRANCH  22  23
ATOM     23  C   LIG    1       -8.263   5.522   1.062  0.00  0.00    -0.210 A 
ATOM     24  C   LIG    1       -8.971   6.070   0.070  0.00  0.00    +0.220 A 
ATOM     25  N   LIG    1       -9.860   6.961   0.461  0.00  0.00    -0.470 NA
ATOM     26  C   LIG    1       -9.934   7.203   1.726  0.00  0.00    +0.220 A 
ATOM     27  S   LIG    1       -8.805   6.241   2.577  0.00  0.00    +0.140 S 
ENDBRANCH  22  23
ENDBRANCH   8  22
TORSDOF 5
