REMARK  Name = ZINCah0000006kTw.0
REMARK                            x       y       z     vdW  Elec       q    Type
REMARK                         _______ _______ _______ _____ _____    ______ ____
ROOT
ATOM      1  C   LIG    1       -0.016   1.328   0.009  0.00  0.00    +0.250 A 
ATOM      2  N   LIG    1        0.002  -0.004   0.002  0.00  0.00    -0.450 NA
ATOM      3  C   LIG    1        1.143  -0.661  -0.012  0.00  0.00    +0.360 A 
ATOM      4  N   LIG    1        2.308  -0.040  -0.020  0.00  0.00    -0.460 NA
ATOM      5  C   LIG    1        2.377   1.281  -0.014  0.00  0.00    +0.370 A 
ATOM      6 CL   LIG    1        1.115  -2.397  -0.022  0.00  0.00    +0.060 Cl
ATOM      7  C   LIG    1        1.201   2.020   0.001  0.00  0.00    +0.050 A 
ATOM      8  F   LIG    1        1.231   3.371   0.008  0.00  0.00    -0.100 F 
ENDROOT
BRANCH   1  10
ATOM      9  N   LIG    1       -2.244   2.604   0.027  0.00  0.00    -0.330 NA
ATOM     10  C   LIG    1       -1.259   2.040   0.019  0.00  0.00    +0.250 C 
ENDBRANCH   1  10
TORSDOF 1
