REMARK  Name = ZINCrg000000rwkM.0
REMARK                            x       y       z     vdW  Elec       q    Type
REMARK                         _______ _______ _______ _____ _____    ______ ____
ROOT
ATOM      1  C   LIG    1        7.167   5.972  -1.008  0.00  0.00    +0.100 C 
ATOM      2  C   LIG    1        6.014   6.918  -0.667  0.00  0.00    +0.170 C 
ATOM      3  N   LIG    1        5.189   7.181  -1.859  0.00  0.00    -0.720 N 
ATOM      4  H   LIG    1        5.481   7.598  -2.685  0.00  0.00    +0.440 HD
ATOM      5  C   LIG    1        3.954   6.729  -1.579  0.00  0.00    +0.710 C 
ATOM      6  N   LIG    1        3.867   6.204  -0.352  0.00  0.00    -0.560 N 
ATOM      7  O   LIG    1        3.020   6.791  -2.355  0.00  0.00    -0.530 OA
ATOM      8  C   LIG    1        5.046   6.265   0.299  0.00  0.00    +0.540 C 
ATOM      9  O   LIG    1        5.283   5.877   1.423  0.00  0.00    -0.440 OA
ENDROOT
BRANCH   2  10
ATOM     10  C   LIG    1        6.540   8.208  -0.093  0.00  0.00    -0.090 A 
ATOM     11  C   LIG    1        6.248   9.410  -0.710  0.00  0.00    +0.070 A 
ATOM     12  C   LIG    1        6.731  10.593  -0.183  0.00  0.00    +0.050 A 
ATOM     13  C   LIG    1        7.506  10.576   0.962  0.00  0.00    -0.010 A 
ATOM     14  C   LIG    1        7.799   9.373   1.581  0.00  0.00    +0.050 A 
ATOM     15 CL   LIG    1        8.112  12.062   1.623  0.00  0.00    -0.050 Cl
ATOM     16  C   LIG    1        7.312   8.190   1.056  0.00  0.00    -0.010 A 
ATOM     17 CL   LIG    1        7.673   6.681   1.835  0.00  0.00    -0.020 Cl
ENDBRANCH   2  10
BRANCH   6  18
ATOM     18  C   LIG    1        2.642   5.638   0.217  0.00  0.00    +0.360 C 
BRANCH  18  19
ATOM     19  C   LIG    1        2.569   4.168  -0.109  0.00  0.00    +0.500 C 
ATOM     20  N   LIG    1        1.520   3.435   0.316  0.00  0.00    -0.720 N 
ATOM     21  H   LIG    1        0.813   3.853   0.831  0.00  0.00    +0.410 HD
ATOM     22  O   LIG    1        3.453   3.645  -0.752  0.00  0.00    -0.520 OA
BRANCH  20  23
ATOM     23  C   LIG    1        1.449   2.006  -0.001  0.00  0.00    +0.270 C 
ATOM     24  C   LIG    1       -0.019   1.546   0.011  0.00  0.00    +0.080 C 
ATOM     25  C   LIG    1        0.002  -0.004   0.002  0.00  0.00    -0.300 C 
ATOM     26  S   LIG    1        1.339  -0.391   1.194  0.00  0.00    +2.390 S 
ATOM     27  O   LIG    1        2.153  -1.431   0.668  0.00  0.00    -0.930 OA
ATOM     28  O   LIG    1        0.787  -0.513   2.498  0.00  0.00    -0.930 OA
ATOM     29  C   LIG    1        2.228   1.202   1.058  0.00  0.00    -0.330 C 
ENDBRANCH  20  23
ENDBRANCH  18  19
ENDBRANCH   6  18
TORSDOF 4
