REMARK  Name = ZINCrD000000fRbO.0
REMARK                            x       y       z     vdW  Elec       q    Type
REMARK                         _______ _______ _______ _____ _____    ______ ____
ROOT
ATOM      1  C   LIG    1       -3.743   7.259   0.074  0.00  0.00    +0.290 C 
ATOM      2  C   LIG    1       -5.015   7.474  -0.749  0.00  0.00    +0.100 C 
ENDROOT
BRANCH   1   3
ATOM      3  N   LIG    1       -3.389   5.838   0.064  0.00  0.00    -0.330 N 
ATOM      4  C   LIG    1       -4.259   4.804   0.059  0.00  0.00    +0.380 A 
ATOM      5  C   LIG    1       -3.546   3.658   0.043  0.00  0.00    -0.160 A 
ATOM      6  C   LIG    1       -2.178   3.999   0.048  0.00  0.00    +0.210 A 
ATOM      7  N   LIG    1       -2.090   5.314   0.056  0.00  0.00    -0.240 NA
BRANCH   6   8
ATOM      8  C   LIG    1       -1.044   3.051   0.038  0.00  0.00    +0.090 A 
ATOM      9  N   LIG    1       -1.145   1.752   0.023  0.00  0.00    -0.390 NA
ATOM     10  C   LIG    1       -0.024   1.067   0.021  0.00  0.00    +0.230 A 
ATOM     11  C   LIG    1        1.101   1.788   0.023  0.00  0.00    -0.040 A 
ATOM     12  S   LIG    1        0.661   3.495   0.037  0.00  0.00    +0.140 S 
ENDBRANCH   6   8
BRANCH   5  13
ATOM     13  N   LIG    1       -4.102   2.286   0.028  0.00  0.00    +0.060 N 
ATOM     14  O   LIG    1       -3.353   1.325   0.018  0.00  0.00    -0.080 OA
ATOM     15  O   LIG    1       -5.309   2.118   0.026  0.00  0.00    -0.200 OA
ENDBRANCH   5  13
ENDBRANCH   1   3
BRANCH   1  18
ATOM     16  N   LIG    1       -4.322   8.986   1.748  0.00  0.00    -0.660 N 
ATOM     17  H   LIG    1       -4.348   9.634   1.026  0.00  0.00    +0.420 HD
ATOM     18  C   LIG    1       -3.981   7.707   1.493  0.00  0.00    +0.500 C 
ATOM     19  O   LIG    1       -3.866   6.917   2.406  0.00  0.00    -0.490 OA
BRANCH  16  24
ATOM     20  C   LIG    1       -4.290   9.208   5.429  0.00  0.00    -0.150 A 
ATOM     21  C   LIG    1       -5.279  10.175   5.637  0.00  0.00    +0.060 A 
ATOM     22  C   LIG    1       -5.934  10.733   4.559  0.00  0.00    +0.030 A 
ATOM     23  C   LIG    1       -5.614  10.344   3.271  0.00  0.00    +0.020 A 
ATOM     24  C   LIG    1       -4.637   9.380   3.053  0.00  0.00    +0.130 A 
ATOM     25  C   LIG    1       -3.971   8.812   4.127  0.00  0.00    +0.090 A 
BRANCH  20  27
ATOM     26  C   LIG    1       -3.935   9.040   7.979  0.00  0.00    +0.080 C 
ATOM     27  C   LIG    1       -3.589   8.610   6.577  0.00  0.00    +0.390 C 
ATOM     28  O   LIG    1       -2.732   7.772   6.394  0.00  0.00    -0.450 OA
ENDBRANCH  20  27
ENDBRANCH  16  24
ENDBRANCH   1  18
TORSDOF 6
