REMARK  Name = ZINCvU0000000684.0
REMARK                            x       y       z     vdW  Elec       q    Type
REMARK                         _______ _______ _______ _____ _____    ______ ____
ROOT
ATOM      1  C   LIG    1        2.565   4.530   0.002  0.00  0.00    +0.150 A 
ATOM      2  N   LIG    1        3.676   3.828  -0.013  0.00  0.00    -0.290 NA
ATOM      3  N   LIG    1        4.695   4.611  -0.019  0.00  0.00    -0.260 NA
ATOM      4  C   LIG    1        4.299   5.863  -0.008  0.00  0.00    +0.240 A 
ATOM      5  N   LIG    1        2.921   5.851   0.000  0.00  0.00    -0.410 N 
ENDROOT
BRANCH   4   6
ATOM      6  C   LIG    1        5.168   7.059  -0.011  0.00  0.00    -0.030 A 
ATOM      7  C   LIG    1        4.637   8.310   0.308  0.00  0.00    +0.060 A 
ATOM      8  C   LIG    1        5.453   9.422   0.308  0.00  0.00    -0.010 A 
ATOM      9  C   LIG    1        6.795   9.300  -0.017  0.00  0.00    +0.120 A 
ATOM     10  C   LIG    1        7.326   8.061  -0.338  0.00  0.00    +0.000 A 
ATOM     11  F   LIG    1        7.589  10.394  -0.020  0.00  0.00    -0.130 F 
ATOM     12  C   LIG    1        6.520   6.942  -0.337  0.00  0.00    +0.110 A 
ENDBRANCH   4   6
BRANCH   5  13
ATOM     13  C   LIG    1        2.064   6.960   0.008  0.00  0.00    +0.100 A 
ATOM     14  C   LIG    1        2.036   7.825  -1.078  0.00  0.00    +0.030 A 
ATOM     15  C   LIG    1        1.186   8.914  -1.070  0.00  0.00    +0.040 A 
ATOM     16  C   LIG    1        0.372   9.149   0.023  0.00  0.00    +0.040 A 
ATOM     17  C   LIG    1        0.403   8.293   1.109  0.00  0.00    +0.040 A 
ATOM     18  C   LIG    1        1.246   7.199   1.104  0.00  0.00    +0.030 A 
ENDBRANCH   5  13
BRANCH   1  19
ATOM     19  S   LIG    1        0.924   3.890   0.014  0.00  0.00    +0.100 S 
BRANCH  19  20
ATOM     20  C   LIG    1        1.278   2.115   0.001  0.00  0.00    +0.110 C 
BRANCH  20  22
ATOM     21  O   LIG    1       -1.075   1.936   0.018  0.00  0.00    -0.520 OA
ATOM     22  C   LIG    1       -0.016   1.344   0.009  0.00  0.00    +0.540 C 
ATOM     23  N   LIG    1        0.002  -0.004   0.002  0.00  0.00    -0.720 N 
ATOM     24  H   LIG    1        0.849  -0.478  -0.009  0.00  0.00    +0.410 HD
BRANCH  23  25
ATOM     25  C   LIG    1       -1.256  -0.754   0.010  0.00  0.00    +0.320 C 
BRANCH  25  26
ATOM     26  C   LIG    1       -0.961  -2.232  -0.001  0.00  0.00    -0.110 A 
ATOM     27  C   LIG    1       -0.843  -2.904  -1.203  0.00  0.00    +0.050 A 
ATOM     28  C   LIG    1       -0.567  -4.258  -1.214  0.00  0.00    +0.030 A 
ATOM     29  C   LIG    1       -0.420  -4.943  -0.021  0.00  0.00    -0.030 A 
ATOM     30  C   LIG    1       -0.544  -4.271   1.182  0.00  0.00    +0.030 A 
ATOM     31 CL   LIG    1       -0.082  -6.646  -0.033  0.00  0.00    -0.060 Cl
ATOM     32  C   LIG    1       -0.814  -2.915   1.192  0.00  0.00    +0.050 A 
ENDBRANCH  25  26
ENDBRANCH  23  25
ENDBRANCH  20  22
ENDBRANCH  19  20
ENDBRANCH   1  19
TORSDOF 7
