REMARK  Name = ZINCpe000000XmOz.0
REMARK                            x       y       z     vdW  Elec       q    Type
REMARK                         _______ _______ _______ _____ _____    ______ ____
ROOT
ATOM      1  C   LIG    1       -2.094   5.861   1.300  0.00  0.00    +0.090 C 
ATOM      2  C   LIG    1       -1.262   6.106   0.040  0.00  0.00    +0.220 C 
ATOM      3  C   LIG    1       -0.686   7.508   0.047  0.00  0.00    +0.530 C 
ATOM      4  N   LIG    1        0.652   7.352   0.034  0.00  0.00    -0.570 N 
ATOM      5  C   LIG    1        0.999   6.060   0.024  0.00  0.00    +0.700 C 
ATOM      6  O   LIG    1        2.149   5.669   0.012  0.00  0.00    -0.500 OA
ATOM      7  O   LIG    1       -1.302   8.552   0.058  0.00  0.00    -0.440 OA
ATOM      8  N   LIG    1       -0.069   5.242   0.030  0.00  0.00    -0.560 N 
ENDROOT
BRANCH   8   9
ATOM      9  C   LIG    1       -0.050   3.842   0.022  0.00  0.00    +0.190 A 
ATOM     10  C   LIG    1        1.161   3.163   0.007  0.00  0.00    +0.000 A 
ATOM     11  C   LIG    1        1.176   1.782   0.000  0.00  0.00    +0.040 A 
ATOM     12  C   LIG    1       -0.013   1.076   0.008  0.00  0.00    -0.010 A 
ATOM     13  C   LIG    1       -1.220   1.749   0.017  0.00  0.00    +0.040 A 
ATOM     14  C   LIG    1       -1.242   3.130   0.030  0.00  0.00    -0.030 A 
ENDBRANCH   8   9
BRANCH   4  15
ATOM     15  C   LIG    1        1.610   8.461   0.031  0.00  0.00    +0.450 C 
BRANCH  15  16
ATOM     16  C   LIG    1        1.925   8.849  -1.391  0.00  0.00    +0.400 A 
ATOM     17  N   LIG    1        1.196   9.767  -2.001  0.00  0.00    -0.620 NA
ATOM     18  C   LIG    1        1.472  10.112  -3.256  0.00  0.00    +0.620 A 
ATOM     19  N   LIG    1        2.482   9.532  -3.896  0.00  0.00    -0.650 NA
ATOM     20  C   LIG    1        3.212   8.609  -3.280  0.00  0.00    +0.630 A 
ATOM     21  N   LIG    1        2.934   8.274  -2.022  0.00  0.00    -0.610 NA
BRANCH  20  22
ATOM     22  N   LIG    1        4.262   8.004  -3.940  0.00  0.00    -0.800 N 
ATOM     23  H   LIG    1        4.795   7.331  -3.490  0.00  0.00    +0.420 HD
ATOM     24  H   LIG    1        4.466   8.252  -4.855  0.00  0.00    +0.420 HD
ENDBRANCH  20  22
BRANCH  18  25
ATOM     25  N   LIG    1        0.711  11.071  -3.892  0.00  0.00    -0.580 N 
ATOM     26  C   LIG    1        1.015  11.450  -5.274  0.00  0.00    +0.310 C 
ATOM     27  C   LIG    1       -0.402  11.710  -3.186  0.00  0.00    +0.320 C 
ENDBRANCH  18  25
ENDBRANCH  15  16
ENDBRANCH   4  15
TORSDOF 5
