REMARK  Name = ZINCpe00000VRI23.0
REMARK                            x       y       z     vdW  Elec       q    Type
REMARK                         _______ _______ _______ _____ _____    ______ ____
ROOT
ATOM      1  N   LIG    1        2.533   3.980  -0.040  0.00  0.00    -0.520 NA
ATOM      2  C   LIG    1        3.304   3.330   1.029  0.00  0.00    +0.190 C 
ATOM      3  C   LIG    1        4.780   3.709   0.893  0.00  0.00    +0.190 C 
ATOM      4  N   LIG    1        4.917   5.171   0.964  0.00  0.00    -0.520 NA
ATOM      5  C   LIG    1        4.146   5.821  -0.106  0.00  0.00    +0.190 C 
ATOM      6  C   LIG    1        2.670   5.442   0.030  0.00  0.00    +0.200 C 
ENDROOT
BRANCH   1   8
ATOM      7  C   LIG    1        0.423   4.316   1.157  0.00  0.00    +0.030 C 
ATOM      8  C   LIG    1        1.121   3.580   0.011  0.00  0.00    +0.180 C 
BRANCH   8   9
ATOM      9  C   LIG    1        0.452   3.933  -1.293  0.00  0.00    +0.520 C 
ATOM     10  N   LIG    1       -0.749   3.402  -1.599  0.00  0.00    -0.630 N 
ATOM     11  H   LIG    1       -1.184   2.796  -0.979  0.00  0.00    +0.420 HD
ATOM     12  O   LIG    1        0.993   4.694  -2.067  0.00  0.00    -0.480 OA
BRANCH  10  13
ATOM     13  C   LIG    1       -1.365   3.726  -2.800  0.00  0.00    +0.060 A 
ATOM     14  C   LIG    1       -2.579   3.239  -3.209  0.00  0.00    -0.120 A 
ATOM     15  C   LIG    1       -2.981   3.749  -4.500  0.00  0.00    +0.080 A 
ATOM     16  C   LIG    1       -2.093   4.576  -5.035  0.00  0.00    -0.110 A 
ATOM     17  S   LIG    1       -0.713   4.779  -3.971  0.00  0.00    +0.320 S 
BRANCH  14  18
ATOM     18  C   LIG    1       -3.366   2.326  -2.437  0.00  0.00    +0.270 C 
ATOM     19  N   LIG    1       -3.992   1.602  -1.825  0.00  0.00    -0.420 NA
ENDBRANCH  14  18
ENDBRANCH  10  13
ENDBRANCH   8   9
ENDBRANCH   1   8
BRANCH   4  20
ATOM     20  C   LIG    1        6.329   5.571   0.913  0.00  0.00    +0.220 C 
BRANCH  20  21
ATOM     21  C   LIG    1        7.033   5.088   2.155  0.00  0.00    +0.520 C 
ATOM     22  N   LIG    1        8.346   5.341   2.327  0.00  0.00    -0.710 N 
ATOM     23  H   LIG    1        8.837   5.834   1.651  0.00  0.00    +0.400 HD
ATOM     24  O   LIG    1        6.419   4.471   2.999  0.00  0.00    -0.520 OA
BRANCH  22  25
ATOM     25  C   LIG    1        9.030   4.872   3.534  0.00  0.00    +0.220 C 
ATOM     26  C   LIG    1        9.986   5.844   4.228  0.00  0.00    +0.010 C 
ATOM     27  C   LIG    1       10.541   4.650   3.448  0.00  0.00    +0.010 C 
ENDBRANCH  22  25
ENDBRANCH  20  21
ENDBRANCH   4  20
TORSDOF 7
