REMARK  Name = ZINCrD000000Bnye.0
REMARK                            x       y       z     vdW  Elec       q    Type
REMARK                         _______ _______ _______ _____ _____    ______ ____
ROOT
ATOM      1  O   LIG    1       -6.880   6.096  -0.634  0.00  0.00    -0.590 OA
ATOM      2  C   LIG    1       -6.237   5.650  -1.564  0.00  0.00    +0.710 C 
ATOM      3  N   LIG    1       -6.612   5.914  -2.831  0.00  0.00    -0.740 N 
ATOM      4  H   LIG    1       -6.098   5.558  -3.573  0.00  0.00    +0.400 HD
ATOM      5  N   LIG    1       -5.149   4.891  -1.327  0.00  0.00    -0.740 N 
ATOM      6  H   LIG    1       -4.635   4.535  -2.069  0.00  0.00    +0.400 HD
ENDROOT
BRANCH   3   7
ATOM      7  C   LIG    1       -7.795   6.739  -3.088  0.00  0.00    +0.330 C 
BRANCH   7   8
ATOM      8  C   LIG    1       -7.998   6.884  -4.598  0.00  0.00    +0.080 C 
ATOM      9  S   LIG    1       -6.532   7.663  -5.327  0.00  0.00    -0.230 S 
ATOM     10  C   LIG    1       -7.166   8.108  -6.975  0.00  0.00    +0.120 C 
ATOM     11  C   LIG    1       -8.276   9.131  -6.784  0.00  0.00    +0.100 C 
ATOM     12  C   LIG    1       -9.340   8.691  -5.820  0.00  0.00    -0.070 A 
ATOM     13  C   LIG    1      -10.556   9.369  -5.950  0.00  0.00    +0.000 A 
ATOM     14  C   LIG    1      -11.626   9.092  -5.131  0.00  0.00    +0.020 A 
ATOM     15  C   LIG    1      -11.502   8.122  -4.154  0.00  0.00    +0.010 A 
ATOM     16  C   LIG    1      -10.310   7.447  -4.024  0.00  0.00    +0.020 A 
ATOM     17  C   LIG    1       -9.222   7.726  -4.858  0.00  0.00    -0.080 A 
ENDBRANCH   7   8
ENDBRANCH   3   7
BRANCH   5  18
ATOM     18  C   LIG    1       -4.741   4.604   0.050  0.00  0.00    +0.340 C 
BRANCH  18  19
ATOM     19  C   LIG    1       -3.505   3.742   0.039  0.00  0.00    -0.090 A 
ATOM     20  C   LIG    1       -2.253   4.332   0.036  0.00  0.00    +0.030 A 
ATOM     21  C   LIG    1       -1.118   3.548   0.027  0.00  0.00    +0.060 A 
ATOM     22  C   LIG    1       -1.233   2.159   0.020  0.00  0.00    -0.010 A 
ATOM     23  C   LIG    1       -2.496   1.570   0.017  0.00  0.00    +0.040 A 
ATOM     24  C   LIG    1       -3.625   2.364   0.032  0.00  0.00    +0.030 A 
BRANCH  22  25
ATOM     25  C   LIG    1       -0.016   1.311   0.009  0.00  0.00    +0.270 A 
ATOM     26  N   LIG    1        0.002  -0.004   0.002  0.00  0.00    -0.300 NA
ATOM     27  N   LIG    1        1.352  -0.390  -0.013  0.00  0.00    -0.480 N 
ATOM     28  H   LIG    1        1.697  -1.296  -0.021  0.00  0.00    +0.450 HD
ATOM     29  C   LIG    1        2.074   0.746  -0.014  0.00  0.00    +0.500 A 
ATOM     30  N   LIG    1        1.247   1.758  -0.000  0.00  0.00    -0.540 NA
ENDBRANCH  22  25
ENDBRANCH  18  19
ENDBRANCH   5  18
TORSDOF 5
