REMARK  Name = ZINCqH0000037I8P.0
REMARK                            x       y       z     vdW  Elec       q    Type
REMARK                         _______ _______ _______ _____ _____    ______ ____
ROOT
ATOM      1  C   LIG    1       -3.185  -1.990  -0.022  0.00  0.00    +0.630 C 
ATOM      2  N   LIG    1       -1.883  -1.646  -0.054  0.00  0.00    -0.620 N 
ATOM      3  H   LIG    1       -1.199  -2.334  -0.063  0.00  0.00    +0.450 HD
ATOM      4  O   LIG    1       -4.042  -1.128  -0.011  0.00  0.00    -0.510 OA
ENDROOT
BRANCH   2   5
ATOM      5  C   LIG    1       -1.525  -0.328  -0.073  0.00  0.00    +0.460 A 
ATOM      6  C   LIG    1       -0.207   0.168  -0.106  0.00  0.00    -0.280 A 
ATOM      7  C   LIG    1        1.051  -0.459  -0.128  0.00  0.00    +0.110 A 
ATOM      8  C   LIG    1        2.184   0.290  -0.159  0.00  0.00    -0.100 A 
ATOM      9  C   LIG    1        2.108   1.696  -0.170  0.00  0.00    +0.410 A 
ATOM     10  C   LIG    1        0.861   2.334  -0.149  0.00  0.00    -0.230 A 
ATOM     11  O   LIG    1        3.136   2.363  -0.198  0.00  0.00    -0.550 OA
ATOM     12  C   LIG    1       -0.291   1.581  -0.117  0.00  0.00    +0.260 A 
ATOM     13  N   LIG    1       -1.637   1.910  -0.086  0.00  0.00    -0.500 N 
ATOM     14  H   LIG    1       -2.003   2.808  -0.084  0.00  0.00    +0.460 HD
ATOM     15  N   LIG    1       -2.376   0.721  -0.064  0.00  0.00    -0.440 N 
ATOM     16  H   LIG    1       -3.344   0.661  -0.042  0.00  0.00    +0.460 HD
ENDBRANCH   2   5
BRANCH   1  20
ATOM     17  C   LIG    1       -5.872  -6.286   0.074  0.00  0.00    +0.170 C 
ATOM     18  C   LIG    1       -4.755  -5.274   0.040  0.00  0.00    +0.030 A 
ATOM     19  C   LIG    1       -4.890  -3.928   0.038  0.00  0.00    +0.010 A 
ATOM     20  C   LIG    1       -3.571  -3.414  -0.002  0.00  0.00    -0.020 A 
ATOM     21  N   LIG    1       -2.752  -4.448  -0.010  0.00  0.00    -0.230 NA
ATOM     22  N   LIG    1       -3.424  -5.544   0.014  0.00  0.00    -0.230 N 
BRANCH  22  23
ATOM     23  C   LIG    1       -2.864  -6.828   0.012  0.00  0.00    +0.140 A 
ATOM     24  C   LIG    1       -3.286  -7.772   0.939  0.00  0.00    +0.040 A 
ATOM     25  C   LIG    1       -2.736  -9.039   0.931  0.00  0.00    +0.060 A 
ATOM     26  C   LIG    1       -1.759  -9.366   0.009  0.00  0.00    +0.060 A 
ATOM     27  C   LIG    1       -1.333  -8.427  -0.913  0.00  0.00    +0.070 A 
ATOM     28  C   LIG    1       -1.882  -7.159  -0.914  0.00  0.00    -0.080 A 
ATOM     29 BR   LIG    1       -1.298  -5.875  -2.174  0.00  0.00    -0.010 Br
ENDBRANCH  22  23
ENDBRANCH   1  20
TORSDOF 3
