REMARK  Name = ZINCpk00000y6z74.0
REMARK                            x       y       z     vdW  Elec       q    Type
REMARK                         _______ _______ _______ _____ _____    ______ ____
ROOT
ATOM      1  C   LIG    1       -5.495   7.649  -1.314  0.00  0.00    +0.260 C 
ATOM      2  C   LIG    1       -4.531   7.769  -0.122  0.00  0.00    +0.280 C 
ATOM      3  N   LIG    1       -3.758   6.521  -0.030  0.00  0.00    -0.600 N 
ATOM      4  C   LIG    1       -4.496   5.248  -0.032  0.00  0.00    +0.280 C 
ATOM      5  C   LIG    1       -5.462   5.251  -1.222  0.00  0.00    +0.220 C 
ATOM      6  C   LIG    1       -2.413   6.543   0.059  0.00  0.00    +0.610 C 
ATOM      7  O   LIG    1       -1.825   7.605   0.128  0.00  0.00    -0.530 OA
ATOM      8  O   LIG    1       -6.251   6.442  -1.186  0.00  0.00    -0.360 OA
ENDROOT
BRANCH   6   9
ATOM      9  C   LIG    1       -1.654   5.277   0.073  0.00  0.00    +0.010 A 
ATOM     10  C   LIG    1       -0.294   5.158   0.031  0.00  0.00    +0.190 A 
ATOM     11  N   LIG    1       -0.007   3.827   0.063  0.00  0.00    -0.360 N 
ATOM     12  C   LIG    1        1.174   3.140   0.044  0.00  0.00    +0.090 A 
ATOM     13  C   LIG    1        1.186   1.792   0.085  0.00  0.00    +0.020 A 
ATOM     14  C   LIG    1       -0.020   1.073   0.149  0.00  0.00    +0.060 A 
ATOM     15  C   LIG    1       -1.203   1.741   0.164  0.00  0.00    +0.070 A 
ATOM     16  C   LIG    1        2.476   3.896  -0.024  0.00  0.00    +0.130 C 
ATOM     17  C   LIG    1       -1.201   3.153   0.125  0.00  0.00    +0.240 A 
ATOM     18  N   LIG    1       -2.181   4.040   0.130  0.00  0.00    -0.470 NA
ENDBRANCH   6   9
BRANCH   1  23
ATOM     19  N   LIG    1       -6.376   9.891  -2.165  0.00  0.00    -0.470 N 
ATOM     20  C   LIG    1       -7.404  10.700  -1.814  0.00  0.00    +0.380 A 
ATOM     21  N   LIG    1       -8.018  10.135  -0.811  0.00  0.00    -0.300 NA
ATOM     22  N   LIG    1       -7.440   9.024  -0.519  0.00  0.00    -0.260 NA
ATOM     23  C   LIG    1       -6.430   8.830  -1.323  0.00  0.00    +0.170 A 
BRANCH  19  25
ATOM     24  C   LIG    1       -5.870   9.396  -4.506  0.00  0.00    +0.040 C 
ATOM     25  C   LIG    1       -5.404  10.115  -3.238  0.00  0.00    +0.310 C 
ENDBRANCH  19  25
ENDBRANCH   1  23
TORSDOF 3
