REMARK  Name = ZINCrg000000rNDz.0
REMARK                            x       y       z     vdW  Elec       q    Type
REMARK                         _______ _______ _______ _____ _____    ______ ____
ROOT
ATOM      1  N   LIG    1        3.666  -6.513   2.070  0.00  0.00    -0.730 N 
ATOM      2  H   LIG    1        3.014  -6.336   2.765  0.00  0.00    +0.410 HD
ATOM      3  C   LIG    1        3.903  -5.590   1.117  0.00  0.00    +0.520 C 
ATOM      4  O   LIG    1        4.719  -5.813   0.247  0.00  0.00    -0.530 OA
ENDROOT
BRANCH   1   5
ATOM      5  C   LIG    1        4.394  -7.785   2.056  0.00  0.00    +0.310 C 
BRANCH   5   6
ATOM      6  C   LIG    1        3.941  -8.645   3.237  0.00  0.00    -0.380 C 
BRANCH   6   7
ATOM      7  S   LIG    1        4.842 -10.219   3.220  0.00  0.00    +2.620 S 
ATOM      8  O   LIG    1        6.216 -10.010   3.516  0.00  0.00    -0.940 OA
ATOM      9  O   LIG    1        4.444 -11.009   2.108  0.00  0.00    -0.940 OA
BRANCH   7  13
ATOM     10  C   LIG    1        4.416 -10.636   8.293  0.00  0.00    +0.070 C 
ATOM     11  C   LIG    1        3.814 -10.589   6.887  0.00  0.00    +0.130 C 
ATOM     12  C   LIG    1        4.904 -10.913   5.853  0.00  0.00    +0.280 C 
ATOM     13  N   LIG    1        4.262 -11.042   4.535  0.00  0.00    -1.000 NA
ATOM     14  C   LIG    1        3.093 -11.928   4.418  0.00  0.00    +0.280 C 
ATOM     15  C   LIG    1        2.095 -11.558   5.522  0.00  0.00    +0.130 C 
ATOM     16  C   LIG    1        0.960 -12.584   5.549  0.00  0.00    +0.070 C 
ATOM     17  O   LIG    1        2.767 -11.556   6.783  0.00  0.00    -0.370 OA
ENDBRANCH   7  13
ENDBRANCH   6   7
ENDBRANCH   5   6
ENDBRANCH   1   5
BRANCH   3  18
ATOM     18  C   LIG    1        3.154  -4.283   1.131  0.00  0.00    +0.080 C 
BRANCH  18  19
ATOM     19  C   LIG    1        3.607  -3.423  -0.050  0.00  0.00    +0.170 C 
BRANCH  19  20
ATOM     20  C   LIG    1        2.858  -2.115  -0.036  0.00  0.00    +0.280 A 
ATOM     21  N   LIG    1        1.562  -1.998  -0.023  0.00  0.00    -0.490 NA
ATOM     22  C   LIG    1        1.223  -0.684  -0.013  0.00  0.00    +0.050 A 
ATOM     23  C   LIG    1        0.002  -0.004   0.002  0.00  0.00    +0.070 A 
ATOM     24  C   LIG    1       -0.017   1.362   0.009  0.00  0.00    +0.000 A 
ATOM     25  C   LIG    1        1.167   2.086   0.002  0.00  0.00    +0.030 A 
ATOM     26  C   LIG    1        2.383   1.437  -0.014  0.00  0.00    +0.010 A 
ATOM     27  C   LIG    1        2.422   0.049  -0.021  0.00  0.00    +0.050 A 
ATOM     28  N   LIG    1        3.439  -0.884  -0.035  0.00  0.00    -0.600 N 
ATOM     29  H   LIG    1        4.391  -0.698  -0.043  0.00  0.00    +0.420 HD
ENDBRANCH  19  20
ENDBRANCH  18  19
ENDBRANCH   3  18
TORSDOF 7
