REMARK  Name = ZINCpk00001AZiEH.0
REMARK                            x       y       z     vdW  Elec       q    Type
REMARK                         _______ _______ _______ _____ _____    ______ ____
ROOT
ATOM      1  O   LIG    1        6.943   1.518  -0.450  0.00  0.00    -0.520 OA
ATOM      2  C   LIG    1        6.032   1.827   0.293  0.00  0.00    +0.570 C 
ATOM      3  N   LIG    1        6.192   2.839   1.178  0.00  0.00    -0.720 N 
ATOM      4  H   LIG    1        7.003   3.372   1.161  0.00  0.00    +0.410 HD
ATOM      5  C   LIG    1        5.149   3.133   2.160  0.00  0.00    +0.290 C 
ATOM      6  C   LIG    1        3.979   3.860   1.506  0.00  0.00    +0.270 C 
ATOM      7  N   LIG    1        3.615   3.231   0.237  0.00  0.00    -0.570 N 
ATOM      8  C   LIG    1        3.556   1.838   0.171  0.00  0.00    +0.130 A 
ATOM      9  C   LIG    1        2.339   1.172   0.079  0.00  0.00    +0.160 A 
ATOM     10  C   LIG    1        2.313  -0.215   0.070  0.00  0.00    +0.060 A 
ATOM     11  C   LIG    1        3.491  -0.939   0.141  0.00  0.00    +0.050 A 
ATOM     12  C   LIG    1        4.707  -0.291   0.224  0.00  0.00    +0.060 A 
ATOM     13  C   LIG    1        3.342   3.982  -0.848  0.00  0.00    +0.550 C 
ATOM     14  O   LIG    1        3.041   3.448  -1.895  0.00  0.00    -0.500 OA
ATOM     15  C   LIG    1        4.751   1.102   0.232  0.00  0.00    -0.110 A 
ENDROOT
BRANCH   9  16
ATOM     16  N   LIG    1        1.143   1.898   0.001  0.00  0.00    -0.660 N 
ATOM     17  H   LIG    1        1.100   2.800   0.356  0.00  0.00    +0.410 HD
ATOM     18  C   LIG    1        0.054   1.345  -0.567  0.00  0.00    +0.550 C 
ATOM     19  O   LIG    1        0.134   0.258  -1.100  0.00  0.00    -0.510 OA
BRANCH  18  20
ATOM     20  C   LIG    1       -1.262   2.078  -0.545  0.00  0.00    -0.070 C 
ATOM     21  C   LIG    1       -2.384   1.490   0.313  0.00  0.00    +0.080 C 
ATOM     22  C   LIG    1       -2.460   1.399  -1.212  0.00  0.00    +0.210 C 
ATOM     23  F   LIG    1       -3.388   2.220  -1.863  0.00  0.00    -0.170 F 
ENDBRANCH  18  20
ENDBRANCH   9  16
BRANCH  13  24
ATOM     24  C   LIG    1        3.409   5.485  -0.761  0.00  0.00    -0.070 C 
ATOM     25  C   LIG    1        3.088   6.281  -2.027  0.00  0.00    +0.100 C 
ATOM     26  C   LIG    1        4.531   6.187  -1.528  0.00  0.00    +0.190 C 
ATOM     27  F   LIG    1        5.091   7.332  -0.950  0.00  0.00    -0.170 F 
ENDBRANCH  13  24
TORSDOF 3
