REMARK  Name = ZINCpk00000k1x70.1
REMARK                            x       y       z     vdW  Elec       q    Type
REMARK                         _______ _______ _______ _____ _____    ______ ____
ROOT
ATOM      1  C   LIG    1        2.733  -5.088  -2.500  0.00  0.00    +0.260 C 
ATOM      2  N   LIG    1        2.377  -4.171  -1.414  0.00  0.00    -1.130 NA
ATOM      3  S   LIG    1        3.055  -2.845  -1.304  0.00  0.00    +2.260 S 
ATOM      4  C   LIG    1        2.368  -1.986   0.147  0.00  0.00    -0.180 C 
ATOM      5  C   LIG    1        2.751  -0.504   0.051  0.00  0.00    +0.050 C 
ATOM      6  C   LIG    1        2.159   0.100  -1.221  0.00  0.00    +0.090 C 
ATOM      7  C   LIG    1        2.245   1.630  -1.140  0.00  0.00    +0.280 C 
ATOM      8  N   LIG    1        1.352   2.089  -0.065  0.00  0.00    -0.610 N 
ATOM      9  C   LIG    1       -0.037   1.602  -0.063  0.00  0.00    +0.270 C 
ATOM     10  C   LIG    1       -0.014   0.076  -0.202  0.00  0.00    +0.230 C 
ATOM     11  C   LIG    1        1.794   2.930   0.892  0.00  0.00    +0.580 C 
ATOM     12  O   LIG    1        1.019   3.369   1.720  0.00  0.00    -0.510 OA
ATOM     13  C   LIG    1        2.920  -0.382  -2.454  0.00  0.00    +0.090 C 
ATOM     14  O   LIG    1        0.785  -0.283  -1.332  0.00  0.00    -0.360 OA
ATOM     15  O   LIG    1        4.453  -3.085  -1.220  0.00  0.00    -0.950 OA
ATOM     16  C   LIG    1        2.563  -1.845  -2.744  0.00  0.00    -0.330 C 
ENDROOT
BRANCH  11  17
ATOM     17  C   LIG    1        3.216   3.317   0.934  0.00  0.00    -0.140 A 
ATOM     18  C   LIG    1        3.688   4.285   0.097  0.00  0.00    +0.270 A 
ATOM     19  N   LIG    1        5.002   4.649   0.131  0.00  0.00    -0.380 N 
ATOM     20  C   LIG    1        5.719   5.562  -0.576  0.00  0.00    +0.380 A 
ATOM     21  N   LIG    1        6.962   5.538  -0.171  0.00  0.00    -0.450 NA
ATOM     22  C   LIG    1        7.109   4.629   0.795  0.00  0.00    +0.170 A 
ATOM     23  C   LIG    1        5.878   4.045   1.010  0.00  0.00    -0.000 A 
ATOM     24  C   LIG    1        5.432   3.038   1.894  0.00  0.00    +0.100 A 
ATOM     25  C   LIG    1        4.128   2.668   1.879  0.00  0.00    +0.040 A 
ENDBRANCH  11  17
TORSDOF 1
