REMARK  Name = ZINCrg00000SjSyl.0
REMARK                            x       y       z     vdW  Elec       q    Type
REMARK                         _______ _______ _______ _____ _____    ______ ____
ROOT
ATOM      1  C   LIG    1       -1.216   1.751   0.017  0.00  0.00    -0.690 A 
ATOM      2  C   LIG    1       -1.236   3.134   0.030  0.00  0.00    +0.160 A 
ATOM      3  C   LIG    1       -0.052   3.850   0.023  0.00  0.00    +0.010 A 
ATOM      4  C   LIG    1        1.158   3.188   0.008  0.00  0.00    +0.110 A 
ATOM      5  C   LIG    1        1.186   1.792   0.000  0.00  0.00    -0.160 A 
ATOM      6  C   LIG    1       -0.013   1.076   0.008  0.00  0.00    +0.210 A 
ENDROOT
BRANCH   5   7
ATOM      7  C   LIG    1        2.478   1.075  -0.016  0.00  0.00    +0.550 C 
ATOM      8  N   LIG    1        3.633   1.769  -0.024  0.00  0.00    -0.620 N 
ATOM      9  H   LIG    1        3.616   2.739  -0.018  0.00  0.00    +0.430 HD
ATOM     10  O   LIG    1        2.499  -0.140  -0.024  0.00  0.00    -0.490 OA
BRANCH   8  11
ATOM     11  C   LIG    1        4.845   1.098  -0.039  0.00  0.00    +0.080 A 
ATOM     12  C   LIG    1        6.074   1.706  -0.053  0.00  0.00    -0.240 A 
ATOM     13  C   LIG    1        7.168   0.760  -0.064  0.00  0.00    +0.060 A 
ATOM     14  C   LIG    1        6.765  -0.503  -0.068  0.00  0.00    -0.110 A 
ATOM     15  S   LIG    1        5.013  -0.598  -0.051  0.00  0.00    +0.310 S 
BRANCH  12  16
ATOM     16  C   LIG    1        6.259   3.161  -0.054  0.00  0.00    +0.600 C 
ATOM     17  O   LIG    1        5.290   3.897  -0.042  0.00  0.00    -0.570 OA
ATOM     18  N   LIG    1        7.502   3.682  -0.068  0.00  0.00    -0.840 N 
ATOM     19  H   LIG    1        7.624   4.644  -0.068  0.00  0.00    +0.410 HD
ATOM     20  H   LIG    1        8.274   3.095  -0.078  0.00  0.00    +0.400 HD
ENDBRANCH  12  16
ENDBRANCH   8  11
ENDBRANCH   5   7
BRANCH   1  21
ATOM     21  S   LIG    1       -2.730   0.849   0.019  0.00  0.00    +2.690 S 
ATOM     22  O   LIG    1       -2.437  -0.426  -0.534  0.00  0.00    -0.940 OA
ATOM     23  O   LIG    1       -3.716   1.721  -0.516  0.00  0.00    -0.950 OA
BRANCH  21  28
ATOM     24  C   LIG    1       -2.465   0.958   5.726  0.00  0.00    +0.190 C 
ATOM     25  N   LIG    1       -2.978   0.664   4.382  0.00  0.00    -0.540 NA
ATOM     26  C   LIG    1       -3.280   1.902   3.651  0.00  0.00    +0.170 C 
ATOM     27  C   LIG    1       -3.978   1.555   2.332  0.00  0.00    +0.300 C 
ATOM     28  N   LIG    1       -3.144   0.589   1.601  0.00  0.00    -1.000 NA
ATOM     29  C   LIG    1       -2.692  -0.617   2.311  0.00  0.00    +0.310 C 
ATOM     30  C   LIG    1       -2.039  -0.181   3.633  0.00  0.00    +0.170 C 
ENDBRANCH  21  28
ENDBRANCH   1  21
TORSDOF 5
