REMARK  Name = ZINCqH0000050g2X.0
REMARK                            x       y       z     vdW  Elec       q    Type
REMARK                         _______ _______ _______ _____ _____    ______ ____
ROOT
ATOM      1  C   LIG    1       -4.742   4.246   8.245  0.00  0.00    +0.160 C 
ATOM      2  C   LIG    1       -4.219   3.525   7.029  0.00  0.00    +0.200 A 
ATOM      3  C   LIG    1       -3.201   4.076   6.274  0.00  0.00    -0.040 A 
ATOM      4  C   LIG    1       -2.750   3.377   5.152  0.00  0.00    +0.120 A 
ATOM      5  N   LIG    1       -3.305   2.206   4.856  0.00  0.00    -0.460 NA
ATOM      6  C   LIG    1       -4.276   1.710   5.609  0.00  0.00    +0.380 A 
ATOM      7  N   LIG    1       -4.727   2.354   6.676  0.00  0.00    -0.510 NA
ENDROOT
BRANCH   6   8
ATOM      8  C   LIG    1       -4.872   0.400   5.249  0.00  0.00    -0.010 A 
ATOM      9  C   LIG    1       -5.894  -0.160   6.021  0.00  0.00    +0.020 A 
ATOM     10  C   LIG    1       -6.425  -1.379   5.647  0.00  0.00    +0.250 A 
ATOM     11  N   LIG    1       -5.973  -2.017   4.585  0.00  0.00    -0.470 NA
ATOM     12  C   LIG    1       -5.007  -1.526   3.833  0.00  0.00    +0.250 A 
ATOM     13  C   LIG    1       -4.424  -0.310   4.132  0.00  0.00    +0.050 A 
ENDBRANCH   6   8
BRANCH   4  14
ATOM     14  S   LIG    1       -1.459   4.034   4.149  0.00  0.00    +0.250 S 
BRANCH  14  15
ATOM     15  C   LIG    1       -1.327   2.755   2.944  0.00  0.00    +0.090 A 
ATOM     16  N   LIG    1       -2.040   1.656   2.895  0.00  0.00    -0.210 NA
ATOM     17  N   LIG    1       -1.672   0.954   1.882  0.00  0.00    -0.260 NA
ATOM     18  C   LIG    1       -0.718   1.572   1.248  0.00  0.00    +0.180 A 
ATOM     19  O   LIG    1       -0.471   2.722   1.905  0.00  0.00    -0.210 OA
BRANCH  18  20
ATOM     20  C   LIG    1       -0.013   1.086   0.008  0.00  0.00    +0.310 C 
BRANCH  20  21
ATOM     21  C   LIG    1       -0.742   1.585  -1.213  0.00  0.00    +0.060 A 
ATOM     22  C   LIG    1       -0.140   2.287  -2.177  0.00  0.00    -0.070 A 
ATOM     23  S   LIG    1       -1.345   2.666  -3.405  0.00  0.00    +0.140 S 
ATOM     24  C   LIG    1       -2.539   1.842  -2.500  0.00  0.00    +0.060 A 
ATOM     25  C   LIG    1       -3.982   1.695  -2.907  0.00  0.00    +0.180 C 
ATOM     26  N   LIG    1       -2.023   1.360  -1.420  0.00  0.00    -0.460 NA
ENDBRANCH  20  21
ENDBRANCH  18  20
ENDBRANCH  14  15
ENDBRANCH   4  14
TORSDOF 5
