REMARK  Name = ZINCAx0000000ejj.0
REMARK                            x       y       z     vdW  Elec       q    Type
REMARK                         _______ _______ _______ _____ _____    ______ ____
ROOT
ATOM      1  C   LIG    1        0.002  -0.004   0.002  0.00  0.00    -0.030 C 
ATOM      2  C   LIG    1       -0.016   1.308   0.009  0.00  0.00    -0.050 C 
ATOM      3  C   LIG    1        1.228   2.153   0.002  0.00  0.00    +0.320 C 
ATOM      4  N   LIG    1        2.395   1.296   0.252  0.00  0.00    -0.610 N 
ATOM      5  C   LIG    1        2.449   0.004  -0.454  0.00  0.00    +0.300 C 
ATOM      6  C   LIG    1        3.377   1.676   1.094  0.00  0.00    +0.510 C 
ATOM      7  O   LIG    1        4.329   0.949   1.283  0.00  0.00    -0.530 OA
ATOM      8  C   LIG    1        1.252  -0.834   0.003  0.00  0.00    +0.070 C 
ENDROOT
BRANCH   1  12
ATOM      9  C   LIG    1       -3.733  -2.041  -0.027  0.00  0.00    +0.210 A 
ATOM     10  C   LIG    1       -3.121  -1.703  -1.226  0.00  0.00    -0.140 A 
ATOM     11  C   LIG    1       -1.906  -1.040  -1.224  0.00  0.00    +0.220 A 
ATOM     12  C   LIG    1       -1.294  -0.711  -0.008  0.00  0.00    -0.170 A 
ATOM     13  C   LIG    1       -1.914  -1.059   1.198  0.00  0.00    +0.220 A 
ATOM     14  C   LIG    1       -3.132  -1.716   1.181  0.00  0.00    -0.190 A 
BRANCH   9  16
ATOM     15  C   LIG    1       -5.501  -3.009   1.233  0.00  0.00    +0.250 C 
ATOM     16  O   LIG    1       -4.925  -2.691  -0.036  0.00  0.00    -0.310 OA
ENDBRANCH   9  16
BRANCH  13  17
ATOM     17  O   LIG    1       -1.325  -0.747   2.381  0.00  0.00    -0.300 OA
ATOM     18  C   LIG    1       -2.015  -1.134   3.571  0.00  0.00    +0.250 C 
ENDBRANCH  13  17
BRANCH  11  19
ATOM     19  O   LIG    1       -1.308  -0.711  -2.398  0.00  0.00    -0.300 OA
ATOM     20  C   LIG    1       -1.990  -1.079  -3.599  0.00  0.00    +0.240 C 
ENDBRANCH  11  19
ENDBRANCH   1  12
BRANCH   6  21
ATOM     21  C   LIG    1        3.291   3.004   1.800  0.00  0.00    +0.360 C 
BRANCH  21  22
ATOM     22  N   LIG    1        4.470   3.181   2.651  0.00  0.00    -0.560 N 
ATOM     23  C   LIG    1        5.611   3.755   2.248  0.00  0.00    +0.710 C 
ATOM     24  N   LIG    1        6.540   3.794   3.224  0.00  0.00    -0.710 N 
ATOM     25  H   LIG    1        7.436   4.162   3.162  0.00  0.00    +0.440 HD
ATOM     26  C   LIG    1        5.926   3.172   4.397  0.00  0.00    +0.170 C 
ATOM     27  C   LIG    1        6.720   1.944   4.861  0.00  0.00    +0.080 C 
ATOM     28  C   LIG    1        6.499   1.972   6.390  0.00  0.00    +0.100 C 
ATOM     29  C   LIG    1        6.215   3.422   6.724  0.00  0.00    -0.070 A 
ATOM     30  C   LIG    1        6.245   4.084   7.939  0.00  0.00    +0.020 A 
ATOM     31  C   LIG    1        5.941   5.430   8.007  0.00  0.00    +0.030 A 
ATOM     32  C   LIG    1        5.606   6.119   6.857  0.00  0.00    +0.010 A 
ATOM     33  C   LIG    1        5.577   5.461   5.643  0.00  0.00    +0.040 A 
ATOM     34  C   LIG    1        5.881   4.112   5.571  0.00  0.00    -0.120 A 
ATOM     35  O   LIG    1        5.789   4.191   1.127  0.00  0.00    -0.530 OA
ATOM     36  C   LIG    1        4.541   2.792   3.943  0.00  0.00    +0.550 C 
ATOM     37  O   LIG    1        3.675   2.250   4.596  0.00  0.00    -0.450 OA
ENDBRANCH  21  22
ENDBRANCH   6  21
TORSDOF 6
