REMARK  Name = ZINCqH0000032Dlt.0
REMARK                            x       y       z     vdW  Elec       q    Type
REMARK                         _______ _______ _______ _____ _____    ______ ____
ROOT
ATOM      1  C   LIG    1       -0.014   1.212   0.009  0.00  0.00    +0.550 C 
ATOM      2  N   LIG    1       -1.191   1.870   0.018  0.00  0.00    -0.660 N 
ATOM      3  H   LIG    1       -1.204   2.840   0.023  0.00  0.00    +0.410 HD
ATOM      4  O   LIG    1        0.002  -0.004   0.002  0.00  0.00    -0.440 OA
ENDROOT
BRANCH   1  10
ATOM      5  C   LIG    1        5.866   1.413   1.007  0.00  0.00    +0.060 C 
ATOM      6  C   LIG    1        4.803   1.025  -0.023  0.00  0.00    -0.050 C 
ATOM      7  C   LIG    1        4.090  -0.286   0.385  0.00  0.00    +0.240 C 
ATOM      8  O   LIG    1        2.735  -0.054  -0.034  0.00  0.00    -0.270 OA
ATOM      9  C   LIG    1        2.481   1.281  -0.015  0.00  0.00    +0.180 A 
ATOM     10  C   LIG    1        1.253   1.966   0.001  0.00  0.00    -0.160 A 
ATOM     11  C   LIG    1        1.235   3.362   0.003  0.00  0.00    +0.080 A 
ATOM     12  C   LIG    1        2.417   4.069  -0.002  0.00  0.00    -0.010 A 
ATOM     13  C   LIG    1        3.628   3.395  -0.016  0.00  0.00    +0.100 A 
ATOM     14  C   LIG    1        5.418   0.902  -1.419  0.00  0.00    +0.050 C 
ATOM     15  C   LIG    1        3.658   2.019  -0.019  0.00  0.00    -0.170 A 
ENDBRANCH   1  10
BRANCH   2  16
ATOM     16  C   LIG    1       -2.383   1.159   0.020  0.00  0.00    +0.420 A 
ATOM     17  N   LIG    1       -2.363  -0.160   0.012  0.00  0.00    -0.480 NA
ATOM     18  C   LIG    1       -3.471  -0.892   0.017  0.00  0.00    +0.210 A 
ATOM     19  C   LIG    1       -4.708  -0.285   0.032  0.00  0.00    -0.160 A 
ATOM     20  C   LIG    1       -5.997  -1.063   0.047  0.00  0.00    +0.090 C 
ATOM     21  C   LIG    1       -5.758  -2.508  -0.387  0.00  0.00    +0.020 C 
ATOM     22  C   LIG    1       -4.601  -3.076   0.442  0.00  0.00    +0.030 C 
ATOM     23  C   LIG    1       -4.790   1.102   0.036  0.00  0.00    +0.150 A 
ATOM     24  C   LIG    1       -3.309  -2.391  -0.000  0.00  0.00    +0.110 C 
ATOM     25  C   LIG    1       -3.608   1.847   0.035  0.00  0.00    -0.130 A 
BRANCH  25  26
ATOM     26  C   LIG    1       -3.645   3.279   0.045  0.00  0.00    +0.250 C 
ATOM     27  N   LIG    1       -3.674   4.414   0.053  0.00  0.00    -0.400 NA
ENDBRANCH  25  26
ENDBRANCH   2  16
TORSDOF 3
