REMARK  Name = ZINCqH00000029XC.0
REMARK                            x       y       z     vdW  Elec       q    Type
REMARK                         _______ _______ _______ _____ _____    ______ ____
ROOT
ATOM      1  C   LIG    1       -0.918  -1.735   1.449  0.00  0.00    +0.530 C 
ATOM      2  N   LIG    1       -1.041  -0.511   0.897  0.00  0.00    -0.730 N 
ATOM      3  H   LIG    1       -1.819   0.033   1.093  0.00  0.00    +0.400 HD
ATOM      4  O   LIG    1        0.055  -2.416   1.205  0.00  0.00    -0.520 OA
ENDROOT
BRANCH   1  10
ATOM      5  C   LIG    1       -4.145  -1.203   4.961  0.00  0.00    +0.510 C 
ATOM      6  N   LIG    1       -3.084  -1.911   4.524  0.00  0.00    -0.610 N 
ATOM      7  C   LIG    1       -2.861  -3.288   4.987  0.00  0.00    +0.260 C 
ATOM      8  C   LIG    1       -2.714  -4.201   3.766  0.00  0.00    +0.010 C 
ATOM      9  C   LIG    1       -1.610  -3.657   2.856  0.00  0.00    +0.050 C 
ATOM     10  C   LIG    1       -1.991  -2.257   2.370  0.00  0.00    -0.020 C 
ATOM     11  C   LIG    1       -2.130  -1.321   3.575  0.00  0.00    +0.290 C 
ATOM     12  O   LIG    1       -4.318  -0.068   4.571  0.00  0.00    -0.540 OA
BRANCH   5  14
ATOM     13  C   LIG    1       -6.217  -0.814   6.266  0.00  0.00    +0.040 C 
ATOM     14  C   LIG    1       -5.115  -1.822   5.934  0.00  0.00    +0.040 C 
ENDBRANCH   5  14
ENDBRANCH   1  10
BRANCH   2  15
ATOM     15  C   LIG    1        0.002  -0.004   0.002  0.00  0.00    +0.380 C 
BRANCH  15  16
ATOM     16  C   LIG    1       -0.018   1.503   0.010  0.00  0.00    -0.110 A 
ATOM     17  C   LIG    1       -1.225   2.177   0.020  0.00  0.00    +0.050 A 
ATOM     18  C   LIG    1       -1.245   3.559   0.033  0.00  0.00    -0.010 A 
ATOM     19  C   LIG    1       -0.056   4.268   0.025  0.00  0.00    +0.110 A 
ATOM     20  C   LIG    1        1.152   3.591   0.010  0.00  0.00    -0.010 A 
ATOM     21  F   LIG    1       -0.074   5.619   0.032  0.00  0.00    -0.140 F 
ATOM     22  C   LIG    1        1.170   2.210   0.003  0.00  0.00    +0.070 A 
ENDBRANCH  15  16
BRANCH  15  23
ATOM     23  C   LIG    1       -0.251  -0.502  -1.398  0.00  0.00    -0.190 A 
ATOM     24  C   LIG    1        0.689  -0.920  -2.247  0.00  0.00    +0.020 A 
ATOM     25  C   LIG    1        0.217  -1.333  -3.481  0.00  0.00    +0.010 A 
ATOM     26  C   LIG    1       -1.105  -1.252  -3.634  0.00  0.00    -0.050 A 
ATOM     27  S   LIG    1       -1.832  -0.629  -2.158  0.00  0.00    +0.110 S 
ENDBRANCH  15  23
ENDBRANCH   2  15
TORSDOF 5
