REMARK  Name = ZINCrg000000rE3h.0
REMARK                            x       y       z     vdW  Elec       q    Type
REMARK                         _______ _______ _______ _____ _____    ______ ____
ROOT
ATOM      1  C   LIG    1       -0.328  -0.447  -5.241  0.00  0.00    +0.020 C 
ATOM      2  C   LIG    1        0.162   0.960  -4.895  0.00  0.00    +0.260 C 
ENDROOT
BRANCH   2   3
ATOM      3  N   LIG    1       -0.524   1.433  -3.689  0.00  0.00    -0.720 N 
ATOM      4  H   LIG    1       -1.321   1.980  -3.768  0.00  0.00    +0.400 HD
ATOM      5  C   LIG    1       -0.047   1.107  -2.471  0.00  0.00    +0.520 C 
ATOM      6  O   LIG    1        0.949   0.422  -2.373  0.00  0.00    -0.530 OA
BRANCH   5   7
ATOM      7  C   LIG    1       -0.753   1.593  -1.232  0.00  0.00    +0.050 C 
BRANCH   7   8
ATOM      8  C   LIG    1       -0.013   1.086   0.008  0.00  0.00    +0.370 C 
BRANCH   8   9
ATOM      9  N   LIG    1       -0.698   1.558   1.213  0.00  0.00    -0.350 N 
ATOM     10  C   LIG    1       -1.151   0.786   2.223  0.00  0.00    +0.370 A 
ATOM     11  C   LIG    1       -1.721   1.601   3.142  0.00  0.00    -0.190 A 
ATOM     12  C   LIG    1       -1.612   2.916   2.677  0.00  0.00    +0.330 A 
ATOM     13  N   LIG    1       -0.994   2.892   1.524  0.00  0.00    -0.270 NA
BRANCH  11  14
ATOM     14  N   LIG    1       -2.348   1.175   4.413  0.00  0.00    +0.070 N 
ATOM     15  O   LIG    1       -2.830   2.006   5.162  0.00  0.00    -0.160 OA
ATOM     16  O   LIG    1       -2.383  -0.005   4.710  0.00  0.00    -0.170 OA
ENDBRANCH  11  14
ENDBRANCH   8   9
ENDBRANCH   7   8
ENDBRANCH   5   7
ENDBRANCH   2   3
BRANCH   2  17
ATOM     17  C   LIG    1       -0.141   1.907  -6.058  0.00  0.00    -0.010 C 
ATOM     18  C   LIG    1        0.348   3.314  -5.711  0.00  0.00    +0.050 C 
BRANCH  17  19
ATOM     19  C   LIG    1        0.564   1.421  -7.298  0.00  0.00    +0.510 C 
ATOM     20  N   LIG    1        0.441   2.102  -8.454  0.00  0.00    -0.660 N 
ATOM     21  H   LIG    1       -0.101   2.905  -8.488  0.00  0.00    +0.420 HD
ATOM     22  O   LIG    1        1.242   0.416  -7.255  0.00  0.00    -0.460 OA
BRANCH  20  23
ATOM     23  C   LIG    1        1.094   1.652  -9.602  0.00  0.00    +0.340 A 
ATOM     24  N   LIG    1        1.833   0.556  -9.550  0.00  0.00    -0.460 NA
ATOM     25  C   LIG    1        2.467   0.096 -10.612  0.00  0.00    +0.290 A 
ATOM     26  C   LIG    1        2.382   0.746 -11.827  0.00  0.00    -0.050 A 
ATOM     27  C   LIG    1        1.618   1.900 -11.929  0.00  0.00    +0.080 A 
ATOM     28  C   LIG    1        0.959   2.359 -10.797  0.00  0.00    +0.020 A 
BRANCH  28  29
ATOM     29  O   LIG    1        0.195   3.482 -10.852  0.00  0.00    -0.490 OA
ATOM     30  H   LIG    1        0.679   4.297 -10.658  0.00  0.00    +0.390 HD
ENDBRANCH  28  29
ENDBRANCH  20  23
ENDBRANCH  17  19
ENDBRANCH   2  17
TORSDOF 9
