REMARK  Name = ZINCrD0000072uPb.0
REMARK                            x       y       z     vdW  Elec       q    Type
REMARK                         _______ _______ _______ _____ _____    ______ ____
ROOT
ATOM      1  C   LIG    1        4.374   1.463  -0.029  0.00  0.00    -0.060 A 
ATOM      2  C   LIG    1        3.969   0.170  -0.128  0.00  0.00    +0.230 A 
ATOM      3  N   LIG    1        2.640  -0.147  -0.067  0.00  0.00    -0.390 N 
ATOM      4  C   LIG    1        1.693   0.839   0.095  0.00  0.00    +0.210 A 
ATOM      5  C   LIG    1        2.100   2.188   0.200  0.00  0.00    +0.100 A 
ATOM      6  N   LIG    1        0.498   0.275   0.122  0.00  0.00    -0.440 NA
ATOM      7  C   LIG    1        0.631  -1.058  -0.018  0.00  0.00    +0.010 A 
ATOM      8  C   LIG    1        1.976  -1.341  -0.139  0.00  0.00    +0.300 A 
ATOM      9  C   LIG    1        3.420   2.496   0.139  0.00  0.00    +0.040 A 
ENDROOT
BRANCH   1  14
ATOM     10  C   LIG    1        7.670   2.856  -1.213  0.00  0.00    -0.130 A 
ATOM     11  C   LIG    1        8.527   2.405  -0.207  0.00  0.00    +0.050 A 
ATOM     12  C   LIG    1        8.030   1.656   0.841  0.00  0.00    +0.010 A 
ATOM     13  C   LIG    1        6.684   1.353   0.904  0.00  0.00    +0.050 A 
ATOM     14  C   LIG    1        5.819   1.794  -0.097  0.00  0.00    -0.050 A 
ATOM     15  C   LIG    1        6.312   2.549  -1.156  0.00  0.00    +0.100 A 
BRANCH  10  18
ATOM     16  C   LIG    1        9.601   5.457  -3.200  0.00  0.00    +0.290 C 
ATOM     17  N   LIG    1        9.150   4.590  -2.108  0.00  0.00    -0.620 N 
ATOM     18  C   LIG    1        8.203   3.658  -2.335  0.00  0.00    +0.560 C 
ATOM     19  O   LIG    1        7.786   3.477  -3.463  0.00  0.00    -0.530 OA
ATOM     20  C   LIG    1        9.728   4.736  -0.770  0.00  0.00    +0.290 C 
ENDBRANCH  10  18
ENDBRANCH   1  14
BRANCH   7  21
ATOM     21  C   LIG    1       -0.471  -2.045  -0.038  0.00  0.00    +0.220 A 
ATOM     22  C   LIG    1       -1.680  -1.745   0.591  0.00  0.00    +0.000 A 
ATOM     23  C   LIG    1       -2.701  -2.678   0.563  0.00  0.00    +0.070 A 
ATOM     24  C   LIG    1       -2.481  -3.882  -0.093  0.00  0.00    -0.040 A 
ATOM     25  C   LIG    1       -1.259  -4.114  -0.695  0.00  0.00    +0.270 A 
ATOM     26  N   LIG    1       -0.304  -3.207  -0.660  0.00  0.00    -0.490 NA
ENDBRANCH   7  21
BRANCH   8  27
ATOM     27  N   LIG    1        2.548  -2.600  -0.302  0.00  0.00    -0.840 N 
ATOM     28  H   LIG    1        3.511  -2.690  -0.377  0.00  0.00    +0.400 HD
ATOM     29  H   LIG    1        1.984  -3.388  -0.341  0.00  0.00    +0.430 HD
ENDBRANCH   8  27
TORSDOF 4
