REMARK  Name = ZINCtV00000L6kt2.0
REMARK                            x       y       z     vdW  Elec       q    Type
REMARK                         _______ _______ _______ _____ _____    ______ ____
ROOT
ATOM      1  C   LIG    1       -4.813   5.426   0.072  0.00  0.00    +0.180 A 
ATOM      2  C   LIG    1       -6.112   5.992   0.086  0.00  0.00    -0.150 A 
ATOM      3  C   LIG    1       -6.533   7.387   0.097  0.00  0.00    -0.030 A 
ATOM      4  C   LIG    1       -7.854   7.563   0.110  0.00  0.00    +0.000 A 
ATOM      5  S   LIG    1       -8.701   6.028   0.110  0.00  0.00    +0.190 S 
ATOM      6  C   LIG    1       -7.199   5.116   0.091  0.00  0.00    +0.100 A 
ATOM      7  N   LIG    1       -6.971   3.796   0.083  0.00  0.00    -0.490 NA
ATOM      8  C   LIG    1       -5.747   3.320   0.069  0.00  0.00    +0.530 A 
ATOM      9  N   LIG    1       -4.687   4.107   0.059  0.00  0.00    -0.460 NA
ENDROOT
BRANCH   3  10
ATOM     10  C   LIG    1       -5.573   8.516   0.094  0.00  0.00    -0.040 A 
ATOM     11  C   LIG    1       -4.524   8.544   1.012  0.00  0.00    +0.030 A 
ATOM     12  C   LIG    1       -3.629   9.595   1.000  0.00  0.00    +0.020 A 
ATOM     13  C   LIG    1       -3.779  10.624   0.088  0.00  0.00    -0.080 A 
ATOM     14  C   LIG    1       -4.821  10.604  -0.822  0.00  0.00    +0.020 A 
ATOM     15  C   LIG    1       -2.802  11.772   0.085  0.00  0.00    +0.090 C 
ATOM     16  C   LIG    1       -5.718   9.556  -0.823  0.00  0.00    +0.040 A 
ENDBRANCH   3  10
BRANCH   1  17
ATOM     17  S   LIG    1       -3.387   6.461   0.064  0.00  0.00    +0.220 S 
BRANCH  17  23
ATOM     18  C   LIG    1        1.186   1.782   0.000  0.00  0.00    +0.160 A 
ATOM     19  C   LIG    1       -0.013   1.076   0.008  0.00  0.00    -0.050 A 
ATOM     20  C   LIG    1       -1.213   1.740   0.017  0.00  0.00    +0.130 A 
ATOM     21  C   LIG    1       -1.252   3.150   0.029  0.00  0.00    +0.040 A 
ATOM     22  N   LIG    1       -2.327   3.964   0.043  0.00  0.00    -0.380 NA
ATOM     23  C   LIG    1       -2.120   5.236   0.046  0.00  0.00    +0.020 A 
ATOM     24  S   LIG    1       -0.396   5.576   0.033  0.00  0.00    +0.090 S 
ATOM     25  C   LIG    1       -0.041   3.850   0.022  0.00  0.00    -0.130 A 
ATOM     26  C   LIG    1        1.171   3.164   0.007  0.00  0.00    +0.020 A 
BRANCH  18  27
ATOM     27  O   LIG    1        2.370   1.114  -0.015  0.00  0.00    -0.310 OA
BRANCH  27  29
ATOM     28  C   LIG    1        3.729  -0.884  -0.038  0.00  0.00    +0.070 C 
ATOM     29  C   LIG    1        2.310  -0.314  -0.022  0.00  0.00    +0.190 C 
ENDBRANCH  27  29
ENDBRANCH  18  27
ENDBRANCH  17  23
ENDBRANCH   1  17
TORSDOF 5
