REMARK  Name = ZINCvU00000005bQ.0
REMARK                            x       y       z     vdW  Elec       q    Type
REMARK                         _______ _______ _______ _____ _____    ______ ____
ROOT
ATOM      1  C   LIG    1        3.518   0.372   1.191  0.00  0.00    -0.050 A 
ATOM      2  C   LIG    1        2.194   0.590   0.839  0.00  0.00    -0.080 A 
ATOM      3  C   LIG    1        1.443   1.879   0.613  0.00  0.00    +0.100 C 
ATOM      4  C   LIG    1        0.008   1.480   0.244  0.00  0.00    +0.100 C 
ATOM      5  C   LIG    1       -0.013  -0.028   0.272  0.00  0.00    -0.100 C 
ATOM      6  C   LIG    1       -1.081  -0.809   0.008  0.00  0.00    +0.140 C 
ATOM      7  C   LIG    1        1.333  -0.503   0.637  0.00  0.00    +0.180 A 
ATOM      8  N   LIG    1        1.766  -1.753   0.778  0.00  0.00    -0.440 NA
ATOM      9  C   LIG    1        3.019  -2.051   1.114  0.00  0.00    +0.140 A 
ATOM     10  C   LIG    1        3.435  -3.389   1.253  0.00  0.00    +0.060 A 
ATOM     11  C   LIG    1        4.723  -3.663   1.599  0.00  0.00    +0.040 A 
ATOM     12  C   LIG    1        5.642  -2.640   1.818  0.00  0.00    +0.030 A 
ATOM     13  C   LIG    1        5.274  -1.332   1.692  0.00  0.00    +0.020 A 
ATOM     14  C   LIG    1        3.960  -1.015   1.339  0.00  0.00    -0.060 A 
ENDROOT
BRANCH   6  15
ATOM     15  C   LIG    1       -0.917  -2.258  -0.111  0.00  0.00    -0.180 A 
ATOM     16  C   LIG    1       -1.800  -3.194   0.346  0.00  0.00    +0.020 A 
ATOM     17  C   LIG    1       -1.421  -4.495   0.113  0.00  0.00    -0.010 A 
ATOM     18  C   LIG    1       -0.252  -4.644  -0.522  0.00  0.00    -0.080 A 
ATOM     19  S   LIG    1        0.446  -3.068  -0.874  0.00  0.00    +0.220 S 
ENDBRANCH   6  15
BRANCH   1  20
ATOM     20  C   LIG    1        4.448   1.500   1.411  0.00  0.00    +0.520 C 
ATOM     21  O   LIG    1        5.097   1.941   0.483  0.00  0.00    -0.480 OA
BRANCH  20  22
ATOM     22  O   LIG    1        4.575   2.039   2.639  0.00  0.00    -0.320 OA
BRANCH  22  23
ATOM     23  C   LIG    1        5.506   3.144   2.780  0.00  0.00    +0.260 C 
BRANCH  23  26
ATOM     24  N   LIG    1        6.310   4.637   4.581  0.00  0.00    -0.720 N 
ATOM     25  H   LIG    1        6.878   5.072   3.925  0.00  0.00    +0.400 HD
ATOM     26  C   LIG    1        5.515   3.614   4.212  0.00  0.00    +0.520 C 
ATOM     27  O   LIG    1        4.806   3.071   5.032  0.00  0.00    -0.510 OA
BRANCH  24  28
ATOM     28  C   LIG    1        6.319   5.094   5.973  0.00  0.00    +0.230 C 
ATOM     29  C   LIG    1        7.292   4.237   6.785  0.00  0.00    +0.020 C 
BRANCH  28  30
ATOM     30  C   LIG    1        6.761   6.558   6.027  0.00  0.00    +0.020 C 
BRANCH  30  32
ATOM     31  C   LIG    1        6.163   8.894   5.375  0.00  0.00    +0.020 C 
ATOM     32  C   LIG    1        5.721   7.431   5.321  0.00  0.00    -0.010 C 
ENDBRANCH  30  32
ENDBRANCH  28  30
ENDBRANCH  24  28
ENDBRANCH  23  26
ENDBRANCH  22  23
ENDBRANCH  20  22
ENDBRANCH   1  20
TORSDOF 8
