REMARK  Name = ZINCvU0000000IZy.0
REMARK                            x       y       z     vdW  Elec       q    Type
REMARK                         _______ _______ _______ _____ _____    ______ ____
ROOT
ATOM      1  O   LIG    1        3.691   7.425   3.169  0.00  0.00    -0.520 OA
ATOM      2  C   LIG    1        3.337   8.047   2.190  0.00  0.00    +0.540 C 
ATOM      3  N   LIG    1        2.699   7.416   1.185  0.00  0.00    -0.600 N 
ATOM      4  C   LIG    1        2.264   8.156  -0.007  0.00  0.00    +0.270 C 
ATOM      5  C   LIG    1        2.822   7.458  -1.252  0.00  0.00    +0.030 C 
ATOM      6  C   LIG    1        2.402   5.986  -1.238  0.00  0.00    +0.040 C 
ATOM      7  C   LIG    1        2.982   5.300   0.002  0.00  0.00    +0.070 C 
ATOM      8  C   LIG    1        2.427   5.974   1.261  0.00  0.00    +0.320 C 
ENDROOT
BRANCH   7   9
ATOM      9  C   LIG    1        2.595   3.844  -0.002  0.00  0.00    +0.090 A 
ATOM     10  N   LIG    1        1.388   3.420   0.008  0.00  0.00    -0.460 NA
ATOM     11  C   LIG    1        1.189   2.088   0.002  0.00  0.00    +0.080 A 
ATOM     12  C   LIG    1       -0.016   1.358   0.009  0.00  0.00    +0.080 A 
ATOM     13  C   LIG    1        0.002  -0.004   0.002  0.00  0.00    +0.030 A 
ATOM     14  C   LIG    1        1.204  -0.698  -0.014  0.00  0.00    +0.040 A 
ATOM     15  C   LIG    1        2.397  -0.011  -0.021  0.00  0.00    +0.060 A 
ATOM     16  C   LIG    1        2.397   1.382  -0.013  0.00  0.00    -0.180 A 
ATOM     17  S   LIG    1        3.712   2.554  -0.020  0.00  0.00    +0.110 S 
ENDBRANCH   7   9
BRANCH   2  18
ATOM     18  C   LIG    1        3.610   9.526   2.098  0.00  0.00    +0.090 C 
BRANCH  18  19
ATOM     19  S   LIG    1        4.473  10.075   3.592  0.00  0.00    +0.160 S 
BRANCH  19  20
ATOM     20  C   LIG    1        4.660  11.788   3.225  0.00  0.00    +0.120 A 
ATOM     21  N   LIG    1        4.249  12.400   2.138  0.00  0.00    -0.290 NA
ATOM     22  N   LIG    1        4.553  13.648   2.208  0.00  0.00    -0.260 NA
ATOM     23  C   LIG    1        5.169  13.883   3.341  0.00  0.00    +0.210 A 
ATOM     24  O   LIG    1        5.245  12.712   4.011  0.00  0.00    -0.200 OA
BRANCH  23  25
ATOM     25  C   LIG    1        5.682  15.190   3.803  0.00  0.00    -0.010 A 
ATOM     26  C   LIG    1        5.528  16.325   3.004  0.00  0.00    +0.090 A 
ATOM     27  C   LIG    1        6.009  17.542   3.441  0.00  0.00    +0.050 A 
ATOM     28  C   LIG    1        6.641  17.641   4.668  0.00  0.00    +0.060 A 
ATOM     29  C   LIG    1        6.796  16.519   5.465  0.00  0.00    -0.040 A 
ATOM     30 CL   LIG    1        7.590  16.653   7.003  0.00  0.00    -0.050 Cl
ATOM     31  C   LIG    1        6.316  15.296   5.042  0.00  0.00    +0.060 A 
ENDBRANCH  23  25
ENDBRANCH  19  20
ENDBRANCH  18  19
ENDBRANCH   2  18
TORSDOF 5
