REMARK  Name = ZINCrH000004sfrW.0
REMARK                            x       y       z     vdW  Elec       q    Type
REMARK                         _______ _______ _______ _____ _____    ______ ____
ROOT
ATOM      1  N   LIG    1       -0.011   0.966   0.013  0.00  0.00    -0.720 N 
ATOM      2  H   LIG    1        0.002  -0.004   0.015  0.00  0.00    +0.410 HD
ATOM      3  C   LIG    1        1.147   1.655  -0.002  0.00  0.00    +0.710 C 
ATOM      4  N   LIG    1        2.323   0.998  -0.015  0.00  0.00    -0.680 N 
ATOM      5  H   LIG    1        2.338   0.030   0.054  0.00  0.00    +0.410 HD
ATOM      6  O   LIG    1        1.130   2.871  -0.004  0.00  0.00    -0.560 OA
ENDROOT
BRANCH   4   7
ATOM      7  C   LIG    1        3.524   1.712  -0.128  0.00  0.00    +0.200 A 
ATOM      8  C   LIG    1        3.649   2.958   0.469  0.00  0.00    +0.030 A 
ATOM      9  C   LIG    1        4.832   3.663   0.357  0.00  0.00    +0.030 A 
ATOM     10  C   LIG    1        5.897   3.124  -0.351  0.00  0.00    +0.030 A 
ATOM     11  C   LIG    1        5.773   1.875  -0.949  0.00  0.00    +0.150 A 
ATOM     12  F   LIG    1        6.809   1.350  -1.639  0.00  0.00    -0.120 F 
ATOM     13  C   LIG    1        4.590   1.169  -0.833  0.00  0.00    -0.040 A 
BRANCH  10  14
ATOM     14  N   LIG    1        7.097   3.839  -0.463  0.00  0.00    -0.500 N 
ATOM     15  C   LIG    1        7.723   4.026   0.853  0.00  0.00    +0.160 C 
ATOM     16  C   LIG    1        9.057   4.757   0.678  0.00  0.00    +0.220 C 
ATOM     17  O   LIG    1        8.831   5.998   0.005  0.00  0.00    -0.380 OA
ATOM     18  C   LIG    1        8.222   5.852  -1.281  0.00  0.00    +0.220 C 
ATOM     19  C   LIG    1        6.880   5.133  -1.126  0.00  0.00    +0.160 C 
ENDBRANCH  10  14
ENDBRANCH   4   7
BRANCH   1  20
ATOM     20  C   LIG    1       -1.290   1.681   0.021  0.00  0.00    +0.390 C 
BRANCH  20  25
ATOM     21  C   LIG    1       -5.361  -0.744   2.678  0.00  0.00    +0.150 C 
ATOM     22  C   LIG    1       -4.195  -0.302   1.831  0.00  0.00    -0.220 A 
ATOM     23  C   LIG    1       -3.505  -1.068   0.982  0.00  0.00    +0.210 A 
ATOM     24  N   LIG    1       -2.526  -0.446   0.356  0.00  0.00    -0.450 NA
ATOM     25  C   LIG    1       -2.352   0.803   0.631  0.00  0.00    +0.020 A 
ATOM     26  S   LIG    1       -3.498   1.316   1.792  0.00  0.00    +0.150 S 
ENDBRANCH  20  25
BRANCH  20  27
ATOM     27  C   LIG    1       -1.684   2.037  -1.414  0.00  0.00    -0.060 C 
ATOM     28  C   LIG    1       -0.845   1.440  -2.546  0.00  0.00    +0.020 C 
ATOM     29  C   LIG    1       -0.727   2.928  -2.209  0.00  0.00    +0.030 C 
ENDBRANCH  20  27
ENDBRANCH   1  20
TORSDOF 5
