REMARK  Name = ZINCrD000000AkXB.0
REMARK                            x       y       z     vdW  Elec       q    Type
REMARK                         _______ _______ _______ _____ _____    ______ ____
ROOT
ATOM      1  N   LIG    1        3.696   8.695   0.725  0.00  0.00    -0.560 N 
ATOM      2  C   LIG    1        3.490  10.018   0.765  0.00  0.00    +0.710 C 
ATOM      3  N   LIG    1        3.263  10.540  -0.458  0.00  0.00    -0.710 N 
ATOM      4  H   LIG    1        3.090  11.470  -0.671  0.00  0.00    +0.440 HD
ATOM      5  C   LIG    1        3.332   9.421  -1.398  0.00  0.00    +0.170 C 
ATOM      6  C   LIG    1        4.433   9.636  -2.444  0.00  0.00    +0.080 C 
ATOM      7  C   LIG    1        3.840   8.939  -3.689  0.00  0.00    +0.100 C 
ATOM      8  C   LIG    1        2.339   8.981  -3.491  0.00  0.00    -0.070 A 
ATOM      9  C   LIG    1        1.310   8.792  -4.397  0.00  0.00    +0.020 A 
ATOM     10  C   LIG    1       -0.006   8.879  -3.985  0.00  0.00    +0.030 A 
ATOM     11  C   LIG    1       -0.297   9.146  -2.660  0.00  0.00    +0.010 A 
ATOM     12  C   LIG    1        0.728   9.335  -1.754  0.00  0.00    +0.040 A 
ATOM     13  C   LIG    1        2.049   9.255  -2.165  0.00  0.00    -0.120 A 
ATOM     14  O   LIG    1        3.505  10.674   1.788  0.00  0.00    -0.530 OA
ATOM     15  C   LIG    1        3.625   8.219  -0.537  0.00  0.00    +0.550 C 
ATOM     16  O   LIG    1        3.766   7.071  -0.900  0.00  0.00    -0.450 OA
ENDROOT
BRANCH   1  17
ATOM     17  C   LIG    1        3.967   7.867   1.903  0.00  0.00    +0.360 C 
BRANCH  17  19
ATOM     18  O   LIG    1        6.212   8.396   1.404  0.00  0.00    -0.500 OA
ATOM     19  C   LIG    1        5.453   7.806   2.144  0.00  0.00    +0.510 C 
ATOM     20  N   LIG    1        5.939   7.096   3.182  0.00  0.00    -0.680 N 
ATOM     21  H   LIG    1        5.331   6.685   3.815  0.00  0.00    +0.420 HD
BRANCH  20  22
ATOM     22  C   LIG    1        7.323   6.953   3.345  0.00  0.00    +0.150 A 
ATOM     23  C   LIG    1        7.989   5.894   2.740  0.00  0.00    -0.020 A 
ATOM     24  C   LIG    1        9.355   5.758   2.899  0.00  0.00    +0.050 A 
ATOM     25  C   LIG    1       10.057   6.668   3.668  0.00  0.00    +0.060 A 
ATOM     26  C   LIG    1        9.397   7.720   4.276  0.00  0.00    +0.050 A 
ATOM     27 CL   LIG    1        7.107   4.748   1.779  0.00  0.00    -0.040 Cl
ATOM     28  C   LIG    1        8.031   7.865   4.117  0.00  0.00    -0.020 A 
ATOM     29 CL   LIG    1        7.203   9.185   4.881  0.00  0.00    -0.040 Cl
ENDBRANCH  20  22
ENDBRANCH  17  19
ENDBRANCH   1  17
TORSDOF 3
