REMARK  Name = ZINCpe00000VVGAq.0
REMARK                            x       y       z     vdW  Elec       q    Type
REMARK                         _______ _______ _______ _____ _____    ______ ____
ROOT
ATOM      1  O   LIG    1        3.538   1.841  -0.022  0.00  0.00    -0.490 OA
ATOM      2  C   LIG    1        2.453   1.290  -0.014  0.00  0.00    +0.570 A 
ATOM      3  N   LIG    1        2.360  -0.057  -0.021  0.00  0.00    -0.660 N 
ATOM      4  H   LIG    1        3.171  -0.590  -0.032  0.00  0.00    +0.430 HD
ATOM      5  C   LIG    1        1.168  -0.673  -0.013  0.00  0.00    +0.700 A 
ATOM      6  N   LIG    1        0.002  -0.004   0.002  0.00  0.00    -0.540 N 
ATOM      7  C   LIG    1       -0.017   1.383   0.010  0.00  0.00    +0.200 A 
ATOM      8  C   LIG    1       -1.207   2.093   0.030  0.00  0.00    -0.030 A 
ATOM      9  C   LIG    1       -1.181   3.474   0.033  0.00  0.00    +0.100 A 
ATOM     10  C   LIG    1        0.024   4.159   0.025  0.00  0.00    -0.010 A 
ATOM     11  C   LIG    1        1.219   3.469   0.009  0.00  0.00    +0.140 A 
ATOM     12  O   LIG    1        1.141  -1.889  -0.019  0.00  0.00    -0.540 OA
ATOM     13  C   LIG    1        1.207   2.076   0.002  0.00  0.00    -0.200 A 
ENDROOT
BRANCH   6  14
ATOM     14  C   LIG    1       -1.261  -0.747   0.010  0.00  0.00    +0.350 C 
BRANCH  14  15
ATOM     15  C   LIG    1       -1.714  -0.998  -1.430  0.00  0.00    +0.050 C 
BRANCH  15  16
ATOM     16  C   LIG    1       -3.013  -1.762  -1.422  0.00  0.00    +0.520 C 
ATOM     17  N   LIG    1       -3.604  -2.097  -2.586  0.00  0.00    -0.610 N 
ATOM     18  C   LIG    1       -2.987  -1.720  -3.867  0.00  0.00    +0.250 C 
ATOM     19  C   LIG    1       -4.070  -1.048  -4.722  0.00  0.00    +0.220 C 
ATOM     20  O   LIG    1       -5.181  -1.938  -4.828  0.00  0.00    -0.370 OA
ATOM     21  C   LIG    1       -5.852  -2.230  -3.602  0.00  0.00    +0.160 C 
ATOM     22  C   LIG    1       -6.816  -3.418  -3.874  0.00  0.00    +0.040 C 
ATOM     23  C   LIG    1       -5.886  -4.663  -3.886  0.00  0.00    +0.020 C 
ATOM     24  C   LIG    1       -4.641  -4.287  -3.061  0.00  0.00    +0.010 C 
ATOM     25  C   LIG    1       -4.859  -2.842  -2.585  0.00  0.00    +0.220 C 
ATOM     26  O   LIG    1       -3.526  -2.075  -0.369  0.00  0.00    -0.530 OA
ENDBRANCH  15  16
ENDBRANCH  14  15
ENDBRANCH   6  14
TORSDOF 3
