REMARK  Name = ZINCvU0000000CJ4.0
REMARK                            x       y       z     vdW  Elec       q    Type
REMARK                         _______ _______ _______ _____ _____    ______ ____
ROOT
ATOM      1  O   LIG    1        6.900   0.611   0.637  0.00  0.00    -0.490 OA
ATOM      2  C   LIG    1        5.722   0.747   0.380  0.00  0.00    +0.550 C 
ATOM      3  N   LIG    1        5.172   1.977   0.369  0.00  0.00    -0.480 N 
ATOM      4  N   LIG    1        3.816   2.274   0.192  0.00  0.00    -0.210 NA
ATOM      5  C   LIG    1        3.572   3.540   0.051  0.00  0.00    +0.130 C 
ATOM      6  C   LIG    1        2.348   4.248   0.044  0.00  0.00    -0.070 C 
ATOM      7  C   LIG    1        2.321   5.743   0.150  0.00  0.00    +0.090 C 
ATOM      8  C   LIG    1        3.687   6.395   0.095  0.00  0.00    +0.020 C 
ATOM      9  C   LIG    1        4.793   5.543   0.715  0.00  0.00    +0.040 C 
ATOM     10  C   LIG    1        1.187   3.568  -0.053  0.00  0.00    +0.080 C 
ATOM     11  C   LIG    1        4.914   4.254  -0.099  0.00  0.00    +0.010 C 
ATOM     12  C   LIG    1        5.894   3.259   0.544  0.00  0.00    +0.260 C 
ENDROOT
BRANCH  10  13
ATOM     13  C   LIG    1        1.201   2.132  -0.376  0.00  0.00    -0.060 A 
ATOM     14  C   LIG    1        0.393   1.243   0.340  0.00  0.00    +0.020 A 
ATOM     15  C   LIG    1        0.411  -0.101   0.032  0.00  0.00    +0.000 A 
ATOM     16  C   LIG    1        1.225  -0.571  -0.984  0.00  0.00    +0.010 A 
ATOM     17  C   LIG    1        2.028   0.302  -1.697  0.00  0.00    -0.020 A 
ATOM     18  C   LIG    1        2.022   1.649  -1.400  0.00  0.00    +0.050 A 
ENDBRANCH  10  13
BRANCH  12  19
ATOM     19  C   LIG    1        7.209   3.243  -0.192  0.00  0.00    -0.080 A 
ATOM     20  C   LIG    1        7.337   2.520  -1.363  0.00  0.00    +0.020 A 
ATOM     21  C   LIG    1        8.542   2.509  -2.041  0.00  0.00    +0.000 A 
ATOM     22  C   LIG    1        9.622   3.213  -1.542  0.00  0.00    +0.010 A 
ATOM     23  C   LIG    1        9.496   3.932  -0.368  0.00  0.00    +0.000 A 
ATOM     24  C   LIG    1        8.289   3.947   0.307  0.00  0.00    +0.020 A 
ENDBRANCH  12  19
BRANCH   2  25
ATOM     25  C   LIG    1        4.874  -0.460   0.072  0.00  0.00    +0.230 C 
BRANCH  25  26
ATOM     26  N   LIG    1        5.726  -1.655   0.011  0.00  0.00    -0.520 NA
ATOM     27  C   LIG    1        6.659  -1.579  -1.121  0.00  0.00    +0.170 C 
ATOM     28  C   LIG    1        7.625  -2.765  -1.068  0.00  0.00    +0.020 C 
ATOM     29  C   LIG    1        6.826  -4.070  -1.128  0.00  0.00    +0.000 C 
ATOM     30  C   LIG    1        5.828  -4.102   0.033  0.00  0.00    +0.020 C 
ATOM     31  C   LIG    1        4.915  -2.877  -0.051  0.00  0.00    +0.170 C 
ENDBRANCH  25  26
ENDBRANCH   2  25
TORSDOF 4
