REMARK  Name = ZINCvU0000000DOa.0
REMARK                            x       y       z     vdW  Elec       q    Type
REMARK                         _______ _______ _______ _____ _____    ______ ____
ROOT
ATOM      1  C   LIG    1       -0.119   6.313  -1.605  0.00  0.00    -0.520 A 
ATOM      2  C   LIG    1       -1.195   6.269  -2.427  0.00  0.00    +0.240 A 
ATOM      3  O   LIG    1       -0.751   6.519  -3.675  0.00  0.00    -0.210 OA
ATOM      4  C   LIG    1        0.581   6.711  -3.605  0.00  0.00    +0.250 A 
ATOM      5  N   LIG    1        0.958   6.591  -2.355  0.00  0.00    -0.390 NA
ENDROOT
BRANCH   2   6
ATOM      6  N   LIG    1       -2.510   6.014  -2.054  0.00  0.00    -0.420 N 
ATOM      7  C   LIG    1       -3.044   4.843  -2.768  0.00  0.00    +0.190 C 
ATOM      8  C   LIG    1       -4.326   4.391  -2.068  0.00  0.00    +0.100 C 
ATOM      9  C   LIG    1       -5.250   5.566  -1.877  0.00  0.00    -0.070 A 
ATOM     10  C   LIG    1       -6.584   5.319  -1.591  0.00  0.00    +0.000 A 
ATOM     11  C   LIG    1       -7.462   6.367  -1.401  0.00  0.00    +0.010 A 
ATOM     12  C   LIG    1       -7.009   7.670  -1.497  0.00  0.00    +0.010 A 
ATOM     13  C   LIG    1       -5.682   7.917  -1.784  0.00  0.00    +0.010 A 
ATOM     14  C   LIG    1       -4.798   6.865  -1.977  0.00  0.00    -0.080 A 
ATOM     15  C   LIG    1       -3.361   7.185  -2.292  0.00  0.00    +0.270 C 
ENDBRANCH   2   6
BRANCH   4  16
ATOM     16  C   LIG    1        1.468   7.013  -4.747  0.00  0.00    -0.020 A 
ATOM     17  C   LIG    1        0.941   7.115  -6.036  0.00  0.00    +0.070 A 
ATOM     18  C   LIG    1        1.774   7.401  -7.098  0.00  0.00    +0.030 A 
ATOM     19  C   LIG    1        3.132   7.577  -6.888  0.00  0.00    -0.010 A 
ATOM     20  C   LIG    1        3.661   7.472  -5.612  0.00  0.00    +0.040 A 
ATOM     21 CL   LIG    1        4.175   7.931  -8.230  0.00  0.00    -0.060 Cl
ATOM     22  C   LIG    1        2.838   7.191  -4.542  0.00  0.00    +0.100 A 
ENDBRANCH   4  16
BRANCH   1  24
ATOM     23  O   LIG    1       -1.428   6.429   0.589  0.00  0.00    -0.900 OA
ATOM     24  S   LIG    1       -0.133   6.058   0.139  0.00  0.00    +2.620 S 
ATOM     25  O   LIG    1        1.062   6.643   0.639  0.00  0.00    -0.920 OA
BRANCH  24  26
ATOM     26  C   LIG    1        0.011   4.323   0.413  0.00  0.00    -0.660 A 
ATOM     27  C   LIG    1        1.260   3.745   0.545  0.00  0.00    +0.120 A 
ATOM     28  C   LIG    1        1.372   2.384   0.761  0.00  0.00    +0.000 A 
ATOM     29  C   LIG    1        0.236   1.602   0.846  0.00  0.00    +0.070 A 
ATOM     30  C   LIG    1       -1.012   2.179   0.708  0.00  0.00    -0.010 A 
ATOM     31  C   LIG    1       -1.125   3.540   0.497  0.00  0.00    +0.130 A 
ENDBRANCH  24  26
ENDBRANCH   1  24
TORSDOF 4
