REMARK  Name = ZINCnE000001MRTr.0
REMARK                            x       y       z     vdW  Elec       q    Type
REMARK                         _______ _______ _______ _____ _____    ______ ____
ROOT
ATOM      1  C   LIG    1       -8.063   1.342  -1.271  0.00  0.00    +0.020 C 
ATOM      2  C   LIG    1       -7.309   1.127   0.043  0.00  0.00    +0.230 C 
ATOM      3  C   LIG    1       -8.186   1.572   1.217  0.00  0.00    +0.000 C 
ATOM      4  C   LIG    1       -8.420   3.082   1.131  0.00  0.00    +0.030 C 
ATOM      5  C   LIG    1       -7.080   3.814   1.225  0.00  0.00    -0.110 C 
ATOM      6  C   LIG    1       -6.190   3.394   0.056  0.00  0.00    +0.270 C 
ATOM      7  N   LIG    1       -6.078   1.929   0.041  0.00  0.00    -0.600 N 
ATOM      8  C   LIG    1       -4.870   1.333   0.032  0.00  0.00    +0.520 C 
ATOM      9  O   LIG    1       -4.791   0.123   0.025  0.00  0.00    -0.560 OA
ENDROOT
BRANCH   5  10
ATOM     10  C   LIG    1       -7.314   5.302   1.172  0.00  0.00    +0.500 C 
ATOM     11  O   LIG    1       -8.149   5.760   0.412  0.00  0.00    -0.690 OA
ATOM     12  O   LIG    1       -6.668   6.046   1.890  0.00  0.00    -0.700 OA
ENDBRANCH   5  10
BRANCH   8  13
ATOM     13  C   LIG    1       -3.616   2.170   0.031  0.00  0.00    +0.080 C 
BRANCH  13  14
ATOM     14  C   LIG    1       -2.391   1.253   0.020  0.00  0.00    +0.240 C 
BRANCH  14  15
ATOM     15  O   LIG    1       -1.203   2.047   0.019  0.00  0.00    -0.300 OA
BRANCH  15  16
ATOM     16  C   LIG    1       -0.017   1.382   0.010  0.00  0.00    +0.150 A 
ATOM     17  C   LIG    1        0.002  -0.004   0.002  0.00  0.00    -0.040 A 
ATOM     18  C   LIG    1        1.208  -0.678  -0.013  0.00  0.00    +0.080 A 
ATOM     19  C   LIG    1        2.397   0.029  -0.021  0.00  0.00    -0.070 A 
ATOM     20  C   LIG    1        2.382   1.413  -0.013  0.00  0.00    +0.090 A 
ATOM     21 CL   LIG    1        3.911  -0.820  -0.040  0.00  0.00    -0.060 Cl
ATOM     22  C   LIG    1        1.177   2.091   0.002  0.00  0.00    -0.060 A 
ATOM     23 CL   LIG    1        1.157   3.827   0.011  0.00  0.00    -0.040 Cl
ENDBRANCH  15  16
ENDBRANCH  14  15
ENDBRANCH  13  14
ENDBRANCH   8  13
TORSDOF 5
