REMARK  Name = ZINCrD00000F5LEs.0
REMARK                            x       y       z     vdW  Elec       q    Type
REMARK                         _______ _______ _______ _____ _____    ______ ____
ROOT
ATOM      1  N   LIG    1       -1.726  -1.017  -1.368  0.00  0.00    -0.990 NA
ENDROOT
BRANCH   1   2
ATOM      2  S   LIG    1       -2.802   0.014  -2.091  0.00  0.00    +2.670 S 
ATOM      3  O   LIG    1       -3.411   0.757  -1.045  0.00  0.00    -0.950 OA
ATOM      4  O   LIG    1       -3.540  -0.765  -3.022  0.00  0.00    -0.950 OA
BRANCH   2   6
ATOM      5  C   LIG    1       -1.966   2.449  -2.799  0.00  0.00    +0.230 C 
ATOM      6  C   LIG    1       -1.864   1.165  -3.040  0.00  0.00    -0.580 C 
ENDBRANCH   2   6
ENDBRANCH   1   2
BRANCH   1   7
ATOM      7  C   LIG    1       -1.207  -2.171  -2.107  0.00  0.00    +0.310 C 
BRANCH   7   8
ATOM      8  C   LIG    1       -2.049  -3.405  -1.781  0.00  0.00    -0.010 C 
ATOM      9  C   LIG    1       -1.818  -3.864  -0.322  0.00  0.00    +0.050 C 
ATOM     10  C   LIG    1       -1.857  -5.375  -0.398  0.00  0.00    +0.520 C 
ATOM     11  N   LIG    1       -1.717  -5.778  -1.673  0.00  0.00    -0.610 N 
ATOM     12  O   LIG    1       -1.996  -6.114   0.553  0.00  0.00    -0.520 OA
ATOM     13  C   LIG    1       -1.561  -4.634  -2.579  0.00  0.00    +0.270 C 
BRANCH  11  14
ATOM     14  C   LIG    1       -1.720  -7.179  -2.102  0.00  0.00    +0.170 C 
ATOM     15  C   LIG    1       -2.869  -7.408  -3.087  0.00  0.00    +0.030 C 
ATOM     16  C   LIG    1       -1.905  -8.085  -0.883  0.00  0.00    +0.060 C 
ATOM     17  C   LIG    1       -0.391  -7.506  -2.784  0.00  0.00    +0.030 C 
ENDBRANCH  11  14
ENDBRANCH   7   8
ENDBRANCH   1   7
BRANCH   1  18
ATOM     18  C   LIG    1       -1.293  -0.774   0.010  0.00  0.00    +0.350 C 
BRANCH  18  19
ATOM     19  C   LIG    1        0.002  -0.004   0.002  0.00  0.00    -0.060 A 
ATOM     20  C   LIG    1       -0.017   1.378   0.010  0.00  0.00    -0.010 A 
ATOM     21  C   LIG    1        1.170   2.088   0.002  0.00  0.00    +0.090 A 
ATOM     22  C   LIG    1        2.378   1.417  -0.013  0.00  0.00    -0.120 A 
ATOM     23  C   LIG    1        2.399   0.029  -0.020  0.00  0.00    +0.160 A 
ATOM     24 BR   LIG    1        4.000   2.388  -0.023  0.00  0.00    -0.030 Br
ATOM     25  C   LIG    1        1.207  -0.680  -0.013  0.00  0.00    -0.050 A 
BRANCH  23  26
ATOM     26  O   LIG    1        3.585  -0.634  -0.035  0.00  0.00    -0.300 OA
ATOM     27  C   LIG    1        3.531  -2.062  -0.042  0.00  0.00    +0.250 C 
ENDBRANCH  23  26
ENDBRANCH  18  19
ENDBRANCH   1  18
TORSDOF 8
